MODEL 1
REMARK VINA RESULT:      -6.0      0.000      0.000
REMARK  Name = 28962235
REMARK  11 active torsions:
REMARK  status: ('A' for Active; 'I' for Inactive)
REMARK    1  A    between atoms: O_2  and  C_10
REMARK    2  A    between atoms: O_3  and  C_13
REMARK    3  A    between atoms: N_5  and  C_8
REMARK    4  A    between atoms: N_5  and  C_14
REMARK    5  A    between atoms: N_5  and  C_15
REMARK    6  A    between atoms: N_6  and  C_12
REMARK    7  A    between atoms: C_9  and  C_12
REMARK    8  A    between atoms: C_11  and  C_13
REMARK    9  A    between atoms: C_14  and  C_16
REMARK   10  A    between atoms: C_16  and  C_17
REMARK   11  A    between atoms: C_18  and  C_20
REMARK                            x       y       z     vdW  Elec       q    Type
REMARK                         _______ _______ _______ _____ _____    ______ ____
ROOT
ATOM      1  O   UNL     1       0.132   1.142  23.461  0.00  0.00    -0.365 OA
ATOM      8  C   UNL     1      -1.473  -0.502  24.087  0.00  0.00    +0.118 C 
ATOM      9  C   UNL     1      -1.101   0.982  24.199  0.00  0.00    +0.155 C 
ATOM     10  C   UNL     1      -0.127  -1.176  23.864  0.00  0.00    +0.165 C 
ATOM     11  C   UNL     1       0.560  -0.146  22.977  0.00  0.00    +0.174 C 
ENDROOT
BRANCH  10   2
ATOM      2  O   UNL     1       0.585  -1.333  25.085  0.00  0.00    -0.388 OA
ATOM     24  H   UNL     1      -0.070  -1.452  25.794  0.00  0.00    +0.210 HD
ENDBRANCH  10   2
BRANCH   8   5
ATOM      5  N   UNL     1      -2.267  -1.049  25.173  0.00  0.00    -0.297 NA
ATOM     15  C   UNL     1      -2.004  -2.480  25.344  0.00  0.00    +0.105 C 
BRANCH   5  14
ATOM     14  C   UNL     1      -3.697  -0.825  24.937  0.00  0.00    +0.090 C 
BRANCH  14  16
ATOM     16  C   UNL     1      -3.915   0.244  23.866  0.00  0.00    +0.071 C 
BRANCH  16  17
ATOM      7  N   UNL     1      -4.053   2.675  23.910  0.00  0.00    -0.260 NA
ATOM     17  C   UNL     1      -4.477   1.513  24.456  0.00  0.00    +0.042 A 
ATOM     19  C   UNL     1      -5.379   1.431  25.505  0.00  0.00    +0.023 A 
ATOM     21  C   UNL     1      -5.879   2.619  26.026  0.00  0.00    +0.003 A 
ATOM     22  C   UNL     1      -4.561   3.808  24.443  0.00  0.00    +0.111 A 
ATOM     23  C   UNL     1      -5.468   3.835  25.490  0.00  0.00    +0.020 A 
ENDBRANCH  16  17
ENDBRANCH  14  16
ENDBRANCH   5  14
ENDBRANCH   8   5
BRANCH   9  12
ATOM     12  C   UNL     1      -0.859   1.522  25.604  0.00  0.00    +0.137 C 
BRANCH  12   6
ATOM      4  O   UNL     1       0.004   3.909  24.193  0.00  0.00    -0.276 OA
ATOM      6  N   UNL     1      -1.388   2.871  25.742  0.00  0.00    -0.313 N 
ATOM     18  C   UNL     1      -0.903   3.942  25.019  0.00  0.00    +0.210 C 
ATOM     20  C   UNL     1      -1.643   5.213  25.336  0.00  0.00    +0.109 C 
ATOM     25  H   UNL     1      -2.143   3.017  26.406  0.00  0.00    +0.149 HD
ENDBRANCH  12   6
ENDBRANCH   9  12
BRANCH  11  13
ATOM     13  C   UNL     1       2.077  -0.198  22.970  0.00  0.00    +0.190 C 
BRANCH  13   3
ATOM      3  O   UNL     1       2.582   1.098  23.250  0.00  0.00    -0.392 OA
ATOM     26  H   UNL     1       2.421   1.270  24.194  0.00  0.00    +0.210 HD
ENDBRANCH  13   3
ENDBRANCH  11  13
TORSDOF 9
ENDMDL
MODEL 2
REMARK VINA RESULT:      -5.3      2.000      4.270
REMARK  Name = 28962235
REMARK  11 active torsions:
REMARK  status: ('A' for Active; 'I' for Inactive)
REMARK    1  A    between atoms: O_2  and  C_10
REMARK    2  A    between atoms: O_3  and  C_13
REMARK    3  A    between atoms: N_5  and  C_8
REMARK    4  A    between atoms: N_5  and  C_14
REMARK    5  A    between atoms: N_5  and  C_15
REMARK    6  A    between atoms: N_6  and  C_12
REMARK    7  A    between atoms: C_9  and  C_12
REMARK    8  A    between atoms: C_11  and  C_13
REMARK    9  A    between atoms: C_14  and  C_16
REMARK   10  A    between atoms: C_16  and  C_17
REMARK   11  A    between atoms: C_18  and  C_20
REMARK                            x       y       z     vdW  Elec       q    Type
REMARK                         _______ _______ _______ _____ _____    ______ ____
ROOT
ATOM      1  O   UNL     1      -1.568  -1.109  23.665  0.00  0.00    -0.365 OA
ATOM      8  C   UNL     1      -1.058   1.066  24.490  0.00  0.00    +0.118 C 
ATOM      9  C   UNL     1      -0.629  -0.022  23.497  0.00  0.00    +0.155 C 
ATOM     10  C   UNL     1      -1.779   0.277  25.573  0.00  0.00    +0.165 C 
ATOM     11  C   UNL     1      -2.481  -0.781  24.730  0.00  0.00    +0.174 C 
ENDROOT
BRANCH  10   2
ATOM      2  O   UNL     1      -0.860  -0.335  26.470  0.00  0.00    -0.388 OA
ATOM     24  H   UNL     1      -1.086  -0.039  27.368  0.00  0.00    +0.210 HD
ENDBRANCH  10   2
BRANCH   8   5
ATOM      5  N   UNL     1      -0.010   1.952  24.963  0.00  0.00    -0.297 NA
ATOM     15  C   UNL     1      -0.115   2.160  26.410  0.00  0.00    +0.105 C 
BRANCH   5  14
ATOM     14  C   UNL     1      -0.061   3.240  24.265  0.00  0.00    +0.090 C 
BRANCH  14  16
ATOM     16  C   UNL     1      -0.920   4.246  25.033  0.00  0.00    +0.071 C 
BRANCH  16  17
ATOM      7  N   UNL     1      -2.852   3.355  23.848  0.00  0.00    -0.260 NA
ATOM     17  C   UNL     1      -2.378   3.861  25.009  0.00  0.00    +0.042 A 
ATOM     19  C   UNL     1      -3.144   4.036  26.150  0.00  0.00    +0.023 A 
ATOM     21  C   UNL     1      -4.484   3.669  26.096  0.00  0.00    +0.003 A 
ATOM     22  C   UNL     1      -4.159   3.011  23.834  0.00  0.00    +0.111 A 
ATOM     23  C   UNL     1      -5.009   3.145  24.920  0.00  0.00    +0.020 A 
ENDBRANCH  16  17
ENDBRANCH  14  16
ENDBRANCH   5  14
ENDBRANCH   8   5
BRANCH   9  12
ATOM     12  C   UNL     1       0.769  -0.602  23.680  0.00  0.00    +0.137 C 
BRANCH  12   6
ATOM      4  O   UNL     1       3.616  -1.105  23.408  0.00  0.00    -0.276 OA
ATOM      6  N   UNL     1       1.782   0.306  23.163  0.00  0.00    -0.313 N 
ATOM     18  C   UNL     1       3.117  -0.034  23.076  0.00  0.00    +0.210 C 
ATOM     20  C   UNL     1       3.940   1.078  22.484  0.00  0.00    +0.109 C 
ATOM     25  H   UNL     1       1.480   1.228  22.862  0.00  0.00    +0.149 HD
ENDBRANCH  12   6
ENDBRANCH   9  12
BRANCH  11  13
ATOM     13  C   UNL     1      -2.869  -2.051  25.466  0.00  0.00    +0.190 C 
BRANCH  13   3
ATOM      3  O   UNL     1      -3.582  -2.895  24.578  0.00  0.00    -0.392 OA
ATOM     26  H   UNL     1      -3.439  -3.810  24.875  0.00  0.00    +0.210 HD
ENDBRANCH  13   3
ENDBRANCH  11  13
TORSDOF 9
ENDMDL
MODEL 3
REMARK VINA RESULT:      -5.3      2.475      6.156
REMARK  Name = 28962235
REMARK  11 active torsions:
REMARK  status: ('A' for Active; 'I' for Inactive)
REMARK    1  A    between atoms: O_2  and  C_10
REMARK    2  A    between atoms: O_3  and  C_13
REMARK    3  A    between atoms: N_5  and  C_8
REMARK    4  A    between atoms: N_5  and  C_14
REMARK    5  A    between atoms: N_5  and  C_15
REMARK    6  A    between atoms: N_6  and  C_12
REMARK    7  A    between atoms: C_9  and  C_12
REMARK    8  A    between atoms: C_11  and  C_13
REMARK    9  A    between atoms: C_14  and  C_16
REMARK   10  A    between atoms: C_16  and  C_17
REMARK   11  A    between atoms: C_18  and  C_20
REMARK                            x       y       z     vdW  Elec       q    Type
REMARK                         _______ _______ _______ _____ _____    ______ ____
ROOT
ATOM      1  O   UNL     1      -1.864   3.196  23.435  0.00  0.00    -0.365 OA
ATOM      8  C   UNL     1      -0.675   1.160  23.772  0.00  0.00    +0.118 C 
ATOM      9  C   UNL     1      -1.964   1.772  23.208  0.00  0.00    +0.155 C 
ATOM     10  C   UNL     1      -0.255   2.166  24.833  0.00  0.00    +0.165 C 
ATOM     11  C   UNL     1      -0.646   3.472  24.154  0.00  0.00    +0.174 C 
ENDROOT
BRANCH  10   2
ATOM      2  O   UNL     1      -0.994   1.993  26.036  0.00  0.00    -0.388 OA
ATOM     24  H   UNL     1      -1.878   2.372  25.894  0.00  0.00    +0.210 HD
ENDBRANCH  10   2
BRANCH   8   5
ATOM      5  N   UNL     1      -0.762  -0.217  24.223  0.00  0.00    -0.297 NA
ATOM     15  C   UNL     1      -0.977  -0.280  25.671  0.00  0.00    +0.105 C 
BRANCH   5  14
ATOM     14  C   UNL     1       0.447  -0.962  23.861  0.00  0.00    +0.090 C 
BRANCH  14  16
ATOM     16  C   UNL     1       1.217  -0.250  22.747  0.00  0.00    +0.071 C 
BRANCH  16  17
ATOM      7  N   UNL     1       3.241  -1.325  23.570  0.00  0.00    -0.260 NA
ATOM     17  C   UNL     1       2.697  -0.208  23.037  0.00  0.00    +0.042 A 
ATOM     19  C   UNL     1       3.411   0.943  22.750  0.00  0.00    +0.023 A 
ATOM     21  C   UNL     1       4.774   0.949  23.027  0.00  0.00    +0.003 A 
ATOM     22  C   UNL     1       4.568  -1.281  23.827  0.00  0.00    +0.111 A 
ATOM     23  C   UNL     1       5.371  -0.180  23.576  0.00  0.00    +0.020 A 
ENDBRANCH  16  17
ENDBRANCH  14  16
ENDBRANCH   5  14
ENDBRANCH   8   5
BRANCH   9  12
ATOM     12  C   UNL     1      -3.274   1.306  23.835  0.00  0.00    +0.137 C 
BRANCH  12   6
ATOM      4  O   UNL     1      -6.054   1.523  24.645  0.00  0.00    -0.276 OA
ATOM      6  N   UNL     1      -3.888   2.373  24.612  0.00  0.00    -0.313 N 
ATOM     18  C   UNL     1      -5.227   2.380  24.944  0.00  0.00    +0.210 C 
ATOM     20  C   UNL     1      -5.594   3.583  25.771  0.00  0.00    +0.109 C 
ATOM     25  H   UNL     1      -3.295   3.142  24.911  0.00  0.00    +0.149 HD
ENDBRANCH  12   6
ENDBRANCH   9  12
BRANCH  11  13
ATOM     13  C   UNL     1      -0.871   4.651  25.084  0.00  0.00    +0.190 C 
BRANCH  13   3
ATOM      3  O   UNL     1      -2.171   4.553  25.642  0.00  0.00    -0.392 OA
ATOM     26  H   UNL     1      -2.716   4.052  25.012  0.00  0.00    +0.210 HD
ENDBRANCH  13   3
ENDBRANCH  11  13
TORSDOF 9
ENDMDL
MODEL 4
REMARK VINA RESULT:      -5.2      2.375      6.415
REMARK  Name = 28962235
REMARK  11 active torsions:
REMARK  status: ('A' for Active; 'I' for Inactive)
REMARK    1  A    between atoms: O_2  and  C_10
REMARK    2  A    between atoms: O_3  and  C_13
REMARK    3  A    between atoms: N_5  and  C_8
REMARK    4  A    between atoms: N_5  and  C_14
REMARK    5  A    between atoms: N_5  and  C_15
REMARK    6  A    between atoms: N_6  and  C_12
REMARK    7  A    between atoms: C_9  and  C_12
REMARK    8  A    between atoms: C_11  and  C_13
REMARK    9  A    between atoms: C_14  and  C_16
REMARK   10  A    between atoms: C_16  and  C_17
REMARK   11  A    between atoms: C_18  and  C_20
REMARK                            x       y       z     vdW  Elec       q    Type
REMARK                         _______ _______ _______ _____ _____    ______ ____
ROOT
ATOM      1  O   UNL     1      -2.078   3.146  23.573  0.00  0.00    -0.365 OA
ATOM      8  C   UNL     1      -0.763   1.172  23.779  0.00  0.00    +0.118 C 
ATOM      9  C   UNL     1      -2.133   1.718  23.357  0.00  0.00    +0.155 C 
ATOM     10  C   UNL     1      -0.281   2.201  24.790  0.00  0.00    +0.165 C 
ATOM     11  C   UNL     1      -0.805   3.484  24.157  0.00  0.00    +0.174 C 
ENDROOT
BRANCH  10   2
ATOM      2  O   UNL     1      -0.877   1.998  26.064  0.00  0.00    -0.388 OA
ATOM     24  H   UNL     1      -1.815   1.787  25.920  0.00  0.00    +0.210 HD
ENDBRANCH  10   2
BRANCH   8   5
ATOM      5  N   UNL     1      -0.734  -0.206  24.235  0.00  0.00    -0.297 NA
ATOM     15  C   UNL     1      -0.626  -0.271  25.696  0.00  0.00    +0.105 C 
BRANCH   5  14
ATOM     14  C   UNL     1       0.375  -0.938  23.616  0.00  0.00    +0.090 C 
BRANCH  14  16
ATOM     16  C   UNL     1       1.192  -0.024  22.702  0.00  0.00    +0.071 C 
BRANCH  16  17
ATOM      7  N   UNL     1       3.115  -1.267  23.532  0.00  0.00    -0.260 NA
ATOM     17  C   UNL     1       2.666  -0.101  23.018  0.00  0.00    +0.042 A 
ATOM     19  C   UNL     1       3.469   1.000  22.771  0.00  0.00    +0.023 A 
ATOM     21  C   UNL     1       4.823   0.897  23.071  0.00  0.00    +0.003 A 
ATOM     22  C   UNL     1       4.436  -1.330  23.812  0.00  0.00    +0.111 A 
ATOM     23  C   UNL     1       5.324  -0.287  23.602  0.00  0.00    +0.020 A 
ENDBRANCH  16  17
ENDBRANCH  14  16
ENDBRANCH   5  14
ENDBRANCH   8   5
BRANCH   9  12
ATOM     12  C   UNL     1      -3.344   1.192  24.121  0.00  0.00    +0.137 C 
BRANCH  12   6
ATOM      4  O   UNL     1      -3.871  -1.123  25.793  0.00  0.00    -0.276 OA
ATOM      6  N   UNL     1      -3.692  -0.153  23.686  0.00  0.00    -0.313 N 
ATOM     18  C   UNL     1      -3.923  -1.188  24.568  0.00  0.00    +0.210 C 
ATOM     20  C   UNL     1      -4.288  -2.461  23.854  0.00  0.00    +0.109 C 
ATOM     25  H   UNL     1      -3.759  -0.323  22.687  0.00  0.00    +0.149 HD
ENDBRANCH  12   6
ENDBRANCH   9  12
BRANCH  11  13
ATOM     13  C   UNL     1      -0.986   4.654  25.107  0.00  0.00    +0.190 C 
BRANCH  13   3
ATOM      3  O   UNL     1      -2.243   4.532  25.752  0.00  0.00    -0.392 OA
ATOM     26  H   UNL     1      -2.771   5.308  25.499  0.00  0.00    +0.210 HD
ENDBRANCH  13   3
ENDBRANCH  11  13
TORSDOF 9
ENDMDL
MODEL 5
REMARK VINA RESULT:      -5.0      1.673      4.010
REMARK  Name = 28962235
REMARK  11 active torsions:
REMARK  status: ('A' for Active; 'I' for Inactive)
REMARK    1  A    between atoms: O_2  and  C_10
REMARK    2  A    between atoms: O_3  and  C_13
REMARK    3  A    between atoms: N_5  and  C_8
REMARK    4  A    between atoms: N_5  and  C_14
REMARK    5  A    between atoms: N_5  and  C_15
REMARK    6  A    between atoms: N_6  and  C_12
REMARK    7  A    between atoms: C_9  and  C_12
REMARK    8  A    between atoms: C_11  and  C_13
REMARK    9  A    between atoms: C_14  and  C_16
REMARK   10  A    between atoms: C_16  and  C_17
REMARK   11  A    between atoms: C_18  and  C_20
REMARK                            x       y       z     vdW  Elec       q    Type
REMARK                         _______ _______ _______ _____ _____    ______ ____
ROOT
ATOM      1  O   UNL     1      -0.123  -0.170  24.897  0.00  0.00    -0.365 OA
ATOM      8  C   UNL     1      -0.339   2.199  24.990  0.00  0.00    +0.118 C 
ATOM      9  C   UNL     1      -0.868   0.877  25.559  0.00  0.00    +0.155 C 
ATOM     10  C   UNL     1       0.180   1.798  23.617  0.00  0.00    +0.165 C 
ATOM     11  C   UNL     1       0.760   0.424  23.926  0.00  0.00    +0.174 C 
ENDROOT
BRANCH  10   2
ATOM      2  O   UNL     1      -0.878   1.689  22.674  0.00  0.00    -0.388 OA
ATOM     24  H   UNL     1      -0.916   2.523  22.176  0.00  0.00    +0.210 HD
ENDBRANCH  10   2
BRANCH   8   5
ATOM      5  N   UNL     1      -1.263   3.319  25.001  0.00  0.00    -0.297 NA
ATOM     15  C   UNL     1      -0.613   4.538  24.513  0.00  0.00    +0.105 C 
BRANCH   5  14
ATOM     14  C   UNL     1      -1.799   3.540  26.348  0.00  0.00    +0.090 C 
BRANCH  14  16
ATOM     16  C   UNL     1      -3.135   4.282  26.291  0.00  0.00    +0.071 C 
BRANCH  16  17
ATOM      7  N   UNL     1      -5.191   3.016  26.614  0.00  0.00    -0.260 NA
ATOM     17  C   UNL     1      -4.233   3.404  25.742  0.00  0.00    +0.042 A 
ATOM     19  C   UNL     1      -4.209   3.045  24.404  0.00  0.00    +0.023 A 
ATOM     21  C   UNL     1      -5.235   2.237  23.929  0.00  0.00    +0.003 A 
ATOM     22  C   UNL     1      -6.171   2.230  26.116  0.00  0.00    +0.111 A 
ATOM     23  C   UNL     1      -6.240   1.817  24.795  0.00  0.00    +0.020 A 
ENDBRANCH  16  17
ENDBRANCH  14  16
ENDBRANCH   5  14
ENDBRANCH   8   5
BRANCH   9  12
ATOM     12  C   UNL     1      -2.349   0.584  25.343  0.00  0.00    +0.137 C 
BRANCH  12   6
ATOM      4  O   UNL     1      -4.034  -0.923  23.520  0.00  0.00    -0.276 OA
ATOM      6  N   UNL     1      -2.604  -0.849  25.354  0.00  0.00    -0.313 N 
ATOM     18  C   UNL     1      -3.427  -1.469  24.436  0.00  0.00    +0.210 C 
ATOM     20  C   UNL     1      -3.495  -2.956  24.659  0.00  0.00    +0.109 C 
ATOM     25  H   UNL     1      -2.154  -1.404  26.076  0.00  0.00    +0.149 HD
ENDBRANCH  12   6
ENDBRANCH   9  12
BRANCH  11  13
ATOM     13  C   UNL     1       0.896  -0.510  22.737  0.00  0.00    +0.190 C 
BRANCH  13   3
ATOM      3  O   UNL     1       1.746   0.094  21.775  0.00  0.00    -0.392 OA
ATOM     26  H   UNL     1       1.930  -0.576  21.095  0.00  0.00    +0.210 HD
ENDBRANCH  13   3
ENDBRANCH  11  13
TORSDOF 9
ENDMDL
MODEL 6
REMARK VINA RESULT:      -4.9      2.660      6.716
REMARK  Name = 28962235
REMARK  11 active torsions:
REMARK  status: ('A' for Active; 'I' for Inactive)
REMARK    1  A    between atoms: O_2  and  C_10
REMARK    2  A    between atoms: O_3  and  C_13
REMARK    3  A    between atoms: N_5  and  C_8
REMARK    4  A    between atoms: N_5  and  C_14
REMARK    5  A    between atoms: N_5  and  C_15
REMARK    6  A    between atoms: N_6  and  C_12
REMARK    7  A    between atoms: C_9  and  C_12
REMARK    8  A    between atoms: C_11  and  C_13
REMARK    9  A    between atoms: C_14  and  C_16
REMARK   10  A    between atoms: C_16  and  C_17
REMARK   11  A    between atoms: C_18  and  C_20
REMARK                            x       y       z     vdW  Elec       q    Type
REMARK                         _______ _______ _______ _____ _____    ______ ____
ROOT
ATOM      1  O   UNL     1      -4.705   2.245  24.321  0.00  0.00    -0.365 OA
ATOM      8  C   UNL     1      -2.709   3.540  24.414  0.00  0.00    +0.118 C 
ATOM      9  C   UNL     1      -3.277   2.146  24.118  0.00  0.00    +0.155 C 
ATOM     10  C   UNL     1      -3.734   4.132  25.371  0.00  0.00    +0.165 C 
ATOM     11  C   UNL     1      -5.023   3.572  24.783  0.00  0.00    +0.174 C 
ENDROOT
BRANCH  10   2
ATOM      2  O   UNL     1      -3.545   3.652  26.696  0.00  0.00    -0.388 OA
ATOM     24  H   UNL     1      -3.280   2.719  26.636  0.00  0.00    +0.210 HD
ENDBRANCH  10   2
BRANCH   8   5
ATOM      5  N   UNL     1      -1.333   3.589  24.873  0.00  0.00    -0.297 NA
ATOM     15  C   UNL     1      -0.904   4.973  25.095  0.00  0.00    +0.105 C 
BRANCH   5  14
ATOM     14  C   UNL     1      -0.439   2.933  23.912  0.00  0.00    +0.090 C 
BRANCH  14  16
ATOM     16  C   UNL     1       0.417   1.868  24.599  0.00  0.00    +0.071 C 
BRANCH  16  17
ATOM      7  N   UNL     1       2.581   1.525  23.537  0.00  0.00    -0.260 NA
ATOM     17  C   UNL     1       1.289   1.136  23.610  0.00  0.00    +0.042 A 
ATOM     19  C   UNL     1       0.738   0.123  22.842  0.00  0.00    +0.023 A 
ATOM     21  C   UNL     1       1.569  -0.534  21.940  0.00  0.00    +0.003 A 
ATOM     22  C   UNL     1       3.357   0.865  22.649  0.00  0.00    +0.111 A 
ATOM     23  C   UNL     1       2.905  -0.162  21.836  0.00  0.00    +0.020 A 
ENDBRANCH  16  17
ENDBRANCH  14  16
ENDBRANCH   5  14
ENDBRANCH   8   5
BRANCH   9  12
ATOM     12  C   UNL     1      -2.775   1.003  24.993  0.00  0.00    +0.137 C 
BRANCH  12   6
ATOM      4  O   UNL     1      -3.480  -1.444  26.388  0.00  0.00    -0.276 OA
ATOM      6  N   UNL     1      -3.102  -0.287  24.405  0.00  0.00    -0.313 N 
ATOM     18  C   UNL     1      -3.425  -1.394  25.163  0.00  0.00    +0.210 C 
ATOM     20  C   UNL     1      -3.744  -2.588  24.303  0.00  0.00    +0.109 C 
ATOM     25  H   UNL     1      -3.084  -0.363  23.392  0.00  0.00    +0.149 HD
ENDBRANCH  12   6
ENDBRANCH   9  12
BRANCH  11  13
ATOM     13  C   UNL     1      -6.200   3.500  25.740  0.00  0.00    +0.190 C 
BRANCH  13   3
ATOM      3  O   UNL     1      -6.076   2.329  26.531  0.00  0.00    -0.392 OA
ATOM     26  H   UNL     1      -6.965   2.110  26.859  0.00  0.00    +0.210 HD
ENDBRANCH  13   3
ENDBRANCH  11  13
TORSDOF 9
ENDMDL
MODEL 7
REMARK VINA RESULT:      -4.8      1.648      5.076
REMARK  Name = 28962235
REMARK  11 active torsions:
REMARK  status: ('A' for Active; 'I' for Inactive)
REMARK    1  A    between atoms: O_2  and  C_10
REMARK    2  A    between atoms: O_3  and  C_13
REMARK    3  A    between atoms: N_5  and  C_8
REMARK    4  A    between atoms: N_5  and  C_14
REMARK    5  A    between atoms: N_5  and  C_15
REMARK    6  A    between atoms: N_6  and  C_12
REMARK    7  A    between atoms: C_9  and  C_12
REMARK    8  A    between atoms: C_11  and  C_13
REMARK    9  A    between atoms: C_14  and  C_16
REMARK   10  A    between atoms: C_16  and  C_17
REMARK   11  A    between atoms: C_18  and  C_20
REMARK                            x       y       z     vdW  Elec       q    Type
REMARK                         _______ _______ _______ _____ _____    ______ ____
ROOT
ATOM      1  O   UNL     1      -1.524   3.180  25.152  0.00  0.00    -0.365 OA
ATOM      8  C   UNL     1      -3.780   2.422  25.220  0.00  0.00    +0.118 C 
ATOM      9  C   UNL     1      -2.359   2.063  24.769  0.00  0.00    +0.155 C 
ATOM     10  C   UNL     1      -3.763   3.944  25.225  0.00  0.00    +0.165 C 
ATOM     11  C   UNL     1      -2.351   4.207  25.731  0.00  0.00    +0.174 C 
ENDROOT
BRANCH  10   2
ATOM      2  O   UNL     1      -3.927   4.470  23.915  0.00  0.00    -0.388 OA
ATOM     24  H   UNL     1      -4.771   4.137  23.567  0.00  0.00    +0.210 HD
ENDBRANCH  10   2
BRANCH   8   5
ATOM      5  N   UNL     1      -4.864   1.817  24.466  0.00  0.00    -0.297 NA
ATOM     15  C   UNL     1      -6.146   2.005  25.152  0.00  0.00    +0.105 C 
BRANCH   5  14
ATOM     14  C   UNL     1      -4.615   0.389  24.249  0.00  0.00    +0.090 C 
BRANCH  14  16
ATOM     16  C   UNL     1      -4.179  -0.295  25.546  0.00  0.00    +0.071 C 
BRANCH  16  17
ATOM      7  N   UNL     1      -1.826  -0.762  25.962  0.00  0.00    -0.260 NA
ATOM     17  C   UNL     1      -2.957  -1.154  25.335  0.00  0.00    +0.042 A 
ATOM     19  C   UNL     1      -3.049  -2.277  24.530  0.00  0.00    +0.023 A 
ATOM     21  C   UNL     1      -1.905  -3.049  24.357  0.00  0.00    +0.003 A 
ATOM     22  C   UNL     1      -0.735  -1.536  25.770  0.00  0.00    +0.111 A 
ATOM     23  C   UNL     1      -0.721  -2.679  24.986  0.00  0.00    +0.020 A 
ENDBRANCH  16  17
ENDBRANCH  14  16
ENDBRANCH   5  14
ENDBRANCH   8   5
BRANCH   9  12
ATOM     12  C   UNL     1      -2.151   1.834  23.276  0.00  0.00    +0.137 C 
BRANCH  12   6
ATOM      4  O   UNL     1       0.677   1.962  23.923  0.00  0.00    -0.276 OA
ATOM      6  N   UNL     1      -1.143   0.811  23.041  0.00  0.00    -0.313 N 
ATOM     18  C   UNL     1       0.183   0.974  23.388  0.00  0.00    +0.210 C 
ATOM     20  C   UNL     1       1.002  -0.244  23.056  0.00  0.00    +0.109 C 
ATOM     25  H   UNL     1      -1.440  -0.052  22.596  0.00  0.00    +0.149 HD
ENDBRANCH  12   6
ENDBRANCH   9  12
BRANCH  11  13
ATOM     13  C   UNL     1      -1.776   5.568  25.382  0.00  0.00    +0.190 C 
BRANCH  13   3
ATOM      3  O   UNL     1      -0.543   5.385  24.705  0.00  0.00    -0.392 OA
ATOM     26  H   UNL     1      -0.181   4.532  24.996  0.00  0.00    +0.210 HD
ENDBRANCH  13   3
ENDBRANCH  11  13
TORSDOF 9
ENDMDL
MODEL 8
REMARK VINA RESULT:      -4.6      2.253      4.398
REMARK  Name = 28962235
REMARK  11 active torsions:
REMARK  status: ('A' for Active; 'I' for Inactive)
REMARK    1  A    between atoms: O_2  and  C_10
REMARK    2  A    between atoms: O_3  and  C_13
REMARK    3  A    between atoms: N_5  and  C_8
REMARK    4  A    between atoms: N_5  and  C_14
REMARK    5  A    between atoms: N_5  and  C_15
REMARK    6  A    between atoms: N_6  and  C_12
REMARK    7  A    between atoms: C_9  and  C_12
REMARK    8  A    between atoms: C_11  and  C_13
REMARK    9  A    between atoms: C_14  and  C_16
REMARK   10  A    between atoms: C_16  and  C_17
REMARK   11  A    between atoms: C_18  and  C_20
REMARK                            x       y       z     vdW  Elec       q    Type
REMARK                         _______ _______ _______ _____ _____    ______ ____
ROOT
ATOM      1  O   UNL     1      -3.312  -0.808  25.545  0.00  0.00    -0.365 OA
ATOM      8  C   UNL     1      -1.099  -0.166  24.942  0.00  0.00    +0.118 C 
ATOM      9  C   UNL     1      -2.532   0.342  25.144  0.00  0.00    +0.155 C 
ATOM     10  C   UNL     1      -1.302  -1.637  24.609  0.00  0.00    +0.165 C 
ATOM     11  C   UNL     1      -2.468  -1.976  25.528  0.00  0.00    +0.174 C 
ENDROOT
BRANCH  10   2
ATOM      2  O   UNL     1      -1.675  -1.816  23.249  0.00  0.00    -0.388 OA
ATOM     24  H   UNL     1      -2.613  -2.073  23.232  0.00  0.00    +0.210 HD
ENDBRANCH  10   2
BRANCH   8   5
ATOM      5  N   UNL     1      -0.282   0.576  23.999  0.00  0.00    -0.297 NA
ATOM     15  C   UNL     1       0.577  -0.327  23.228  0.00  0.00    +0.105 C 
BRANCH   5  14
ATOM     14  C   UNL     1       0.533   1.579  24.691  0.00  0.00    +0.090 C 
BRANCH  14  16
ATOM     16  C   UNL     1      -0.175   2.090  25.947  0.00  0.00    +0.071 C 
BRANCH  16  17
ATOM      7  N   UNL     1      -2.059   3.581  26.340  0.00  0.00    -0.260 NA
ATOM     17  C   UNL     1      -0.891   3.392  25.687  0.00  0.00    +0.042 A 
ATOM     19  C   UNL     1      -0.331   4.311  24.814  0.00  0.00    +0.023 A 
ATOM     21  C   UNL     1      -1.014   5.502  24.598  0.00  0.00    +0.003 A 
ATOM     22  C   UNL     1      -2.695   4.750  26.104  0.00  0.00    +0.111 A 
ATOM     23  C   UNL     1      -2.220   5.734  25.251  0.00  0.00    +0.020 A 
ENDBRANCH  16  17
ENDBRANCH  14  16
ENDBRANCH   5  14
ENDBRANCH   8   5
BRANCH   9  12
ATOM     12  C   UNL     1      -3.220   0.952  23.928  0.00  0.00    +0.137 C 
BRANCH  12   6
ATOM      4  O   UNL     1      -5.761   1.179  25.317  0.00  0.00    -0.276 OA
ATOM      6  N   UNL     1      -3.927   2.173  24.286  0.00  0.00    -0.313 N 
ATOM     18  C   UNL     1      -5.136   2.170  24.950  0.00  0.00    +0.210 C 
ATOM     20  C   UNL     1      -5.632   3.566  25.217  0.00  0.00    +0.109 C 
ATOM     25  H   UNL     1      -3.502   3.058  24.025  0.00  0.00    +0.149 HD
ENDBRANCH  12   6
ENDBRANCH   9  12
BRANCH  11  13
ATOM     13  C   UNL     1      -3.293  -3.183  25.119  0.00  0.00    +0.190 C 
BRANCH  13   3
ATOM      3  O   UNL     1      -4.169  -2.805  24.070  0.00  0.00    -0.392 OA
ATOM     26  H   UNL     1      -3.663  -2.859  23.241  0.00  0.00    +0.210 HD
ENDBRANCH  13   3
ENDBRANCH  11  13
TORSDOF 9
ENDMDL
MODEL 9
REMARK VINA RESULT:      -4.6      1.869      4.618
REMARK  Name = 28962235
REMARK  11 active torsions:
REMARK  status: ('A' for Active; 'I' for Inactive)
REMARK    1  A    between atoms: O_2  and  C_10
REMARK    2  A    between atoms: O_3  and  C_13
REMARK    3  A    between atoms: N_5  and  C_8
REMARK    4  A    between atoms: N_5  and  C_14
REMARK    5  A    between atoms: N_5  and  C_15
REMARK    6  A    between atoms: N_6  and  C_12
REMARK    7  A    between atoms: C_9  and  C_12
REMARK    8  A    between atoms: C_11  and  C_13
REMARK    9  A    between atoms: C_14  and  C_16
REMARK   10  A    between atoms: C_16  and  C_17
REMARK   11  A    between atoms: C_18  and  C_20
REMARK                            x       y       z     vdW  Elec       q    Type
REMARK                         _______ _______ _______ _____ _____    ______ ____
ROOT
ATOM      1  O   UNL     1      -3.222  -0.654  23.173  0.00  0.00    -0.365 OA
ATOM      8  C   UNL     1      -4.706   0.687  24.465  0.00  0.00    +0.118 C 
ATOM      9  C   UNL     1      -3.466   0.717  23.562  0.00  0.00    +0.155 C 
ATOM     10  C   UNL     1      -4.679  -0.722  25.037  0.00  0.00    +0.165 C 
ATOM     11  C   UNL     1      -4.179  -1.506  23.831  0.00  0.00    +0.174 C 
ENDROOT
BRANCH  10   2
ATOM      2  O   UNL     1      -3.757  -0.828  26.114  0.00  0.00    -0.388 OA
ATOM     24  H   UNL     1      -4.270  -0.961  26.929  0.00  0.00    +0.210 HD
ENDBRANCH  10   2
BRANCH   8   5
ATOM      5  N   UNL     1      -4.812   1.753  25.445  0.00  0.00    -0.297 NA
ATOM     15  C   UNL     1      -6.066   1.648  26.197  0.00  0.00    +0.105 C 
BRANCH   5  14
ATOM     14  C   UNL     1      -4.720   3.067  24.800  0.00  0.00    +0.090 C 
BRANCH  14  16
ATOM     16  C   UNL     1      -4.044   4.083  25.722  0.00  0.00    +0.071 C 
BRANCH  16  17
ATOM      7  N   UNL     1      -1.929   3.064  26.369  0.00  0.00    -0.260 NA
ATOM     17  C   UNL     1      -2.541   4.008  25.620  0.00  0.00    +0.042 A 
ATOM     19  C   UNL     1      -1.874   4.887  24.782  0.00  0.00    +0.023 A 
ATOM     21  C   UNL     1      -0.488   4.791  24.709  0.00  0.00    +0.003 A 
ATOM     22  C   UNL     1      -0.582   3.001  26.272  0.00  0.00    +0.111 A 
ATOM     23  C   UNL     1       0.178   3.832  25.465  0.00  0.00    +0.020 A 
ENDBRANCH  16  17
ENDBRANCH  14  16
ENDBRANCH   5  14
ENDBRANCH   8   5
BRANCH   9  12
ATOM     12  C   UNL     1      -2.179   1.245  24.185  0.00  0.00    +0.137 C 
BRANCH  12   6
ATOM      4  O   UNL     1      -0.071  -0.644  24.831  0.00  0.00    -0.276 OA
ATOM      6  N   UNL     1      -1.024   0.897  23.371  0.00  0.00    -0.313 N 
ATOM     18  C   UNL     1      -0.074  -0.020  23.774  0.00  0.00    +0.210 C 
ATOM     20  C   UNL     1       0.997  -0.211  22.735  0.00  0.00    +0.109 C 
ATOM     25  H   UNL     1      -0.923   1.359  22.472  0.00  0.00    +0.149 HD
ENDBRANCH  12   6
ENDBRANCH   9  12
BRANCH  11  13
ATOM     13  C   UNL     1      -3.527  -2.841  24.144  0.00  0.00    +0.190 C 
BRANCH  13   3
ATOM      3  O   UNL     1      -2.156  -2.625  24.432  0.00  0.00    -0.392 OA
ATOM     26  H   UNL     1      -1.671  -3.409  24.123  0.00  0.00    +0.210 HD
ENDBRANCH  13   3
ENDBRANCH  11  13
TORSDOF 9
ENDMDL
MODEL 10
REMARK VINA RESULT:      -4.5      2.720      6.248
REMARK  Name = 28962235
REMARK  11 active torsions:
REMARK  status: ('A' for Active; 'I' for Inactive)
REMARK    1  A    between atoms: O_2  and  C_10
REMARK    2  A    between atoms: O_3  and  C_13
REMARK    3  A    between atoms: N_5  and  C_8
REMARK    4  A    between atoms: N_5  and  C_14
REMARK    5  A    between atoms: N_5  and  C_15
REMARK    6  A    between atoms: N_6  and  C_12
REMARK    7  A    between atoms: C_9  and  C_12
REMARK    8  A    between atoms: C_11  and  C_13
REMARK    9  A    between atoms: C_14  and  C_16
REMARK   10  A    between atoms: C_16  and  C_17
REMARK   11  A    between atoms: C_18  and  C_20
REMARK                            x       y       z     vdW  Elec       q    Type
REMARK                         _______ _______ _______ _____ _____    ______ ____
ROOT
ATOM      1  O   UNL     1      -5.092   2.576  24.302  0.00  0.00    -0.365 OA
ATOM      8  C   UNL     1      -2.991   3.696  24.372  0.00  0.00    +0.118 C 
ATOM      9  C   UNL     1      -3.696   2.393  23.974  0.00  0.00    +0.155 C 
ATOM     10  C   UNL     1      -3.890   4.250  25.468  0.00  0.00    +0.165 C 
ATOM     11  C   UNL     1      -5.261   3.862  24.930  0.00  0.00    +0.174 C 
ENDROOT
BRANCH  10   2
ATOM      2  O   UNL     1      -3.647   3.608  26.714  0.00  0.00    -0.388 OA
ATOM     24  H   UNL     1      -3.154   2.790  26.532  0.00  0.00    +0.210 HD
ENDBRANCH  10   2
BRANCH   8   5
ATOM      5  N   UNL     1      -1.586   3.585  24.720  0.00  0.00    -0.297 NA
ATOM     15  C   UNL     1      -1.038   4.891  25.100  0.00  0.00    +0.105 C 
BRANCH   5  14
ATOM     14  C   UNL     1      -0.816   3.021  23.607  0.00  0.00    +0.090 C 
BRANCH  14  16
ATOM     16  C   UNL     1       0.395   2.240  24.119  0.00  0.00    +0.071 C 
BRANCH  16  17
ATOM      7  N   UNL     1       0.149  -0.140  23.668  0.00  0.00    -0.260 NA
ATOM     17  C   UNL     1       0.008   0.854  24.572  0.00  0.00    +0.042 A 
ATOM     19  C   UNL     1      -0.461   0.670  25.862  0.00  0.00    +0.023 A 
ATOM     21  C   UNL     1      -0.808  -0.620  26.250  0.00  0.00    +0.003 A 
ATOM     22  C   UNL     1      -0.198  -1.380  24.080  0.00  0.00    +0.111 A 
ATOM     23  C   UNL     1      -0.677  -1.670  25.348  0.00  0.00    +0.020 A 
ENDBRANCH  16  17
ENDBRANCH  14  16
ENDBRANCH   5  14
ENDBRANCH   8   5
BRANCH   9  12
ATOM     12  C   UNL     1      -3.230   1.122  24.676  0.00  0.00    +0.137 C 
BRANCH  12   6
ATOM      4  O   UNL     1      -3.933  -1.473  25.776  0.00  0.00    -0.276 OA
ATOM      6  N   UNL     1      -3.656  -0.063  23.945  0.00  0.00    -0.313 N 
ATOM     18  C   UNL     1      -3.968  -1.254  24.569  0.00  0.00    +0.210 C 
ATOM     20  C   UNL     1      -4.401  -2.306  23.583  0.00  0.00    +0.109 C 
ATOM     25  H   UNL     1      -3.717   0.002  22.934  0.00  0.00    +0.149 HD
ENDBRANCH  12   6
ENDBRANCH   9  12
BRANCH  11  13
ATOM     13  C   UNL     1      -6.367   3.771  25.966  0.00  0.00    +0.190 C 
BRANCH  13   3
ATOM      3  O   UNL     1      -6.301   2.501  26.596  0.00  0.00    -0.392 OA
ATOM     26  H   UNL     1      -6.914   1.914  26.121  0.00  0.00    +0.210 HD
ENDBRANCH  13   3
ENDBRANCH  11  13
TORSDOF 9
ENDMDL
