MODEL 1
REMARK VINA RESULT:      -1.9      0.000      0.000
REMARK  Name = 26762283
REMARK  11 active torsions:
REMARK  status: ('A' for Active; 'I' for Inactive)
REMARK    1  A    between atoms: O_4  and  C_30
REMARK    2  A    between atoms: O_4  and  C_31
REMARK    3  A    between atoms: N_7  and  C_12
REMARK    4  A    between atoms: N_8  and  C_21
REMARK    5  A    between atoms: N_9  and  C_22
REMARK    6  A    between atoms: C_11  and  C_17
REMARK    7  A    between atoms: C_17  and  C_18
REMARK    8  A    between atoms: C_18  and  C_20
REMARK    9  A    between atoms: C_21  and  C_23
REMARK   10  A    between atoms: C_21  and  C_24
REMARK   11  A    between atoms: C_22  and  C_25
REMARK                            x       y       z     vdW  Elec       q    Type
REMARK                         _______ _______ _______ _____ _____    ______ ____
ROOT
ATOM      1  O   UNL     1      -1.081  -1.311  26.601  0.00  0.00    -0.274 OA
ATOM      5  N   UNL     1       0.075   1.240  24.442  0.00  0.00    -0.285 NA
ATOM      6  N   UNL     1      -0.979   0.955  26.949  0.00  0.00    -0.313 N 
ATOM     10  C   UNL     1      -0.814   0.098  24.673  0.00  0.00    +0.145 C 
ATOM     11  C   UNL     1      -0.522   2.460  24.988  0.00  0.00    +0.075 C 
ATOM     12  C   UNL     1       0.530  -0.259  22.706  0.00  0.00    +0.090 C 
ATOM     13  C   UNL     1      -0.154  -1.005  23.859  0.00  0.00    +0.052 C 
ATOM     14  C   UNL     1       0.316   1.228  22.999  0.00  0.00    +0.107 C 
ATOM     15  C   UNL     1      -0.577   2.284  26.512  0.00  0.00    +0.123 C 
ATOM     16  C   UNL     1      -0.931  -0.175  26.155  0.00  0.00    +0.230 C 
ATOM     32  H   UNL     1      -1.132   0.821  27.944  0.00  0.00    +0.149 HD
ENDROOT
BRANCH  12   7
ATOM      2  O   UNL     1       2.761   1.376  23.530  0.00  0.00    -0.253 OA
ATOM      7  N   UNL     1       1.929  -0.595  22.626  0.00  0.00    -0.295 N 
ATOM      8  N   UNL     1       4.202  -0.316  22.860  0.00  0.00    -0.297 N 
ATOM     19  C   UNL     1       2.947   0.258  23.050  0.00  0.00    +0.300 C 
ATOM     33  H   UNL     1       2.192  -1.466  22.174  0.00  0.00    +0.151 HD
ATOM     34  H   UNL     1       4.249  -1.274  22.528  0.00  0.00    +0.150 HD
BRANCH   8  21
ATOM     21  C   UNL     1       5.431   0.355  23.213  0.00  0.00    +0.068 C 
ATOM     23  C   UNL     1       6.629  -0.423  22.686  0.00  0.00    +0.027 C 
ATOM     24  C   UNL     1       5.519   0.550  24.721  0.00  0.00    +0.027 C 
ENDBRANCH   8  21
ENDBRANCH  12   7
BRANCH  11  17
ATOM     17  C   UNL     1       0.274   3.722  24.646  0.00  0.00    +0.029 C 
BRANCH  17  18
ATOM     18  C   UNL     1      -0.579   4.971  24.813  0.00  0.00    +0.097 C 
BRANCH  18  20
ATOM      3  O   UNL     1      -2.571   4.937  26.188  0.00  0.00    -0.276 OA
ATOM      9  N   UNL     1      -2.634   3.957  24.086  0.00  0.00    -0.311 N 
ATOM     20  C   UNL     1      -2.025   4.636  25.131  0.00  0.00    +0.213 C 
ATOM     35  H   UNL     1      -2.122   3.774  23.230  0.00  0.00    +0.149 HD
BRANCH   9  22
ATOM     22  C   UNL     1      -4.011   3.526  24.145  0.00  0.00    +0.139 C 
BRANCH  22  25
ATOM     25  C   UNL     1      -4.132   2.030  24.157  0.00  0.00    -0.030 A 
ATOM     26  C   UNL     1      -4.860   1.396  25.165  0.00  0.00    +0.009 A 
ATOM     27  C   UNL     1      -3.517   1.273  23.160  0.00  0.00    +0.009 A 
ATOM     28  C   UNL     1      -4.973   0.006  25.175  0.00  0.00    +0.046 A 
ATOM     29  C   UNL     1      -3.629  -0.117  23.171  0.00  0.00    +0.046 A 
ATOM     30  C   UNL     1      -4.357  -0.751  24.178  0.00  0.00    +0.120 A 
BRANCH  30   4
ATOM      4  O   UNL     1      -4.467  -2.107  24.188  0.00  0.00    -0.495 OA
ATOM     31  C   UNL     1      -3.348  -2.846  24.675  0.00  0.00    +0.277 C 
ENDBRANCH  30   4
ENDBRANCH  22  25
ENDBRANCH   9  22
ENDBRANCH  18  20
ENDBRANCH  17  18
ENDBRANCH  11  17
TORSDOF 8
ENDMDL
MODEL 2
REMARK VINA RESULT:      -1.3      1.962      6.935
REMARK  Name = 26762283
REMARK  11 active torsions:
REMARK  status: ('A' for Active; 'I' for Inactive)
REMARK    1  A    between atoms: O_4  and  C_30
REMARK    2  A    between atoms: O_4  and  C_31
REMARK    3  A    between atoms: N_7  and  C_12
REMARK    4  A    between atoms: N_8  and  C_21
REMARK    5  A    between atoms: N_9  and  C_22
REMARK    6  A    between atoms: C_11  and  C_17
REMARK    7  A    between atoms: C_17  and  C_18
REMARK    8  A    between atoms: C_18  and  C_20
REMARK    9  A    between atoms: C_21  and  C_23
REMARK   10  A    between atoms: C_21  and  C_24
REMARK   11  A    between atoms: C_22  and  C_25
REMARK                            x       y       z     vdW  Elec       q    Type
REMARK                         _______ _______ _______ _____ _____    ______ ____
ROOT
ATOM      1  O   UNL     1      -5.897   3.829  25.689  0.00  0.00    -0.274 OA
ATOM      5  N   UNL     1      -2.611   3.283  24.502  0.00  0.00    -0.285 NA
ATOM      6  N   UNL     1      -3.895   4.511  26.580  0.00  0.00    -0.313 N 
ATOM     10  C   UNL     1      -3.968   3.778  24.256  0.00  0.00    +0.145 C 
ATOM     11  C   UNL     1      -1.817   4.309  25.182  0.00  0.00    +0.075 C 
ATOM     12  C   UNL     1      -3.350   2.144  22.599  0.00  0.00    +0.090 C 
ATOM     13  C   UNL     1      -4.558   2.696  23.365  0.00  0.00    +0.052 C 
ATOM     14  C   UNL     1      -2.133   2.863  23.185  0.00  0.00    +0.107 C 
ATOM     15  C   UNL     1      -2.440   4.505  26.571  0.00  0.00    +0.123 C 
ATOM     16  C   UNL     1      -4.684   3.996  25.570  0.00  0.00    +0.230 C 
ATOM     32  H   UNL     1      -4.352   4.742  27.458  0.00  0.00    +0.149 HD
ENDROOT
BRANCH  12   7
ATOM      2  O   UNL     1      -4.182   0.566  24.868  0.00  0.00    -0.253 OA
ATOM      7  N   UNL     1      -3.251   0.713  22.745  0.00  0.00    -0.295 N 
ATOM      8  N   UNL     1      -3.468  -1.343  23.757  0.00  0.00    -0.297 N 
ATOM     19  C   UNL     1      -3.680   0.028  23.881  0.00  0.00    +0.300 C 
ATOM     33  H   UNL     1      -2.781   0.184  22.016  0.00  0.00    +0.151 HD
ATOM     34  H   UNL     1      -3.119  -1.698  22.872  0.00  0.00    +0.150 HD
BRANCH   8  21
ATOM     21  C   UNL     1      -3.821  -2.286  24.791  0.00  0.00    +0.068 C 
ATOM     23  C   UNL     1      -3.257  -1.837  26.133  0.00  0.00    +0.027 C 
ATOM     24  C   UNL     1      -3.336  -3.684  24.427  0.00  0.00    +0.027 C 
ENDBRANCH   8  21
ENDBRANCH  12   7
BRANCH  11  17
ATOM     17  C   UNL     1      -0.343   3.926  25.330  0.00  0.00    +0.029 C 
BRANCH  17  18
ATOM     18  C   UNL     1      -0.190   2.621  26.098  0.00  0.00    +0.097 C 
BRANCH  18  20
ATOM      3  O   UNL     1      -0.579   0.359  25.330  0.00  0.00    -0.276 OA
ATOM      9  N   UNL     1       0.885   1.717  24.147  0.00  0.00    -0.311 N 
ATOM     20  C   UNL     1      -0.004   1.432  25.173  0.00  0.00    +0.213 C 
ATOM     35  H   UNL     1       1.294   2.642  24.069  0.00  0.00    +0.149 HD
BRANCH   9  22
ATOM     22  C   UNL     1       1.230   0.746  23.135  0.00  0.00    +0.139 C 
BRANCH  22  25
ATOM     25  C   UNL     1       2.644   0.263  23.278  0.00  0.00    -0.030 A 
ATOM     26  C   UNL     1       3.707   1.145  23.073  0.00  0.00    +0.009 A 
ATOM     27  C   UNL     1       2.896  -1.066  23.616  0.00  0.00    +0.009 A 
ATOM     28  C   UNL     1       5.020   0.697  23.207  0.00  0.00    +0.046 A 
ATOM     29  C   UNL     1       4.211  -1.514  23.749  0.00  0.00    +0.046 A 
ATOM     30  C   UNL     1       5.272  -0.633  23.545  0.00  0.00    +0.120 A 
BRANCH  30   4
ATOM      4  O   UNL     1       6.555  -1.070  23.675  0.00  0.00    -0.495 OA
ATOM     31  C   UNL     1       7.555  -0.380  22.928  0.00  0.00    +0.277 C 
ENDBRANCH  30   4
ENDBRANCH  22  25
ENDBRANCH   9  22
ENDBRANCH  18  20
ENDBRANCH  17  18
ENDBRANCH  11  17
TORSDOF 8
ENDMDL
MODEL 3
REMARK VINA RESULT:      -0.9      2.479      5.490
REMARK  Name = 26762283
REMARK  11 active torsions:
REMARK  status: ('A' for Active; 'I' for Inactive)
REMARK    1  A    between atoms: O_4  and  C_30
REMARK    2  A    between atoms: O_4  and  C_31
REMARK    3  A    between atoms: N_7  and  C_12
REMARK    4  A    between atoms: N_8  and  C_21
REMARK    5  A    between atoms: N_9  and  C_22
REMARK    6  A    between atoms: C_11  and  C_17
REMARK    7  A    between atoms: C_17  and  C_18
REMARK    8  A    between atoms: C_18  and  C_20
REMARK    9  A    between atoms: C_21  and  C_23
REMARK   10  A    between atoms: C_21  and  C_24
REMARK   11  A    between atoms: C_22  and  C_25
REMARK                            x       y       z     vdW  Elec       q    Type
REMARK                         _______ _______ _______ _____ _____    ______ ____
ROOT
ATOM      1  O   UNL     1       1.609   0.052  21.880  0.00  0.00    -0.274 OA
ATOM      5  N   UNL     1      -0.452  -0.001  24.753  0.00  0.00    -0.285 NA
ATOM      6  N   UNL     1       0.301  -1.645  22.702  0.00  0.00    -0.313 N 
ATOM     10  C   UNL     1      -0.085   0.632  23.483  0.00  0.00    +0.145 C 
ATOM     11  C   UNL     1      -1.364  -1.121  24.511  0.00  0.00    +0.075 C 
ATOM     12  C   UNL     1       0.011   2.229  25.284  0.00  0.00    +0.090 C 
ATOM     13  C   UNL     1       0.658   1.879  23.938  0.00  0.00    +0.052 C 
ATOM     14  C   UNL     1      -0.977   1.095  25.567  0.00  0.00    +0.107 C 
ATOM     15  C   UNL     1      -0.568  -2.182  23.739  0.00  0.00    +0.123 C 
ATOM     16  C   UNL     1       0.721  -0.330  22.640  0.00  0.00    +0.230 C 
ATOM     32  H   UNL     1       0.767  -2.313  22.095  0.00  0.00    +0.149 HD
ENDROOT
BRANCH  12   7
ATOM      2  O   UNL     1      -0.462   2.579  28.109  0.00  0.00    -0.253 OA
ATOM      7  N   UNL     1       1.004   2.348  26.322  0.00  0.00    -0.295 N 
ATOM      8  N   UNL     1       1.833   2.603  28.454  0.00  0.00    -0.297 N 
ATOM     19  C   UNL     1       0.686   2.516  27.670  0.00  0.00    +0.300 C 
ATOM     33  H   UNL     1       1.983   2.385  26.053  0.00  0.00    +0.151 HD
ATOM     34  H   UNL     1       2.734   2.462  28.008  0.00  0.00    +0.150 HD
BRANCH   8  21
ATOM     21  C   UNL     1       1.790   2.779  29.887  0.00  0.00    +0.068 C 
ATOM     23  C   UNL     1       2.395   1.570  30.588  0.00  0.00    +0.027 C 
ATOM     24  C   UNL     1       0.361   3.030  30.351  0.00  0.00    +0.027 C 
ENDBRANCH   8  21
ENDBRANCH  12   7
BRANCH  11  17
ATOM     17  C   UNL     1      -1.917  -1.733  25.800  0.00  0.00    +0.029 C 
BRANCH  17  18
ATOM     18  C   UNL     1      -3.370  -2.149  25.630  0.00  0.00    +0.097 C 
BRANCH  18  20
ATOM      3  O   UNL     1      -4.555  -1.289  23.702  0.00  0.00    -0.276 OA
ATOM      9  N   UNL     1      -4.411   0.018  25.614  0.00  0.00    -0.311 N 
ATOM     20  C   UNL     1      -4.173  -1.119  24.856  0.00  0.00    +0.213 C 
ATOM     35  H   UNL     1      -4.087   0.067  26.574  0.00  0.00    +0.149 HD
BRANCH   9  22
ATOM     22  C   UNL     1      -5.154   1.145  25.101  0.00  0.00    +0.139 C 
BRANCH  22  25
ATOM     25  C   UNL     1      -4.312   2.386  25.027  0.00  0.00    -0.030 A 
ATOM     26  C   UNL     1      -4.102   3.156  26.172  0.00  0.00    +0.009 A 
ATOM     27  C   UNL     1      -3.741   2.770  23.814  0.00  0.00    +0.009 A 
ATOM     28  C   UNL     1      -3.320   4.308  26.103  0.00  0.00    +0.046 A 
ATOM     29  C   UNL     1      -2.959   3.923  23.746  0.00  0.00    +0.046 A 
ATOM     30  C   UNL     1      -2.748   4.692  24.890  0.00  0.00    +0.120 A 
BRANCH  30   4
ATOM      4  O   UNL     1      -1.985   5.817  24.823  0.00  0.00    -0.495 OA
ATOM     31  C   UNL     1      -0.573   5.638  24.718  0.00  0.00    +0.277 C 
ENDBRANCH  30   4
ENDBRANCH  22  25
ENDBRANCH   9  22
ENDBRANCH  18  20
ENDBRANCH  17  18
ENDBRANCH  11  17
TORSDOF 8
ENDMDL
MODEL 4
REMARK VINA RESULT:      -0.7      1.556      2.157
REMARK  Name = 26762283
REMARK  11 active torsions:
REMARK  status: ('A' for Active; 'I' for Inactive)
REMARK    1  A    between atoms: O_4  and  C_30
REMARK    2  A    between atoms: O_4  and  C_31
REMARK    3  A    between atoms: N_7  and  C_12
REMARK    4  A    between atoms: N_8  and  C_21
REMARK    5  A    between atoms: N_9  and  C_22
REMARK    6  A    between atoms: C_11  and  C_17
REMARK    7  A    between atoms: C_17  and  C_18
REMARK    8  A    between atoms: C_18  and  C_20
REMARK    9  A    between atoms: C_21  and  C_23
REMARK   10  A    between atoms: C_21  and  C_24
REMARK   11  A    between atoms: C_22  and  C_25
REMARK                            x       y       z     vdW  Elec       q    Type
REMARK                         _______ _______ _______ _____ _____    ______ ____
ROOT
ATOM      1  O   UNL     1      -1.969  -2.473  24.515  0.00  0.00    -0.274 OA
ATOM      5  N   UNL     1      -0.061   0.500  24.665  0.00  0.00    -0.285 NA
ATOM      6  N   UNL     1      -1.924  -0.852  26.140  0.00  0.00    -0.313 N 
ATOM     10  C   UNL     1      -1.010  -0.347  23.937  0.00  0.00    +0.145 C 
ATOM     11  C   UNL     1      -0.771   1.326  25.644  0.00  0.00    +0.075 C 
ATOM     12  C   UNL     1       0.919   0.129  22.574  0.00  0.00    +0.090 C 
ATOM     13  C   UNL     1      -0.143  -0.945  22.839  0.00  0.00    +0.052 C 
ATOM     14  C   UNL     1       0.663   1.220  23.617  0.00  0.00    +0.107 C 
ATOM     15  C   UNL     1      -1.354   0.368  26.692  0.00  0.00    +0.123 C 
ATOM     16  C   UNL     1      -1.640  -1.346  24.881  0.00  0.00    +0.230 C 
ATOM     32  H   UNL     1      -2.414  -1.467  26.782  0.00  0.00    +0.149 HD
ENDROOT
BRANCH  12   7
ATOM      2  O   UNL     1       3.358   1.582  23.095  0.00  0.00    -0.253 OA
ATOM      7  N   UNL     1       2.249  -0.417  22.683  0.00  0.00    -0.295 N 
ATOM      8  N   UNL     1       4.530  -0.419  22.992  0.00  0.00    -0.297 N 
ATOM     19  C   UNL     1       3.377   0.362  22.938  0.00  0.00    +0.300 C 
ATOM     33  H   UNL     1       2.382  -1.406  22.493  0.00  0.00    +0.151 HD
ATOM     34  H   UNL     1       4.432  -1.428  22.926  0.00  0.00    +0.150 HD
BRANCH   8  21
ATOM     21  C   UNL     1       5.839   0.135  23.241  0.00  0.00    +0.068 C 
ATOM     23  C   UNL     1       6.921  -0.843  22.804  0.00  0.00    +0.027 C 
ATOM     24  C   UNL     1       5.991   0.506  24.712  0.00  0.00    +0.027 C 
ENDBRANCH   8  21
ENDBRANCH  12   7
BRANCH  11  17
ATOM     17  C   UNL     1       0.132   2.351  26.332  0.00  0.00    +0.029 C 
BRANCH  17  18
ATOM     18  C   UNL     1       0.200   3.645  25.535  0.00  0.00    +0.097 C 
BRANCH  18  20
ATOM      3  O   UNL     1      -1.770   5.049  25.454  0.00  0.00    -0.276 OA
ATOM      9  N   UNL     1      -1.621   3.228  24.022  0.00  0.00    -0.311 N 
ATOM     20  C   UNL     1      -1.163   4.073  25.023  0.00  0.00    +0.213 C 
ATOM     35  H   UNL     1      -1.043   2.460  23.700  0.00  0.00    +0.149 HD
BRANCH   9  22
ATOM     22  C   UNL     1      -2.896   3.424  23.373  0.00  0.00    +0.139 C 
BRANCH  22  25
ATOM     25  C   UNL     1      -4.034   2.901  24.201  0.00  0.00    -0.030 A 
ATOM     26  C   UNL     1      -4.859   3.789  24.894  0.00  0.00    +0.009 A 
ATOM     27  C   UNL     1      -4.268   1.528  24.278  0.00  0.00    +0.009 A 
ATOM     28  C   UNL     1      -5.916   3.304  25.662  0.00  0.00    +0.046 A 
ATOM     29  C   UNL     1      -5.325   1.043  25.047  0.00  0.00    +0.046 A 
ATOM     30  C   UNL     1      -6.149   1.931  25.739  0.00  0.00    +0.120 A 
BRANCH  30   4
ATOM      4  O   UNL     1      -7.182   1.457  26.489  0.00  0.00    -0.495 OA
ATOM     31  C   UNL     1      -6.902   1.137  27.851  0.00  0.00    +0.277 C 
ENDBRANCH  30   4
ENDBRANCH  22  25
ENDBRANCH   9  22
ENDBRANCH  18  20
ENDBRANCH  17  18
ENDBRANCH  11  17
TORSDOF 8
ENDMDL
MODEL 5
REMARK VINA RESULT:      -0.1      1.856      3.406
REMARK  Name = 26762283
REMARK  11 active torsions:
REMARK  status: ('A' for Active; 'I' for Inactive)
REMARK    1  A    between atoms: O_4  and  C_30
REMARK    2  A    between atoms: O_4  and  C_31
REMARK    3  A    between atoms: N_7  and  C_12
REMARK    4  A    between atoms: N_8  and  C_21
REMARK    5  A    between atoms: N_9  and  C_22
REMARK    6  A    between atoms: C_11  and  C_17
REMARK    7  A    between atoms: C_17  and  C_18
REMARK    8  A    between atoms: C_18  and  C_20
REMARK    9  A    between atoms: C_21  and  C_23
REMARK   10  A    between atoms: C_21  and  C_24
REMARK   11  A    between atoms: C_22  and  C_25
REMARK                            x       y       z     vdW  Elec       q    Type
REMARK                         _______ _______ _______ _____ _____    ______ ____
ROOT
ATOM      1  O   UNL     1      -5.509   1.147  25.004  0.00  0.00    -0.274 OA
ATOM      5  N   UNL     1      -2.572   2.990  24.309  0.00  0.00    -0.285 NA
ATOM      6  N   UNL     1      -4.605   2.928  26.136  0.00  0.00    -0.313 N 
ATOM     10  C   UNL     1      -3.868   2.476  23.857  0.00  0.00    +0.145 C 
ATOM     11  C   UNL     1      -2.757   4.240  25.049  0.00  0.00    +0.075 C 
ATOM     12  C   UNL     1      -2.110   1.767  22.370  0.00  0.00    +0.090 C 
ATOM     13  C   UNL     1      -3.467   1.332  22.938  0.00  0.00    +0.052 C 
ATOM     14  C   UNL     1      -1.768   3.074  23.090  0.00  0.00    +0.107 C 
ATOM     15  C   UNL     1      -3.528   3.888  26.329  0.00  0.00    +0.123 C 
ATOM     16  C   UNL     1      -4.712   2.083  25.048  0.00  0.00    +0.230 C 
ATOM     32  H   UNL     1      -5.209   2.743  26.931  0.00  0.00    +0.149 HD
ENDROOT
BRANCH  12   7
ATOM      2  O   UNL     1       0.649   2.184  23.108  0.00  0.00    -0.253 OA
ATOM      7  N   UNL     1      -1.107   0.755  22.588  0.00  0.00    -0.295 N 
ATOM      8  N   UNL     1       0.964  -0.115  23.091  0.00  0.00    -0.297 N 
ATOM     19  C   UNL     1       0.210   1.047  22.944  0.00  0.00    +0.300 C 
ATOM     33  H   UNL     1      -1.349  -0.214  22.403  0.00  0.00    +0.151 HD
ATOM     34  H   UNL     1       0.492  -1.010  23.010  0.00  0.00    +0.150 HD
BRANCH   8  21
ATOM     21  C   UNL     1       2.361  -0.100  23.456  0.00  0.00    +0.068 C 
ATOM     23  C   UNL     1       3.188   0.554  22.357  0.00  0.00    +0.027 C 
ATOM     24  C   UNL     1       2.851  -1.513  23.750  0.00  0.00    +0.027 C 
ENDBRANCH   8  21
ENDBRANCH  12   7
BRANCH  11  17
ATOM     17  C   UNL     1      -1.437   4.921  25.417  0.00  0.00    +0.029 C 
BRANCH  17  18
ATOM     18  C   UNL     1      -0.275   3.941  25.342  0.00  0.00    +0.097 C 
BRANCH  18  20
ATOM      3  O   UNL     1      -0.521   3.038  27.574  0.00  0.00    -0.276 OA
ATOM      9  N   UNL     1      -0.346   1.578  25.778  0.00  0.00    -0.311 N 
ATOM     20  C   UNL     1      -0.396   2.831  26.370  0.00  0.00    +0.213 C 
ATOM     35  H   UNL     1      -0.273   1.494  24.770  0.00  0.00    +0.149 HD
BRANCH   9  22
ATOM     22  C   UNL     1      -0.440   0.359  26.546  0.00  0.00    +0.139 C 
BRANCH  22  25
ATOM     25  C   UNL     1      -1.334  -0.653  25.889  0.00  0.00    -0.030 A 
ATOM     26  C   UNL     1      -2.719  -0.545  26.014  0.00  0.00    +0.009 A 
ATOM     27  C   UNL     1      -0.779  -1.700  25.154  0.00  0.00    +0.009 A 
ATOM     28  C   UNL     1      -3.550  -1.484  25.403  0.00  0.00    +0.046 A 
ATOM     29  C   UNL     1      -1.610  -2.639  24.544  0.00  0.00    +0.046 A 
ATOM     30  C   UNL     1      -2.995  -2.531  24.668  0.00  0.00    +0.120 A 
BRANCH  30   4
ATOM      4  O   UNL     1      -3.805  -3.448  24.072  0.00  0.00    -0.495 OA
ATOM     31  C   UNL     1      -4.954  -2.951  23.387  0.00  0.00    +0.277 C 
ENDBRANCH  30   4
ENDBRANCH  22  25
ENDBRANCH   9  22
ENDBRANCH  18  20
ENDBRANCH  17  18
ENDBRANCH  11  17
TORSDOF 8
ENDMDL
MODEL 6
REMARK VINA RESULT:       0.0      3.104      4.663
REMARK  Name = 26762283
REMARK  11 active torsions:
REMARK  status: ('A' for Active; 'I' for Inactive)
REMARK    1  A    between atoms: O_4  and  C_30
REMARK    2  A    between atoms: O_4  and  C_31
REMARK    3  A    between atoms: N_7  and  C_12
REMARK    4  A    between atoms: N_8  and  C_21
REMARK    5  A    between atoms: N_9  and  C_22
REMARK    6  A    between atoms: C_11  and  C_17
REMARK    7  A    between atoms: C_17  and  C_18
REMARK    8  A    between atoms: C_18  and  C_20
REMARK    9  A    between atoms: C_21  and  C_23
REMARK   10  A    between atoms: C_21  and  C_24
REMARK   11  A    between atoms: C_22  and  C_25
REMARK                            x       y       z     vdW  Elec       q    Type
REMARK                         _______ _______ _______ _____ _____    ______ ____
ROOT
ATOM      1  O   UNL     1      -1.325   0.619  22.270  0.00  0.00    -0.274 OA
ATOM      5  N   UNL     1      -1.937   3.220  24.586  0.00  0.00    -0.285 NA
ATOM      6  N   UNL     1      -3.193   1.927  22.531  0.00  0.00    -0.313 N 
ATOM     10  C   UNL     1      -1.092   2.650  23.533  0.00  0.00    +0.145 C 
ATOM     11  C   UNL     1      -3.047   3.967  23.991  0.00  0.00    +0.075 C 
ATOM     12  C   UNL     1       0.198   3.060  25.526  0.00  0.00    +0.090 C 
ATOM     13  C   UNL     1       0.100   2.121  24.317  0.00  0.00    +0.052 C 
ATOM     14  C   UNL     1      -1.012   3.990  25.418  0.00  0.00    +0.107 C 
ATOM     15  C   UNL     1      -3.931   2.945  23.264  0.00  0.00    +0.123 C 
ATOM     16  C   UNL     1      -1.867   1.611  22.755  0.00  0.00    +0.230 C 
ATOM     32  H   UNL     1      -3.732   1.292  21.949  0.00  0.00    +0.149 HD
ENDROOT
BRANCH  12   7
ATOM      2  O   UNL     1       1.907   3.488  27.812  0.00  0.00    -0.253 OA
ATOM      7  N   UNL     1       0.198   2.317  26.761  0.00  0.00    -0.295 N 
ATOM      8  N   UNL     1       0.847   1.726  28.889  0.00  0.00    -0.297 N 
ATOM     19  C   UNL     1       1.062   2.593  27.821  0.00  0.00    +0.300 C 
ATOM     33  H   UNL     1      -0.412   1.508  26.839  0.00  0.00    +0.151 HD
ATOM     34  H   UNL     1       0.074   1.071  28.830  0.00  0.00    +0.150 HD
BRANCH   8  21
ATOM     21  C   UNL     1       1.607   1.791  30.115  0.00  0.00    +0.068 C 
ATOM     23  C   UNL     1       0.888   2.658  31.139  0.00  0.00    +0.027 C 
ATOM     24  C   UNL     1       3.015   2.309  29.843  0.00  0.00    +0.027 C 
ENDBRANCH   8  21
ENDBRANCH  12   7
BRANCH  11  17
ATOM     17  C   UNL     1      -3.883   4.725  25.025  0.00  0.00    +0.029 C 
BRANCH  17  18
ATOM     18  C   UNL     1      -5.340   4.290  24.978  0.00  0.00    +0.097 C 
BRANCH  18  20
ATOM      3  O   UNL     1      -5.731   2.864  26.895  0.00  0.00    -0.276 OA
ATOM      9  N   UNL     1      -5.551   1.902  24.790  0.00  0.00    -0.311 N 
ATOM     20  C   UNL     1      -5.563   2.964  25.683  0.00  0.00    +0.213 C 
ATOM     35  H   UNL     1      -5.437   2.073  23.797  0.00  0.00    +0.149 HD
BRANCH   9  22
ATOM     22  C   UNL     1      -5.740   0.536  25.217  0.00  0.00    +0.139 C 
BRANCH  22  25
ATOM     25  C   UNL     1      -4.495  -0.286  25.041  0.00  0.00    -0.030 A 
ATOM     26  C   UNL     1      -4.511  -1.409  24.213  0.00  0.00    +0.009 A 
ATOM     27  C   UNL     1      -3.323   0.075  25.705  0.00  0.00    +0.009 A 
ATOM     28  C   UNL     1      -3.355  -2.171  24.049  0.00  0.00    +0.046 A 
ATOM     29  C   UNL     1      -2.167  -0.688  25.541  0.00  0.00    +0.046 A 
ATOM     30  C   UNL     1      -2.183  -1.811  24.713  0.00  0.00    +0.120 A 
BRANCH  30   4
ATOM      4  O   UNL     1      -1.054  -2.554  24.553  0.00  0.00    -0.495 OA
ATOM     31  C   UNL     1       0.101  -2.147  25.286  0.00  0.00    +0.277 C 
ENDBRANCH  30   4
ENDBRANCH  22  25
ENDBRANCH   9  22
ENDBRANCH  18  20
ENDBRANCH  17  18
ENDBRANCH  11  17
TORSDOF 8
ENDMDL
MODEL 7
REMARK VINA RESULT:       1.0      2.499      4.828
REMARK  Name = 26762283
REMARK  11 active torsions:
REMARK  status: ('A' for Active; 'I' for Inactive)
REMARK    1  A    between atoms: O_4  and  C_30
REMARK    2  A    between atoms: O_4  and  C_31
REMARK    3  A    between atoms: N_7  and  C_12
REMARK    4  A    between atoms: N_8  and  C_21
REMARK    5  A    between atoms: N_9  and  C_22
REMARK    6  A    between atoms: C_11  and  C_17
REMARK    7  A    between atoms: C_17  and  C_18
REMARK    8  A    between atoms: C_18  and  C_20
REMARK    9  A    between atoms: C_21  and  C_23
REMARK   10  A    between atoms: C_21  and  C_24
REMARK   11  A    between atoms: C_22  and  C_25
REMARK                            x       y       z     vdW  Elec       q    Type
REMARK                         _______ _______ _______ _____ _____    ______ ____
ROOT
ATOM      1  O   UNL     1      -3.899  -1.465  25.750  0.00  0.00    -0.274 OA
ATOM      5  N   UNL     1      -2.898   1.408  23.949  0.00  0.00    -0.285 NA
ATOM      6  N   UNL     1      -4.738   0.669  25.831  0.00  0.00    -0.313 N 
ATOM     10  C   UNL     1      -3.349   0.014  23.938  0.00  0.00    +0.145 C 
ATOM     11  C   UNL     1      -4.048   2.308  24.055  0.00  0.00    +0.075 C 
ATOM     12  C   UNL     1      -1.272   0.241  22.740  0.00  0.00    +0.090 C 
ATOM     13  C   UNL     1      -2.074  -0.743  23.600  0.00  0.00    +0.052 C 
ATOM     14  C   UNL     1      -2.086   1.537  22.739  0.00  0.00    +0.107 C 
ATOM     15  C   UNL     1      -4.674   2.069  25.436  0.00  0.00    +0.123 C 
ATOM     16  C   UNL     1      -3.977  -0.336  25.268  0.00  0.00    +0.230 C 
ATOM     32  H   UNL     1      -5.238   0.452  26.688  0.00  0.00    +0.149 HD
ENDROOT
BRANCH  12   7
ATOM      2  O   UNL     1       1.222  -0.604  21.559  0.00  0.00    -0.253 OA
ATOM      7  N   UNL     1       0.052   0.439  23.273  0.00  0.00    -0.295 N 
ATOM      8  N   UNL     1       2.349   0.318  23.366  0.00  0.00    -0.297 N 
ATOM     19  C   UNL     1       1.210  -0.004  22.633  0.00  0.00    +0.300 C 
ATOM     33  H   UNL     1       0.145   0.857  24.195  0.00  0.00    +0.151 HD
ATOM     34  H   UNL     1       2.241   0.883  24.203  0.00  0.00    +0.150 HD
BRANCH   8  21
ATOM     21  C   UNL     1       3.682  -0.025  22.930  0.00  0.00    +0.068 C 
ATOM     23  C   UNL     1       4.220  -1.195  23.743  0.00  0.00    +0.027 C 
ATOM     24  C   UNL     1       4.604   1.185  23.026  0.00  0.00    +0.027 C 
ENDBRANCH   8  21
ENDBRANCH  12   7
BRANCH  11  17
ATOM     17  C   UNL     1      -3.670   3.785  23.912  0.00  0.00    +0.029 C 
BRANCH  17  18
ATOM     18  C   UNL     1      -3.166   4.352  25.231  0.00  0.00    +0.097 C 
BRANCH  18  20
ATOM      3  O   UNL     1      -1.027   5.472  25.065  0.00  0.00    -0.276 OA
ATOM      9  N   UNL     1      -1.079   3.209  25.577  0.00  0.00    -0.311 N 
ATOM     20  C   UNL     1      -1.651   4.436  25.275  0.00  0.00    +0.213 C 
ATOM     35  H   UNL     1      -1.668   2.406  25.768  0.00  0.00    +0.149 HD
BRANCH   9  22
ATOM     22  C   UNL     1       0.350   3.029  25.675  0.00  0.00    +0.139 C 
BRANCH  22  25
ATOM     25  C   UNL     1       0.786   2.754  27.085  0.00  0.00    -0.030 A 
ATOM     26  C   UNL     1       2.085   3.067  27.488  0.00  0.00    +0.009 A 
ATOM     27  C   UNL     1      -0.107   2.186  27.993  0.00  0.00    +0.009 A 
ATOM     28  C   UNL     1       2.489   2.812  28.798  0.00  0.00    +0.046 A 
ATOM     29  C   UNL     1       0.298   1.930  29.303  0.00  0.00    +0.046 A 
ATOM     30  C   UNL     1       1.596   2.244  29.705  0.00  0.00    +0.120 A 
BRANCH  30   4
ATOM      4  O   UNL     1       1.990   1.995  30.984  0.00  0.00    -0.495 OA
ATOM     31  C   UNL     1       0.996   2.096  32.002  0.00  0.00    +0.277 C 
ENDBRANCH  30   4
ENDBRANCH  22  25
ENDBRANCH   9  22
ENDBRANCH  18  20
ENDBRANCH  17  18
ENDBRANCH  11  17
TORSDOF 8
ENDMDL
