MODEL 1
REMARK VINA RESULT:      -2.4      0.000      0.000
REMARK  Name = 26744730
REMARK  6 active torsions:
REMARK  status: ('A' for Active; 'I' for Inactive)
REMARK    1  A    between atoms: N_2  and  C_12
REMARK    2  A    between atoms: C_9  and  C_16
REMARK    3  A    between atoms: C_12  and  C_15
REMARK    4  A    between atoms: C_15  and  C_17
REMARK    5  A    between atoms: C_17  and  C_19
REMARK    6  A    between atoms: C_20  and  C_23
REMARK                            x       y       z     vdW  Elec       q    Type
REMARK                         _______ _______ _______ _____ _____    ______ ____
ROOT
ATOM      2  N   UNL     1      -2.895   1.028  24.082  0.00  0.00    -0.285 NA
ATOM      3  N   UNL     1      -4.654   3.807  25.883  0.00  0.00    -0.347 N 
ATOM      4  N   UNL     1      -2.602   4.644  26.176  0.00  0.00    -0.240 NA
ATOM      9  C   UNL     1      -1.732   1.890  23.677  0.00  0.00    +0.152 C 
ATOM     10  C   UNL     1      -1.347   2.935  24.784  0.00  0.00    +0.085 C 
ATOM     11  C   UNL     1      -4.125   1.828  24.351  0.00  0.00    +0.140 C 
ATOM     13  C   UNL     1      -3.806   3.005  25.183  0.00  0.00    +0.053 A 
ATOM     14  C   UNL     1      -2.558   3.541  25.372  0.00  0.00    +0.065 A 
ATOM     18  C   UNL     1      -3.881   4.780  26.466  0.00  0.00    +0.197 A 
ATOM     30  H   UNL     1      -5.658   3.712  25.959  0.00  0.00    +0.167 HD
ENDROOT
BRANCH   9  16
ATOM      1  O   UNL     1      -0.620   0.117  22.397  0.00  0.00    -0.336 OA
ATOM      5  N   UNL     1       0.746   1.237  23.774  0.00  0.00    -0.189 NA
ATOM      6  N   UNL     1       0.648  -0.454  22.236  0.00  0.00    -0.054 NA
ATOM     16  C   UNL     1      -0.475   1.103  23.319  0.00  0.00    +0.245 A 
ATOM     20  C   UNL     1       1.399   0.259  23.080  0.00  0.00    +0.222 A 
BRANCH  20  23
ATOM      7  N   UNL     1       3.626   1.062  23.015  0.00  0.00    -0.249 NA
ATOM      8  N   UNL     1       4.596  -1.447  23.810  0.00  0.00    -0.260 NA
ATOM     23  C   UNL     1       2.803   0.022  23.254  0.00  0.00    +0.129 A 
ATOM     27  C   UNL     1       3.279  -1.210  23.643  0.00  0.00    +0.142 A 
ATOM     28  C   UNL     1       4.942   0.826  23.182  0.00  0.00    +0.131 A 
ATOM     29  C   UNL     1       5.419  -0.407  23.571  0.00  0.00    +0.130 A 
ENDBRANCH  20  23
ENDBRANCH   9  16
BRANCH   2  12
ATOM     12  C   UNL     1      -3.221   0.016  23.068  0.00  0.00    +0.086 C 
BRANCH  12  15
ATOM     15  C   UNL     1      -4.438  -0.799  23.501  0.00  0.00    +0.020 C 
BRANCH  15  17
ATOM     17  C   UNL     1      -4.015  -2.070  24.242  0.00  0.00    +0.036 C 
BRANCH  17  19
ATOM     19  C   UNL     1      -2.642  -1.932  24.848  0.00  0.00    -0.047 A 
ATOM     21  C   UNL     1      -1.576  -2.671  24.337  0.00  0.00    +0.003 A 
ATOM     22  C   UNL     1      -2.438  -1.063  25.920  0.00  0.00    +0.003 A 
ATOM     24  C   UNL     1      -0.305  -2.543  24.898  0.00  0.00    +0.000 A 
ATOM     25  C   UNL     1      -1.167  -0.934  26.481  0.00  0.00    +0.000 A 
ATOM     26  C   UNL     1      -0.100  -1.674  25.970  0.00  0.00    +0.000 A 
ENDBRANCH  17  19
ENDBRANCH  15  17
ENDBRANCH  12  15
ENDBRANCH   2  12
TORSDOF 6
ENDMDL
MODEL 2
REMARK VINA RESULT:      -1.4      1.309      6.579
REMARK  Name = 26744730
REMARK  6 active torsions:
REMARK  status: ('A' for Active; 'I' for Inactive)
REMARK    1  A    between atoms: N_2  and  C_12
REMARK    2  A    between atoms: C_9  and  C_16
REMARK    3  A    between atoms: C_12  and  C_15
REMARK    4  A    between atoms: C_15  and  C_17
REMARK    5  A    between atoms: C_17  and  C_19
REMARK    6  A    between atoms: C_20  and  C_23
REMARK                            x       y       z     vdW  Elec       q    Type
REMARK                         _______ _______ _______ _____ _____    ______ ____
ROOT
ATOM      2  N   UNL     1       0.471  -0.643  23.603  0.00  0.00    -0.285 NA
ATOM      3  N   UNL     1       4.196  -0.669  23.176  0.00  0.00    -0.347 N 
ATOM      4  N   UNL     1       3.969   1.528  22.830  0.00  0.00    -0.240 NA
ATOM      9  C   UNL     1       0.431   0.787  24.066  0.00  0.00    +0.152 C 
ATOM     10  C   UNL     1       1.486   1.685  23.326  0.00  0.00    +0.085 C 
ATOM     11  C   UNL     1       1.801  -1.276  23.837  0.00  0.00    +0.140 C 
ATOM     13  C   UNL     1       2.888  -0.374  23.407  0.00  0.00    +0.053 A 
ATOM     14  C   UNL     1       2.774   0.976  23.196  0.00  0.00    +0.065 A 
ATOM     18  C   UNL     1       4.808   0.511  22.829  0.00  0.00    +0.197 A 
ATOM     30  H   UNL     1       4.638  -1.575  23.248  0.00  0.00    +0.167 HD
ENDROOT
BRANCH   9  16
ATOM      1  O   UNL     1      -1.437   1.517  22.654  0.00  0.00    -0.336 OA
ATOM      5  N   UNL     1      -1.711   1.969  24.830  0.00  0.00    -0.189 NA
ATOM      6  N   UNL     1      -2.679   2.155  22.765  0.00  0.00    -0.054 NA
ATOM     16  C   UNL     1      -0.934   1.448  23.914  0.00  0.00    +0.245 A 
ATOM     20  C   UNL     1      -2.769   2.390  24.077  0.00  0.00    +0.222 A 
BRANCH  20  23
ATOM      7  N   UNL     1      -4.024   4.365  24.447  0.00  0.00    -0.249 NA
ATOM      8  N   UNL     1      -5.887   2.940  25.986  0.00  0.00    -0.260 NA
ATOM     23  C   UNL     1      -3.903   3.041  24.668  0.00  0.00    +0.129 A 
ATOM     27  C   UNL     1      -4.817   2.342  25.425  0.00  0.00    +0.142 A 
ATOM     28  C   UNL     1      -5.093   4.963  25.008  0.00  0.00    +0.131 A 
ATOM     29  C   UNL     1      -6.008   4.264  25.765  0.00  0.00    +0.130 A 
ENDBRANCH  20  23
ENDBRANCH   9  16
BRANCH   2  12
ATOM     12  C   UNL     1      -0.551  -1.471  24.258  0.00  0.00    +0.086 C 
BRANCH  12  15
ATOM     15  C   UNL     1      -0.488  -1.291  25.774  0.00  0.00    +0.020 C 
BRANCH  15  17
ATOM     17  C   UNL     1      -1.892  -1.254  26.383  0.00  0.00    +0.036 C 
BRANCH  17  19
ATOM     19  C   UNL     1      -2.947  -1.640  25.379  0.00  0.00    -0.047 A 
ATOM     21  C   UNL     1      -3.823  -0.676  24.882  0.00  0.00    +0.003 A 
ATOM     22  C   UNL     1      -3.046  -2.962  24.945  0.00  0.00    +0.003 A 
ATOM     24  C   UNL     1      -4.800  -1.033  23.952  0.00  0.00    +0.000 A 
ATOM     25  C   UNL     1      -4.021  -3.320  24.014  0.00  0.00    +0.000 A 
ATOM     26  C   UNL     1      -4.899  -2.355  23.518  0.00  0.00    +0.000 A 
ENDBRANCH  17  19
ENDBRANCH  15  17
ENDBRANCH  12  15
ENDBRANCH   2  12
TORSDOF 6
ENDMDL
MODEL 3
REMARK VINA RESULT:      -1.3      1.459      1.807
REMARK  Name = 26744730
REMARK  6 active torsions:
REMARK  status: ('A' for Active; 'I' for Inactive)
REMARK    1  A    between atoms: N_2  and  C_12
REMARK    2  A    between atoms: C_9  and  C_16
REMARK    3  A    between atoms: C_12  and  C_15
REMARK    4  A    between atoms: C_15  and  C_17
REMARK    5  A    between atoms: C_17  and  C_19
REMARK    6  A    between atoms: C_20  and  C_23
REMARK                            x       y       z     vdW  Elec       q    Type
REMARK                         _______ _______ _______ _____ _____    ______ ____
ROOT
ATOM      2  N   UNL     1      -3.825   1.316  24.563  0.00  0.00    -0.285 NA
ATOM      3  N   UNL     1      -6.673   3.527  25.592  0.00  0.00    -0.347 N 
ATOM      4  N   UNL     1      -5.075   4.999  26.119  0.00  0.00    -0.240 NA
ATOM      9  C   UNL     1      -2.911   2.467  24.248  0.00  0.00    +0.152 C 
ATOM     10  C   UNL     1      -3.101   3.670  25.239  0.00  0.00    +0.085 C 
ATOM     11  C   UNL     1      -5.265   1.700  24.488  0.00  0.00    +0.140 C 
ATOM     13  C   UNL     1      -5.496   2.984  25.180  0.00  0.00    +0.053 A 
ATOM     14  C   UNL     1      -4.534   3.904  25.507  0.00  0.00    +0.065 A 
ATOM     18  C   UNL     1      -6.368   4.743  26.154  0.00  0.00    +0.197 A 
ATOM     30  H   UNL     1      -7.596   3.123  25.502  0.00  0.00    +0.167 HD
ENDROOT
BRANCH   9  16
ATOM      1  O   UNL     1      -0.737   2.353  25.379  0.00  0.00    -0.336 OA
ATOM      5  N   UNL     1      -0.715   1.560  23.285  0.00  0.00    -0.189 NA
ATOM      6  N   UNL     1       0.577   1.936  25.135  0.00  0.00    -0.054 NA
ATOM     16  C   UNL     1      -1.432   2.097  24.240  0.00  0.00    +0.245 A 
ATOM     20  C   UNL     1       0.510   1.481  23.881  0.00  0.00    +0.222 A 
BRANCH  20  23
ATOM      7  N   UNL     1       2.841   1.506  23.460  0.00  0.00    -0.249 NA
ATOM      8  N   UNL     1       2.579  -0.625  21.656  0.00  0.00    -0.260 NA
ATOM     23  C   UNL     1       1.648   0.940  23.194  0.00  0.00    +0.129 A 
ATOM     27  C   UNL     1       1.519  -0.107  22.308  0.00  0.00    +0.142 A 
ATOM     28  C   UNL     1       3.901   0.988  22.808  0.00  0.00    +0.131 A 
ATOM     29  C   UNL     1       3.772  -0.059  21.921  0.00  0.00    +0.130 A 
ENDBRANCH  20  23
ENDBRANCH   9  16
BRANCH   2  12
ATOM     12  C   UNL     1      -3.611   0.171  23.667  0.00  0.00    +0.086 C 
BRANCH  12  15
ATOM     15  C   UNL     1      -4.690  -0.887  23.888  0.00  0.00    +0.020 C 
BRANCH  15  17
ATOM     17  C   UNL     1      -4.090  -2.177  24.453  0.00  0.00    +0.036 C 
BRANCH  17  19
ATOM     19  C   UNL     1      -2.675  -1.972  24.928  0.00  0.00    -0.047 A 
ATOM     21  C   UNL     1      -1.621  -2.612  24.276  0.00  0.00    +0.003 A 
ATOM     22  C   UNL     1      -2.419  -1.143  26.020  0.00  0.00    +0.003 A 
ATOM     24  C   UNL     1      -0.310  -2.423  24.715  0.00  0.00    +0.000 A 
ATOM     25  C   UNL     1      -1.108  -0.952  26.459  0.00  0.00    +0.000 A 
ATOM     26  C   UNL     1      -0.054  -1.593  25.807  0.00  0.00    +0.000 A 
ENDBRANCH  17  19
ENDBRANCH  15  17
ENDBRANCH  12  15
ENDBRANCH   2  12
TORSDOF 6
ENDMDL
MODEL 4
REMARK VINA RESULT:      -1.2      1.361      2.707
REMARK  Name = 26744730
REMARK  6 active torsions:
REMARK  status: ('A' for Active; 'I' for Inactive)
REMARK    1  A    between atoms: N_2  and  C_12
REMARK    2  A    between atoms: C_9  and  C_16
REMARK    3  A    between atoms: C_12  and  C_15
REMARK    4  A    between atoms: C_15  and  C_17
REMARK    5  A    between atoms: C_17  and  C_19
REMARK    6  A    between atoms: C_20  and  C_23
REMARK                            x       y       z     vdW  Elec       q    Type
REMARK                         _______ _______ _______ _____ _____    ______ ____
ROOT
ATOM      2  N   UNL     1      -1.006   2.101  25.116  0.00  0.00    -0.285 NA
ATOM      3  N   UNL     1      -4.258   3.881  24.550  0.00  0.00    -0.347 N 
ATOM      4  N   UNL     1      -3.881   3.456  22.388  0.00  0.00    -0.240 NA
ATOM      9  C   UNL     1      -1.133   1.260  23.876  0.00  0.00    +0.152 C 
ATOM     10  C   UNL     1      -1.796   2.042  22.687  0.00  0.00    +0.085 C 
ATOM     11  C   UNL     1      -2.329   2.580  25.613  0.00  0.00    +0.140 C 
ATOM     13  C   UNL     1      -3.144   3.100  24.497  0.00  0.00    +0.053 A 
ATOM     14  C   UNL     1      -2.937   2.848  23.166  0.00  0.00    +0.065 A 
ATOM     18  C   UNL     1      -4.665   4.069  23.252  0.00  0.00    +0.197 A 
ATOM     30  H   UNL     1      -4.704   4.249  25.379  0.00  0.00    +0.167 HD
ENDROOT
BRANCH   9  16
ATOM      1  O   UNL     1       0.164   0.059  22.175  0.00  0.00    -0.336 OA
ATOM      5  N   UNL     1       1.370   0.709  23.947  0.00  0.00    -0.189 NA
ATOM      6  N   UNL     1       1.473  -0.376  21.935  0.00  0.00    -0.054 NA
ATOM     16  C   UNL     1       0.190   0.687  23.380  0.00  0.00    +0.245 A 
ATOM     20  C   UNL     1       2.124   0.045  23.023  0.00  0.00    +0.222 A 
BRANCH  20  23
ATOM      7  N   UNL     1       3.885  -1.388  23.698  0.00  0.00    -0.249 NA
ATOM      8  N   UNL     1       5.778   0.596  23.109  0.00  0.00    -0.260 NA
ATOM     23  C   UNL     1       3.527  -0.181  23.219  0.00  0.00    +0.129 A 
ATOM     27  C   UNL     1       4.457   0.794  22.930  0.00  0.00    +0.142 A 
ATOM     28  C   UNL     1       5.207  -1.586  23.876  0.00  0.00    +0.131 A 
ATOM     29  C   UNL     1       6.136  -0.611  23.588  0.00  0.00    +0.130 A 
ENDBRANCH  20  23
ENDBRANCH   9  16
BRANCH   2  12
ATOM     12  C   UNL     1      -0.339   1.384  26.212  0.00  0.00    +0.086 C 
BRANCH  12  15
ATOM     15  C   UNL     1      -1.266   0.315  26.789  0.00  0.00    +0.020 C 
BRANCH  15  17
ATOM     17  C   UNL     1      -1.041  -1.037  26.106  0.00  0.00    +0.036 C 
BRANCH  17  19
ATOM     19  C   UNL     1      -2.236  -1.454  25.288  0.00  0.00    -0.047 A 
ATOM     21  C   UNL     1      -3.361  -0.634  25.229  0.00  0.00    +0.003 A 
ATOM     22  C   UNL     1      -2.215  -2.662  24.591  0.00  0.00    +0.003 A 
ATOM     24  C   UNL     1      -4.468  -1.020  24.471  0.00  0.00    +0.000 A 
ATOM     25  C   UNL     1      -3.321  -3.049  23.833  0.00  0.00    +0.000 A 
ATOM     26  C   UNL     1      -4.447  -2.228  23.773  0.00  0.00    +0.000 A 
ENDBRANCH  17  19
ENDBRANCH  15  17
ENDBRANCH  12  15
ENDBRANCH   2  12
TORSDOF 6
ENDMDL
MODEL 5
REMARK VINA RESULT:      -1.0      1.458      3.039
REMARK  Name = 26744730
REMARK  6 active torsions:
REMARK  status: ('A' for Active; 'I' for Inactive)
REMARK    1  A    between atoms: N_2  and  C_12
REMARK    2  A    between atoms: C_9  and  C_16
REMARK    3  A    between atoms: C_12  and  C_15
REMARK    4  A    between atoms: C_15  and  C_17
REMARK    5  A    between atoms: C_17  and  C_19
REMARK    6  A    between atoms: C_20  and  C_23
REMARK                            x       y       z     vdW  Elec       q    Type
REMARK                         _______ _______ _______ _____ _____    ______ ____
ROOT
ATOM      2  N   UNL     1      -0.978   1.375  25.602  0.00  0.00    -0.285 NA
ATOM      3  N   UNL     1      -2.841   4.561  26.265  0.00  0.00    -0.347 N 
ATOM      4  N   UNL     1      -1.422   5.461  24.790  0.00  0.00    -0.240 NA
ATOM      9  C   UNL     1      -0.573   1.782  24.212  0.00  0.00    +0.152 C 
ATOM     10  C   UNL     1      -0.253   3.316  24.106  0.00  0.00    +0.085 C 
ATOM     11  C   UNL     1      -2.200   2.093  26.066  0.00  0.00    +0.140 C 
ATOM     13  C   UNL     1      -2.103   3.534  25.762  0.00  0.00    +0.053 A 
ATOM     14  C   UNL     1      -1.247   4.108  24.858  0.00  0.00    +0.065 A 
ATOM     18  C   UNL     1      -2.392   5.704  25.649  0.00  0.00    +0.197 A 
ATOM     30  H   UNL     1      -3.579   4.501  26.953  0.00  0.00    +0.167 HD
ENDROOT
BRANCH   9  16
ATOM      1  O   UNL     1       0.424   0.286  22.542  0.00  0.00    -0.336 OA
ATOM      5  N   UNL     1       1.852   0.953  24.133  0.00  0.00    -0.189 NA
ATOM      6  N   UNL     1       1.650  -0.319  22.241  0.00  0.00    -0.054 NA
ATOM     16  C   UNL     1       0.629   1.016  23.670  0.00  0.00    +0.245 A 
ATOM     20  C   UNL     1       2.441   0.122  23.224  0.00  0.00    +0.222 A 
BRANCH  20  23
ATOM      7  N   UNL     1       4.088  -1.492  23.766  0.00  0.00    -0.249 NA
ATOM      8  N   UNL     1       6.130   0.303  23.080  0.00  0.00    -0.260 NA
ATOM     23  C   UNL     1       3.824  -0.246  23.326  0.00  0.00    +0.129 A 
ATOM     27  C   UNL     1       4.827   0.636  22.989  0.00  0.00    +0.142 A 
ATOM     28  C   UNL     1       5.391  -1.824  23.857  0.00  0.00    +0.131 A 
ATOM     29  C   UNL     1       6.394  -0.943  23.520  0.00  0.00    +0.130 A 
ENDBRANCH  20  23
ENDBRANCH   9  16
BRANCH   2  12
ATOM     12  C   UNL     1      -1.227  -0.069  25.711  0.00  0.00    +0.086 C 
BRANCH  12  15
ATOM     15  C   UNL     1      -1.822  -0.605  24.410  0.00  0.00    +0.020 C 
BRANCH  15  17
ATOM     17  C   UNL     1      -3.314  -0.908  24.570  0.00  0.00    +0.036 C 
BRANCH  17  19
ATOM     19  C   UNL     1      -4.137   0.354  24.617  0.00  0.00    -0.047 A 
ATOM     21  C   UNL     1      -5.109   0.517  25.603  0.00  0.00    +0.003 A 
ATOM     22  C   UNL     1      -3.926   1.359  23.672  0.00  0.00    +0.003 A 
ATOM     24  C   UNL     1      -5.871   1.685  25.647  0.00  0.00    +0.000 A 
ATOM     25  C   UNL     1      -4.687   2.527  23.716  0.00  0.00    +0.000 A 
ATOM     26  C   UNL     1      -5.660   2.690  24.703  0.00  0.00    +0.000 A 
ENDBRANCH  17  19
ENDBRANCH  15  17
ENDBRANCH  12  15
ENDBRANCH   2  12
TORSDOF 6
ENDMDL
MODEL 6
REMARK VINA RESULT:       0.3      1.866      4.643
REMARK  Name = 26744730
REMARK  6 active torsions:
REMARK  status: ('A' for Active; 'I' for Inactive)
REMARK    1  A    between atoms: N_2  and  C_12
REMARK    2  A    between atoms: C_9  and  C_16
REMARK    3  A    between atoms: C_12  and  C_15
REMARK    4  A    between atoms: C_15  and  C_17
REMARK    5  A    between atoms: C_17  and  C_19
REMARK    6  A    between atoms: C_20  and  C_23
REMARK                            x       y       z     vdW  Elec       q    Type
REMARK                         _______ _______ _______ _____ _____    ______ ____
ROOT
ATOM      2  N   UNL     1      -1.506   0.706  24.551  0.00  0.00    -0.285 NA
ATOM      3  N   UNL     1      -4.876  -0.922  24.791  0.00  0.00    -0.347 N 
ATOM      4  N   UNL     1      -3.951  -2.551  23.571  0.00  0.00    -0.240 NA
ATOM      9  C   UNL     1      -0.774  -0.599  24.397  0.00  0.00    +0.152 C 
ATOM     10  C   UNL     1      -1.583  -1.642  23.548  0.00  0.00    +0.085 C 
ATOM     11  C   UNL     1      -2.822   0.538  25.232  0.00  0.00    +0.140 C 
ATOM     13  C   UNL     1      -3.556  -0.611  24.667  0.00  0.00    +0.053 A 
ATOM     14  C   UNL     1      -3.010  -1.625  23.923  0.00  0.00    +0.065 A 
ATOM     18  C   UNL     1      -5.066  -2.100  24.112  0.00  0.00    +0.197 A 
ATOM     30  H   UNL     1      -5.582  -0.394  25.287  0.00  0.00    +0.167 HD
ENDROOT
BRANCH   9  16
ATOM      1  O   UNL     1       0.652  -0.072  22.472  0.00  0.00    -0.336 OA
ATOM      5  N   UNL     1       1.788  -0.661  24.310  0.00  0.00    -0.189 NA
ATOM      6  N   UNL     1       2.008  -0.016  22.126  0.00  0.00    -0.054 NA
ATOM     16  C   UNL     1       0.611  -0.460  23.773  0.00  0.00    +0.245 A 
ATOM     20  C   UNL     1       2.614  -0.377  23.261  0.00  0.00    +0.222 A 
BRANCH  20  23
ATOM      7  N   UNL     1       4.538  -1.603  23.897  0.00  0.00    -0.249 NA
ATOM      8  N   UNL     1       6.198   0.511  23.097  0.00  0.00    -0.260 NA
ATOM     23  C   UNL     1       4.040  -0.462  23.382  0.00  0.00    +0.129 A 
ATOM     27  C   UNL     1       4.856   0.577  22.989  0.00  0.00    +0.142 A 
ATOM     28  C   UNL     1       5.880  -1.669  24.004  0.00  0.00    +0.131 A 
ATOM     29  C   UNL     1       6.695  -0.631  23.612  0.00  0.00    +0.130 A 
ENDBRANCH  20  23
ENDBRANCH   9  16
BRANCH   2  12
ATOM     12  C   UNL     1      -0.726   1.699  25.302  0.00  0.00    +0.086 C 
BRANCH  12  15
ATOM     15  C   UNL     1      -0.306   2.848  24.387  0.00  0.00    +0.020 C 
BRANCH  15  17
ATOM     17  C   UNL     1      -0.984   4.157  24.799  0.00  0.00    +0.036 C 
BRANCH  17  19
ATOM     19  C   UNL     1      -2.464   3.974  25.018  0.00  0.00    -0.047 A 
ATOM     21  C   UNL     1      -3.002   4.114  26.296  0.00  0.00    +0.003 A 
ATOM     22  C   UNL     1      -3.294   3.666  23.940  0.00  0.00    +0.003 A 
ATOM     24  C   UNL     1      -4.373   3.945  26.498  0.00  0.00    +0.000 A 
ATOM     25  C   UNL     1      -4.665   3.498  24.142  0.00  0.00    +0.000 A 
ATOM     26  C   UNL     1      -5.204   3.637  25.421  0.00  0.00    +0.000 A 
ENDBRANCH  17  19
ENDBRANCH  15  17
ENDBRANCH  12  15
ENDBRANCH   2  12
TORSDOF 6
ENDMDL
MODEL 7
REMARK VINA RESULT:       0.4      2.534      3.988
REMARK  Name = 26744730
REMARK  6 active torsions:
REMARK  status: ('A' for Active; 'I' for Inactive)
REMARK    1  A    between atoms: N_2  and  C_12
REMARK    2  A    between atoms: C_9  and  C_16
REMARK    3  A    between atoms: C_12  and  C_15
REMARK    4  A    between atoms: C_15  and  C_17
REMARK    5  A    between atoms: C_17  and  C_19
REMARK    6  A    between atoms: C_20  and  C_23
REMARK                            x       y       z     vdW  Elec       q    Type
REMARK                         _______ _______ _______ _____ _____    ______ ____
ROOT
ATOM      2  N   UNL     1      -1.809   2.830  24.096  0.00  0.00    -0.285 NA
ATOM      3  N   UNL     1      -5.443   2.735  25.014  0.00  0.00    -0.347 N 
ATOM      4  N   UNL     1      -5.292   0.550  24.567  0.00  0.00    -0.240 NA
ATOM      9  C   UNL     1      -1.568   1.398  24.487  0.00  0.00    +0.152 C 
ATOM     10  C   UNL     1      -2.791   0.472  24.151  0.00  0.00    +0.085 C 
ATOM     11  C   UNL     1      -2.987   3.417  24.797  0.00  0.00    +0.140 C 
ATOM     13  C   UNL     1      -4.130   2.482  24.762  0.00  0.00    +0.053 A 
ATOM     14  C   UNL     1      -4.061   1.139  24.498  0.00  0.00    +0.065 A 
ATOM     18  C   UNL     1      -6.105   1.539  24.883  0.00  0.00    +0.197 A 
ATOM     30  H   UNL     1      -5.857   3.626  25.255  0.00  0.00    +0.167 HD
ENDROOT
BRANCH   9  16
ATOM      1  O   UNL     1      -0.528   0.023  22.742  0.00  0.00    -0.336 OA
ATOM      5  N   UNL     1       0.928   0.879  24.213  0.00  0.00    -0.189 NA
ATOM      6  N   UNL     1       0.737  -0.425  22.343  0.00  0.00    -0.054 NA
ATOM     16  C   UNL     1      -0.327   0.783  23.850  0.00  0.00    +0.245 A 
ATOM     20  C   UNL     1       1.542   0.121  23.259  0.00  0.00    +0.222 A 
BRANCH  20  23
ATOM      7  N   UNL     1       3.420  -1.246  23.723  0.00  0.00    -0.249 NA
ATOM      8  N   UNL     1       5.153   0.741  22.764  0.00  0.00    -0.260 NA
ATOM     23  C   UNL     1       2.964  -0.070  23.250  0.00  0.00    +0.129 A 
ATOM     27  C   UNL     1       3.815   0.906  22.779  0.00  0.00    +0.142 A 
ATOM     28  C   UNL     1       4.758  -1.411  23.708  0.00  0.00    +0.131 A 
ATOM     29  C   UNL     1       5.609  -0.435  23.238  0.00  0.00    +0.130 A 
ENDBRANCH  20  23
ENDBRANCH   9  16
BRANCH   2  12
ATOM     12  C   UNL     1      -0.645   3.685  24.364  0.00  0.00    +0.086 C 
BRANCH  12  15
ATOM     15  C   UNL     1      -0.480   3.903  25.867  0.00  0.00    +0.020 C 
BRANCH  15  17
ATOM     17  C   UNL     1      -0.390   2.567  26.610  0.00  0.00    +0.036 C 
BRANCH  17  19
ATOM     19  C   UNL     1       0.610   2.622  27.737  0.00  0.00    -0.047 A 
ATOM     21  C   UNL     1       0.212   2.317  29.038  0.00  0.00    +0.003 A 
ATOM     22  C   UNL     1       1.933   2.978  27.477  0.00  0.00    +0.003 A 
ATOM     24  C   UNL     1       1.137   2.368  30.081  0.00  0.00    +0.000 A 
ATOM     25  C   UNL     1       2.859   3.028  28.519  0.00  0.00    +0.000 A 
ATOM     26  C   UNL     1       2.461   2.723  29.822  0.00  0.00    +0.000 A 
ENDBRANCH  17  19
ENDBRANCH  15  17
ENDBRANCH  12  15
ENDBRANCH   2  12
TORSDOF 6
ENDMDL
MODEL 8
REMARK VINA RESULT:       0.8      1.874      4.554
REMARK  Name = 26744730
REMARK  6 active torsions:
REMARK  status: ('A' for Active; 'I' for Inactive)
REMARK    1  A    between atoms: N_2  and  C_12
REMARK    2  A    between atoms: C_9  and  C_16
REMARK    3  A    between atoms: C_12  and  C_15
REMARK    4  A    between atoms: C_15  and  C_17
REMARK    5  A    between atoms: C_17  and  C_19
REMARK    6  A    between atoms: C_20  and  C_23
REMARK                            x       y       z     vdW  Elec       q    Type
REMARK                         _______ _______ _______ _____ _____    ______ ____
ROOT
ATOM      2  N   UNL     1      -2.163   0.438  23.225  0.00  0.00    -0.285 NA
ATOM      3  N   UNL     1      -4.867  -2.054  23.960  0.00  0.00    -0.347 N 
ATOM      4  N   UNL     1      -3.182  -3.417  24.507  0.00  0.00    -0.240 NA
ATOM      9  C   UNL     1      -1.197  -0.168  24.204  0.00  0.00    +0.152 C 
ATOM     10  C   UNL     1      -1.301  -1.734  24.256  0.00  0.00    +0.085 C 
ATOM     11  C   UNL     1      -3.582   0.121  23.560  0.00  0.00    +0.140 C 
ATOM     13  C   UNL     1      -3.729  -1.310  23.890  0.00  0.00    +0.053 A 
ATOM     14  C   UNL     1      -2.713  -2.163  24.235  0.00  0.00    +0.065 A 
ATOM     18  C   UNL     1      -4.485  -3.319  24.335  0.00  0.00    +0.197 A 
ATOM     30  H   UNL     1      -5.811  -1.741  23.778  0.00  0.00    +0.167 HD
ENDROOT
BRANCH   9  16
ATOM      1  O   UNL     1       0.521   1.504  23.683  0.00  0.00    -0.336 OA
ATOM      5  N   UNL     1       1.319  -0.575  23.924  0.00  0.00    -0.189 NA
ATOM      6  N   UNL     1       1.903   1.591  23.476  0.00  0.00    -0.054 NA
ATOM     16  C   UNL     1       0.260   0.195  23.940  0.00  0.00    +0.245 A 
ATOM     20  C   UNL     1       2.302   0.326  23.634  0.00  0.00    +0.222 A 
BRANCH  20  23
ATOM      7  N   UNL     1       3.969  -1.344  23.840  0.00  0.00    -0.249 NA
ATOM      8  N   UNL     1       5.934   0.452  22.960  0.00  0.00    -0.260 NA
ATOM     23  C   UNL     1       3.675  -0.071  23.511  0.00  0.00    +0.129 A 
ATOM     27  C   UNL     1       4.641   0.811  23.079  0.00  0.00    +0.142 A 
ATOM     28  C   UNL     1       5.262  -1.704  23.721  0.00  0.00    +0.131 A 
ATOM     29  C   UNL     1       6.228  -0.821  23.289  0.00  0.00    +0.130 A 
ENDBRANCH  20  23
ENDBRANCH   9  16
BRANCH   2  12
ATOM     12  C   UNL     1      -2.029   1.899  23.139  0.00  0.00    +0.086 C 
BRANCH  12  15
ATOM     15  C   UNL     1      -2.885   2.445  21.998  0.00  0.00    +0.020 C 
BRANCH  15  17
ATOM     17  C   UNL     1      -3.847   3.526  22.499  0.00  0.00    +0.036 C 
BRANCH  17  19
ATOM     19  C   UNL     1      -3.833   3.632  24.002  0.00  0.00    -0.047 A 
ATOM     21  C   UNL     1      -2.743   4.209  24.651  0.00  0.00    +0.003 A 
ATOM     22  C   UNL     1      -4.912   3.151  24.745  0.00  0.00    +0.003 A 
ATOM     24  C   UNL     1      -2.730   4.307  26.043  0.00  0.00    +0.000 A 
ATOM     25  C   UNL     1      -4.900   3.250  26.136  0.00  0.00    +0.000 A 
ATOM     26  C   UNL     1      -3.809   3.828  26.785  0.00  0.00    +0.000 A 
ENDBRANCH  17  19
ENDBRANCH  15  17
ENDBRANCH  12  15
ENDBRANCH   2  12
TORSDOF 6
ENDMDL
