MODEL 1
REMARK VINA RESULT:      -4.6      0.000      0.000
REMARK  Name = 44716297
REMARK  6 active torsions:
REMARK  status: ('A' for Active; 'I' for Inactive)
REMARK    1  A    between atoms: S_2  and  C_22
REMARK    2  A    between atoms: S_2  and  C_25
REMARK    3  A    between atoms: N_5  and  C_17
REMARK    4  A    between atoms: C_11  and  C_17
REMARK    5  A    between atoms: C_12  and  C_18
REMARK    6  A    between atoms: C_21  and  C_22
REMARK                            x       y       z     vdW  Elec       q    Type
REMARK                         _______ _______ _______ _____ _____    ______ ____
ROOT
ATOM      4  N   UNL     1      14.207  -7.553  30.296  0.00  0.00    -0.297 NA
ATOM     10  C   UNL     1      13.617  -7.198  32.806  0.00  0.00    +0.005 C 
ATOM     11  C   UNL     1      15.249  -8.170  31.162  0.00  0.00    +0.078 C 
ATOM     12  C   UNL     1      12.610  -8.144  32.122  0.00  0.00    +0.092 C 
ATOM     13  C   UNL     1      15.013  -7.830  32.652  0.00  0.00    +0.025 C 
ATOM     14  C   UNL     1      13.658  -5.860  32.049  0.00  0.00    +0.020 C 
ATOM     15  C   UNL     1      12.903  -8.193  30.610  0.00  0.00    +0.097 C 
ATOM     16  C   UNL     1      14.074  -6.109  30.591  0.00  0.00    +0.085 C 
ENDROOT
BRANCH  12  18
ATOM      1  S   UNL     1       8.108 -10.251  31.975  0.00  0.00    -0.061 S 
ATOM      3  O   UNL     1      10.932  -6.587  32.753  0.00  0.00    -0.275 OA
ATOM      6  N   UNL     1      10.314  -8.782  32.173  0.00  0.00    -0.264 N 
ATOM      9  N   UNL     1       8.145  -7.771  32.703  0.00  0.00    -0.233 NA
ATOM     18  C   UNL     1      11.193  -7.728  32.390  0.00  0.00    +0.223 C 
ATOM     20  C   UNL     1       8.907  -8.773  32.326  0.00  0.00    +0.164 A 
ATOM     23  C   UNL     1       6.612  -9.504  32.355  0.00  0.00    +0.068 A 
ATOM     24  C   UNL     1       6.829  -8.191  32.719  0.00  0.00    +0.120 A 
ATOM     31  H   UNL     1      10.687  -9.681  31.881  0.00  0.00    +0.157 HD
ENDBRANCH  12  18
BRANCH  11  17
ATOM     17  C   UNL     1      16.665  -7.798  30.713  0.00  0.00    +0.164 C 
BRANCH  17   5
ATOM      5  N   UNL     1      16.706  -7.446  29.253  0.00  0.00    -0.250 N 
ATOM      7  N   UNL     1      16.515  -8.387  28.315  0.00  0.00    -0.065 NA
ATOM      8  N   UNL     1      16.611  -7.790  27.132  0.00  0.00    -0.134 NA
ATOM     19  C   UNL     1      16.929  -6.223  28.699  0.00  0.00    +0.134 A 
ATOM     21  C   UNL     1      16.864  -6.464  27.349  0.00  0.00    +0.093 A 
BRANCH  21  22
ATOM     22  C   UNL     1      17.028  -5.526  26.232  0.00  0.00    +0.133 C 
BRANCH  22   2
ATOM      2  S   UNL     1      17.396  -3.819  26.774  0.00  0.00    -0.119 S 
BRANCH   2  25
ATOM     25  C   UNL     1      17.213  -2.924  25.238  0.00  0.00    +0.008 A 
ATOM     26  C   UNL     1      16.921  -3.612  24.061  0.00  0.00    +0.015 A 
ATOM     27  C   UNL     1      17.362  -1.538  25.217  0.00  0.00    +0.015 A 
ATOM     28  C   UNL     1      16.779  -2.914  22.861  0.00  0.00    +0.001 A 
ATOM     29  C   UNL     1      17.219  -0.839  24.019  0.00  0.00    +0.001 A 
ATOM     30  C   UNL     1      16.928  -1.526  22.841  0.00  0.00    +0.000 A 
ENDBRANCH   2  25
ENDBRANCH  22   2
ENDBRANCH  21  22
ENDBRANCH  17   5
ENDBRANCH  11  17
TORSDOF 6
ENDMDL
MODEL 2
REMARK VINA RESULT:      -2.3      2.116      2.872
REMARK  Name = 44716297
REMARK  6 active torsions:
REMARK  status: ('A' for Active; 'I' for Inactive)
REMARK    1  A    between atoms: S_2  and  C_22
REMARK    2  A    between atoms: S_2  and  C_25
REMARK    3  A    between atoms: N_5  and  C_17
REMARK    4  A    between atoms: C_11  and  C_17
REMARK    5  A    between atoms: C_12  and  C_18
REMARK    6  A    between atoms: C_21  and  C_22
REMARK                            x       y       z     vdW  Elec       q    Type
REMARK                         _______ _______ _______ _____ _____    ______ ____
ROOT
ATOM      4  N   UNL     1      13.985  -8.466  30.356  0.00  0.00    -0.297 NA
ATOM     10  C   UNL     1      13.027  -9.230  32.653  0.00  0.00    +0.005 C 
ATOM     11  C   UNL     1      14.412  -9.861  30.653  0.00  0.00    +0.078 C 
ATOM     12  C   UNL     1      11.905  -9.036  31.614  0.00  0.00    +0.092 C 
ATOM     13  C   UNL     1      13.999 -10.281  32.083  0.00  0.00    +0.025 C 
ATOM     14  C   UNL     1      13.829  -7.924  32.790  0.00  0.00    +0.020 C 
ATOM     15  C   UNL     1      12.499  -8.430  30.328  0.00  0.00    +0.097 C 
ATOM     16  C   UNL     1      14.430  -7.547  31.427  0.00  0.00    +0.085 C 
ENDROOT
BRANCH  12  18
ATOM      1  S   UNL     1       6.935  -8.997  31.446  0.00  0.00    -0.061 S 
ATOM      3  O   UNL     1      11.037  -7.201  32.845  0.00  0.00    -0.275 OA
ATOM      6  N   UNL     1       9.554  -8.676  31.768  0.00  0.00    -0.264 N 
ATOM      9  N   UNL     1       8.010  -7.085  32.812  0.00  0.00    -0.233 NA
ATOM     18  C   UNL     1      10.794  -8.185  32.155  0.00  0.00    +0.223 C 
ATOM     20  C   UNL     1       8.281  -8.146  32.087  0.00  0.00    +0.164 A 
ATOM     23  C   UNL     1       5.891  -7.861  32.194  0.00  0.00    +0.068 A 
ATOM     24  C   UNL     1       6.640  -6.922  32.873  0.00  0.00    +0.120 A 
ATOM     31  H   UNL     1       9.514  -9.517  31.199  0.00  0.00    +0.157 HD
ENDBRANCH  12  18
BRANCH  11  17
ATOM     17  C   UNL     1      15.909 -10.069  30.412  0.00  0.00    +0.164 C 
BRANCH  17   5
ATOM      5  N   UNL     1      16.226 -10.135  28.944  0.00  0.00    -0.250 N 
ATOM      7  N   UNL     1      17.319 -10.781  28.507  0.00  0.00    -0.065 NA
ATOM      8  N   UNL     1      17.341 -10.669  27.184  0.00  0.00    -0.134 NA
ATOM     19  C   UNL     1      15.520  -9.592  27.915  0.00  0.00    +0.134 A 
ATOM     21  C   UNL     1      16.245  -9.944  26.805  0.00  0.00    +0.093 A 
BRANCH  21  22
ATOM     22  C   UNL     1      15.982  -9.641  25.392  0.00  0.00    +0.133 C 
BRANCH  22   2
ATOM      2  S   UNL     1      17.405  -8.865  24.547  0.00  0.00    -0.119 S 
BRANCH   2  25
ATOM     25  C   UNL     1      17.116  -7.137  24.905  0.00  0.00    +0.008 A 
ATOM     26  C   UNL     1      16.619  -6.757  26.151  0.00  0.00    +0.015 A 
ATOM     27  C   UNL     1      17.387  -6.171  23.937  0.00  0.00    +0.015 A 
ATOM     28  C   UNL     1      16.392  -5.409  26.430  0.00  0.00    +0.001 A 
ATOM     29  C   UNL     1      17.162  -4.822  24.216  0.00  0.00    +0.001 A 
ATOM     30  C   UNL     1      16.665  -4.442  25.462  0.00  0.00    +0.000 A 
ENDBRANCH   2  25
ENDBRANCH  22   2
ENDBRANCH  21  22
ENDBRANCH  17   5
ENDBRANCH  11  17
TORSDOF 6
ENDMDL
MODEL 3
REMARK VINA RESULT:      -1.0     15.445     19.223
REMARK  Name = 44716297
REMARK  6 active torsions:
REMARK  status: ('A' for Active; 'I' for Inactive)
REMARK    1  A    between atoms: S_2  and  C_22
REMARK    2  A    between atoms: S_2  and  C_25
REMARK    3  A    between atoms: N_5  and  C_17
REMARK    4  A    between atoms: C_11  and  C_17
REMARK    5  A    between atoms: C_12  and  C_18
REMARK    6  A    between atoms: C_21  and  C_22
REMARK                            x       y       z     vdW  Elec       q    Type
REMARK                         _______ _______ _______ _____ _____    ______ ____
ROOT
ATOM      4  N   UNL     1      -2.988  -1.836  24.727  0.00  0.00    -0.297 NA
ATOM     10  C   UNL     1      -1.374   0.186  24.440  0.00  0.00    +0.005 C 
ATOM     11  C   UNL     1      -3.639  -0.768  23.919  0.00  0.00    +0.078 C 
ATOM     12  C   UNL     1      -0.855  -1.057  23.690  0.00  0.00    +0.092 C 
ATOM     13  C   UNL     1      -2.769   0.510  23.874  0.00  0.00    +0.025 C 
ATOM     14  C   UNL     1      -1.575  -0.160  25.926  0.00  0.00    +0.020 C 
ATOM     15  C   UNL     1      -1.752  -2.265  24.022  0.00  0.00    +0.097 C 
ATOM     16  C   UNL     1      -2.584  -1.312  26.051  0.00  0.00    +0.085 C 
ENDROOT
BRANCH  12  18
ATOM      1  S   UNL     1       3.595   0.748  22.399  0.00  0.00    -0.061 S 
ATOM      3  O   UNL     1       0.883  -2.228  24.806  0.00  0.00    -0.275 OA
ATOM      6  N   UNL     1       1.429  -0.481  23.328  0.00  0.00    -0.264 N 
ATOM      9  N   UNL     1       3.642  -1.203  24.094  0.00  0.00    -0.233 NA
ATOM     18  C   UNL     1       0.582  -1.339  24.018  0.00  0.00    +0.223 C 
ATOM     20  C   UNL     1       2.843  -0.440  23.382  0.00  0.00    +0.164 A 
ATOM     23  C   UNL     1       5.123   0.212  22.961  0.00  0.00    +0.068 A 
ATOM     24  C   UNL     1       4.950  -0.828  23.852  0.00  0.00    +0.120 A 
ATOM     31  H   UNL     1       1.025   0.219  22.712  0.00  0.00    +0.157 HD
ENDBRANCH  12  18
BRANCH  11  17
ATOM     17  C   UNL     1      -5.062  -0.469  24.399  0.00  0.00    +0.164 C 
BRANCH  17   5
ATOM      5  N   UNL     1      -5.177   0.926  24.944  0.00  0.00    -0.250 N 
ATOM      7  N   UNL     1      -5.932   1.180  26.025  0.00  0.00    -0.065 NA
ATOM      8  N   UNL     1      -5.848   2.483  26.269  0.00  0.00    -0.134 NA
ATOM     19  C   UNL     1      -4.589   2.057  24.466  0.00  0.00    +0.134 A 
ATOM     21  C   UNL     1      -5.028   3.035  25.323  0.00  0.00    +0.093 A 
BRANCH  21  22
ATOM     22  C   UNL     1      -4.732   4.474  25.316  0.00  0.00    +0.133 C 
BRANCH  22   2
ATOM      2  S   UNL     1      -3.450   4.949  26.529  0.00  0.00    -0.119 S 
BRANCH   2  25
ATOM     25  C   UNL     1      -1.994   4.218  25.794  0.00  0.00    +0.008 A 
ATOM     26  C   UNL     1      -1.604   4.584  24.506  0.00  0.00    +0.015 A 
ATOM     27  C   UNL     1      -1.250   3.280  26.509  0.00  0.00    +0.015 A 
ATOM     28  C   UNL     1      -0.468   4.013  23.932  0.00  0.00    +0.001 A 
ATOM     29  C   UNL     1      -0.113   2.708  25.935  0.00  0.00    +0.001 A 
ATOM     30  C   UNL     1       0.277   3.074  24.648  0.00  0.00    +0.000 A 
ENDBRANCH   2  25
ENDBRANCH  22   2
ENDBRANCH  21  22
ENDBRANCH  17   5
ENDBRANCH  11  17
TORSDOF 6
ENDMDL
