MODEL 1
REMARK VINA RESULT:      -4.9      0.000      0.000
REMARK  Name = 51138117
REMARK  9 active torsions:
REMARK  status: ('A' for Active; 'I' for Inactive)
REMARK    1  A    between atoms: N_3  and  C_8
REMARK    2  A    between atoms: N_4  and  C_25
REMARK    3  A    between atoms: C_5  and  C_8
REMARK    4  A    between atoms: C_9  and  C_15
REMARK    5  A    between atoms: C_10  and  C_16
REMARK    6  A    between atoms: C_15  and  C_18
REMARK    7  A    between atoms: C_18  and  C_23
REMARK    8  A    between atoms: C_18  and  C_24
REMARK    9  A    between atoms: C_25  and  C_26
REMARK                            x       y       z     vdW  Elec       q    Type
REMARK                         _______ _______ _______ _____ _____    ______ ____
ROOT
ATOM      2  N   UNL     1       0.015  -0.674  23.848  0.00  0.00    -0.299 NA
ATOM      4  N   UNL     1      -2.170   3.555  25.537  0.00  0.00    -0.343 N 
ATOM      9  C   UNL     1      -1.428  -0.858  23.635  0.00  0.00    +0.085 C 
ATOM     10  C   UNL     1       0.575   0.514  23.220  0.00  0.00    +0.145 C 
ATOM     11  C   UNL     1       0.680   1.675  24.207  0.00  0.00    +0.065 C 
ATOM     12  C   UNL     1      -2.336   0.219  24.237  0.00  0.00    -0.021 A 
ATOM     13  C   UNL     1      -1.906   1.507  24.667  0.00  0.00    +0.008 A 
ATOM     14  C   UNL     1      -0.638   2.187  24.681  0.00  0.00    -0.020 A 
ATOM     17  C   UNL     1      -2.843   2.408  25.187  0.00  0.00    +0.050 A 
ATOM     19  C   UNL     1      -0.847   3.435  25.231  0.00  0.00    +0.090 A 
ATOM     20  C   UNL     1      -3.729  -0.033  24.310  0.00  0.00    +0.006 A 
ATOM     21  C   UNL     1      -4.205   2.124  25.296  0.00  0.00    +0.026 A 
ATOM     22  C   UNL     1      -4.636   0.886  24.834  0.00  0.00    +0.002 A 
ATOM     28  H   UNL     1       0.243  -0.709  24.841  0.00  0.00    +0.123 HD
ENDROOT
BRANCH  10  16
ATOM      1  O   UNL     1       2.186  -0.993  22.308  0.00  0.00    -0.274 OA
ATOM      3  N   UNL     1       2.882   1.117  23.003  0.00  0.00    -0.314 N 
ATOM     16  C   UNL     1       1.952   0.115  22.783  0.00  0.00    +0.230 C 
ATOM     29  H   UNL     1       2.575   2.009  23.379  0.00  0.00    +0.149 HD
BRANCH   3   8
ATOM      8  C   UNL     1       4.286   0.975  22.690  0.00  0.00    +0.107 C 
BRANCH   8   5
ATOM      5  C   UNL     1       5.046   0.445  23.859  0.00  0.00    +0.006 C 
ATOM      6  C   UNL     1       5.136  -1.040  24.061  0.00  0.00    +0.005 C 
ATOM      7  C   UNL     1       6.346  -0.267  23.625  0.00  0.00    +0.005 C 
ENDBRANCH   8   5
ENDBRANCH   3   8
ENDBRANCH  10  16
BRANCH   9  15
ATOM     15  C   UNL     1      -1.727  -2.262  24.193  0.00  0.00    +0.026 C 
BRANCH  15  18
ATOM     18  C   UNL     1      -3.169  -2.416  24.682  0.00  0.00    -0.015 C 
ATOM     23  C   UNL     1      -3.979  -3.397  23.832  0.00  0.00    +0.007 C 
ATOM     24  C   UNL     1      -3.161  -2.881  26.141  0.00  0.00    +0.007 C 
ENDBRANCH  15  18
ENDBRANCH   9  15
BRANCH   4  25
ATOM     25  C   UNL     1      -2.765   4.735  26.124  0.00  0.00    +0.148 C 
BRANCH  25  26
ATOM     26  C   UNL     1      -2.371   5.993  25.407  0.00  0.00    -0.013 C 
ATOM     27  C   UNL     1      -1.256   6.120  24.679  0.00  0.00    +0.005 C 
ENDBRANCH  25  26
ENDBRANCH   4  25
TORSDOF 7
ENDMDL
MODEL 2
REMARK VINA RESULT:      -3.8      0.889      1.414
REMARK  Name = 51138117
REMARK  9 active torsions:
REMARK  status: ('A' for Active; 'I' for Inactive)
REMARK    1  A    between atoms: N_3  and  C_8
REMARK    2  A    between atoms: N_4  and  C_25
REMARK    3  A    between atoms: C_5  and  C_8
REMARK    4  A    between atoms: C_9  and  C_15
REMARK    5  A    between atoms: C_10  and  C_16
REMARK    6  A    between atoms: C_15  and  C_18
REMARK    7  A    between atoms: C_18  and  C_23
REMARK    8  A    between atoms: C_18  and  C_24
REMARK    9  A    between atoms: C_25  and  C_26
REMARK                            x       y       z     vdW  Elec       q    Type
REMARK                         _______ _______ _______ _____ _____    ______ ____
ROOT
ATOM      2  N   UNL     1       0.062  -0.711  23.691  0.00  0.00    -0.299 NA
ATOM      4  N   UNL     1      -2.454   3.348  25.335  0.00  0.00    -0.343 N 
ATOM      9  C   UNL     1      -1.357  -0.987  23.425  0.00  0.00    +0.085 C 
ATOM     10  C   UNL     1       0.565   0.517  23.093  0.00  0.00    +0.145 C 
ATOM     11  C   UNL     1       0.559   1.672  24.093  0.00  0.00    +0.065 C 
ATOM     12  C   UNL     1      -2.354   0.022  24.003  0.00  0.00    -0.021 A 
ATOM     13  C   UNL     1      -2.026   1.331  24.458  0.00  0.00    +0.008 A 
ATOM     14  C   UNL     1      -0.807   2.092  24.524  0.00  0.00    -0.020 A 
ATOM     17  C   UNL     1      -3.038   2.163  24.952  0.00  0.00    +0.050 A 
ATOM     19  C   UNL     1      -1.116   3.318  25.076  0.00  0.00    +0.090 A 
ATOM     20  C   UNL     1      -3.730  -0.321  24.024  0.00  0.00    +0.006 A 
ATOM     21  C   UNL     1      -4.381   1.790  25.010  0.00  0.00    +0.026 A 
ATOM     22  C   UNL     1      -4.713   0.531  24.522  0.00  0.00    +0.002 A 
ATOM     28  H   UNL     1       0.257  -0.741  24.692  0.00  0.00    +0.123 HD
ENDROOT
BRANCH  10  16
ATOM      1  O   UNL     1       2.281  -0.816  22.107  0.00  0.00    -0.274 OA
ATOM      3  N   UNL     1       2.860   1.202  23.112  0.00  0.00    -0.314 N 
ATOM     16  C   UNL     1       1.980   0.214  22.704  0.00  0.00    +0.230 C 
ATOM     29  H   UNL     1       2.499   2.030  23.578  0.00  0.00    +0.149 HD
BRANCH   3   8
ATOM      8  C   UNL     1       4.284   1.138  22.879  0.00  0.00    +0.107 C 
BRANCH   8   5
ATOM      5  C   UNL     1       4.978   0.421  23.988  0.00  0.00    +0.006 C 
ATOM      6  C   UNL     1       5.073  -1.077  23.945  0.00  0.00    +0.005 C 
ATOM      7  C   UNL     1       6.298  -0.240  23.720  0.00  0.00    +0.005 C 
ENDBRANCH   8   5
ENDBRANCH   3   8
ENDBRANCH  10  16
BRANCH   9  15
ATOM     15  C   UNL     1      -1.582  -2.413  23.960  0.00  0.00    +0.026 C 
BRANCH  15  18
ATOM     18  C   UNL     1      -1.695  -2.468  25.486  0.00  0.00    -0.015 C 
ATOM     23  C   UNL     1      -1.105  -1.232  26.167  0.00  0.00    +0.007 C 
ATOM     24  C   UNL     1      -3.168  -2.619  25.878  0.00  0.00    +0.007 C 
ENDBRANCH  15  18
ENDBRANCH   9  15
BRANCH   4  25
ATOM     25  C   UNL     1      -3.146   4.481  25.910  0.00  0.00    +0.148 C 
BRANCH  25  26
ATOM     26  C   UNL     1      -4.584   4.181  26.212  0.00  0.00    -0.013 C 
ATOM     27  C   UNL     1      -5.613   4.672  25.511  0.00  0.00    +0.005 C 
ENDBRANCH  25  26
ENDBRANCH   4  25
TORSDOF 7
ENDMDL
MODEL 3
REMARK VINA RESULT:      -2.8      2.243      6.682
REMARK  Name = 51138117
REMARK  9 active torsions:
REMARK  status: ('A' for Active; 'I' for Inactive)
REMARK    1  A    between atoms: N_3  and  C_8
REMARK    2  A    between atoms: N_4  and  C_25
REMARK    3  A    between atoms: C_5  and  C_8
REMARK    4  A    between atoms: C_9  and  C_15
REMARK    5  A    between atoms: C_10  and  C_16
REMARK    6  A    between atoms: C_15  and  C_18
REMARK    7  A    between atoms: C_18  and  C_23
REMARK    8  A    between atoms: C_18  and  C_24
REMARK    9  A    between atoms: C_25  and  C_26
REMARK                            x       y       z     vdW  Elec       q    Type
REMARK                         _______ _______ _______ _____ _____    ______ ____
ROOT
ATOM      2  N   UNL     1      -2.544   1.151  25.235  0.00  0.00    -0.299 NA
ATOM      4  N   UNL     1       1.955   0.350  23.086  0.00  0.00    -0.343 N 
ATOM      9  C   UNL     1      -2.016  -0.070  25.858  0.00  0.00    +0.085 C 
ATOM     10  C   UNL     1      -1.675   2.314  25.345  0.00  0.00    +0.145 C 
ATOM     11  C   UNL     1      -0.832   2.507  24.086  0.00  0.00    +0.065 C 
ATOM     12  C   UNL     1      -0.731  -0.634  25.245  0.00  0.00    -0.021 A 
ATOM     13  C   UNL     1       0.148   0.082  24.382  0.00  0.00    +0.008 A 
ATOM     14  C   UNL     1       0.161   1.419  23.851  0.00  0.00    -0.020 A 
ATOM     17  C   UNL     1       1.302  -0.547  23.899  0.00  0.00    +0.050 A 
ATOM     19  C   UNL     1       1.282   1.534  23.055  0.00  0.00    +0.090 A 
ATOM     20  C   UNL     1      -0.323  -1.942  25.609  0.00  0.00    +0.006 A 
ATOM     21  C   UNL     1       1.663  -1.853  24.231  0.00  0.00    +0.026 A 
ATOM     22  C   UNL     1       0.833  -2.539  25.111  0.00  0.00    +0.002 A 
ATOM     28  H   UNL     1      -2.809   0.979  24.265  0.00  0.00    +0.123 HD
ENDROOT
BRANCH  10  16
ATOM      1  O   UNL     1      -2.188   4.606  25.771  0.00  0.00    -0.274 OA
ATOM      3  N   UNL     1      -3.928   3.128  25.318  0.00  0.00    -0.314 N 
ATOM     16  C   UNL     1      -2.601   3.483  25.498  0.00  0.00    +0.230 C 
ATOM     29  H   UNL     1      -4.158   2.171  25.066  0.00  0.00    +0.149 HD
BRANCH   3   8
ATOM      8  C   UNL     1      -5.021   4.066  25.434  0.00  0.00    +0.107 C 
BRANCH   8   5
ATOM      5  C   UNL     1      -6.309   3.360  25.687  0.00  0.00    +0.006 C 
ATOM      6  C   UNL     1      -6.609   2.092  24.940  0.00  0.00    +0.005 C 
ATOM      7  C   UNL     1      -6.295   2.043  26.407  0.00  0.00    +0.005 C 
ENDBRANCH   8   5
ENDBRANCH   3   8
ENDBRANCH  10  16
BRANCH   9  15
ATOM     15  C   UNL     1      -3.185  -1.071  25.804  0.00  0.00    +0.026 C 
BRANCH  15  18
ATOM     18  C   UNL     1      -3.431  -1.627  24.399  0.00  0.00    -0.015 C 
ATOM     23  C   UNL     1      -3.618  -3.145  24.390  0.00  0.00    +0.007 C 
ATOM     24  C   UNL     1      -4.667  -0.952  23.798  0.00  0.00    +0.007 C 
ENDBRANCH  15  18
ENDBRANCH   9  15
BRANCH   4  25
ATOM     25  C   UNL     1       3.190   0.097  22.375  0.00  0.00    +0.148 C 
BRANCH  25  26
ATOM     26  C   UNL     1       4.383   0.677  23.074  0.00  0.00    -0.013 C 
ATOM     27  C   UNL     1       5.346  -0.057  23.643  0.00  0.00    +0.005 C 
ENDBRANCH  25  26
ENDBRANCH   4  25
TORSDOF 7
ENDMDL
