MODEL 1
REMARK VINA RESULT:       2.3      0.000      0.000
REMARK  Name = 45783284
REMARK  4 active torsions:
REMARK  status: ('A' for Active; 'I' for Inactive)
REMARK    1  A    between atoms: N_3  and  C_12
REMARK    2  A    between atoms: C_8  and  C_13
REMARK    3  A    between atoms: C_12  and  C_14
REMARK    4  A    between atoms: C_15  and  C_20
REMARK                            x       y       z     vdW  Elec       q    Type
REMARK                         _______ _______ _______ _____ _____    ______ ____
ROOT
ATOM      1  O   UNL     1      -1.378   2.433  25.490  0.00  0.00    -0.336 OA
ATOM      4  N   UNL     1      -1.683   1.676  23.404  0.00  0.00    -0.190 NA
ATOM      6  N   UNL     1      -0.171   1.830  25.114  0.00  0.00    -0.056 NA
ATOM     13  C   UNL     1      -2.213   2.299  24.426  0.00  0.00    +0.245 A 
ATOM     15  C   UNL     1      -0.431   1.407  23.873  0.00  0.00    +0.202 A 
ENDROOT
BRANCH  15  20
ATOM      2  O   UNL     1       6.753  -0.547  23.909  0.00  0.00    -0.377 OA
ATOM      5  N   UNL     1       4.082  -0.135  23.134  0.00  0.00    -0.311 N 
ATOM      7  N   UNL     1       2.425  -0.644  21.522  0.00  0.00    -0.240 NA
ATOM     18  C   UNL     1       5.145  -0.214  22.123  0.00  0.00    +0.134 C 
ATOM     19  C   UNL     1       4.391  -0.778  24.416  0.00  0.00    +0.134 C 
ATOM     20  C   UNL     1       0.539   0.713  23.076  0.00  0.00    +0.027 A 
ATOM     21  C   UNL     1       2.756  -0.057  22.695  0.00  0.00    +0.122 A 
ATOM     22  C   UNL     1       6.472   0.217  22.736  0.00  0.00    +0.178 C 
ATOM     23  C   UNL     1       5.760  -0.317  24.907  0.00  0.00    +0.178 C 
ATOM     24  C   UNL     1       1.860   0.626  23.500  0.00  0.00    +0.055 A 
ATOM     27  C   UNL     1       0.160   0.122  21.875  0.00  0.00    +0.031 A 
ATOM     29  C   UNL     1       1.132  -0.538  21.142  0.00  0.00    +0.113 A 
ENDBRANCH  15  20
BRANCH  13   8
ATOM      3  N   UNL     1      -4.490   2.021  25.391  0.00  0.00    -0.287 NA
ATOM      8  C   UNL     1      -3.603   2.880  24.582  0.00  0.00    +0.146 C 
ATOM      9  C   UNL     1      -3.601   4.237  25.310  0.00  0.00    +0.030 C 
ATOM     10  C   UNL     1      -4.562   4.062  26.478  0.00  0.00    +0.017 C 
ATOM     11  C   UNL     1      -5.448   2.914  26.042  0.00  0.00    +0.085 C 
BRANCH   3  12
ATOM     12  C   UNL     1      -5.150   0.982  24.611  0.00  0.00    +0.120 C 
BRANCH  12  14
ATOM     14  C   UNL     1      -4.443  -0.342  24.728  0.00  0.00    -0.033 A 
ATOM     16  C   UNL     1      -4.607  -1.311  23.737  0.00  0.00    +0.005 A 
ATOM     17  C   UNL     1      -3.623  -0.600  25.826  0.00  0.00    +0.005 A 
ATOM     25  C   UNL     1      -3.951  -2.538  23.845  0.00  0.00    +0.000 A 
ATOM     26  C   UNL     1      -2.968  -1.827  25.935  0.00  0.00    +0.000 A 
ATOM     28  C   UNL     1      -3.133  -2.795  24.944  0.00  0.00    +0.000 A 
ENDBRANCH  12  14
ENDBRANCH   3  12
ENDBRANCH  13   8
TORSDOF 4
ENDMDL
MODEL 2
REMARK VINA RESULT:       2.4      1.600      3.523
REMARK  Name = 45783284
REMARK  4 active torsions:
REMARK  status: ('A' for Active; 'I' for Inactive)
REMARK    1  A    between atoms: N_3  and  C_12
REMARK    2  A    between atoms: C_8  and  C_13
REMARK    3  A    between atoms: C_12  and  C_14
REMARK    4  A    between atoms: C_15  and  C_20
REMARK                            x       y       z     vdW  Elec       q    Type
REMARK                         _______ _______ _______ _____ _____    ______ ____
ROOT
ATOM      1  O   UNL     1      -2.263  -0.745  25.925  0.00  0.00    -0.336 OA
ATOM      4  N   UNL     1      -2.117   0.569  24.117  0.00  0.00    -0.190 NA
ATOM      6  N   UNL     1      -1.069  -1.098  25.283  0.00  0.00    -0.056 NA
ATOM     13  C   UNL     1      -2.817   0.242  25.173  0.00  0.00    +0.245 A 
ATOM     15  C   UNL     1      -1.054  -0.280  24.226  0.00  0.00    +0.202 A 
ENDROOT
BRANCH  15  20
ATOM      2  O   UNL     1       6.377  -0.418  23.802  0.00  0.00    -0.377 OA
ATOM      5  N   UNL     1       3.648  -0.274  23.142  0.00  0.00    -0.311 N 
ATOM      7  N   UNL     1       2.072  -0.301  21.377  0.00  0.00    -0.240 NA
ATOM     18  C   UNL     1       4.655   0.367  22.284  0.00  0.00    +0.134 C 
ATOM     19  C   UNL     1       4.150  -1.364  23.986  0.00  0.00    +0.134 C 
ATOM     20  C   UNL     1       0.006  -0.286  23.260  0.00  0.00    +0.027 A 
ATOM     21  C   UNL     1       2.319  -0.285  22.706  0.00  0.00    +0.122 A 
ATOM     22  C   UNL     1       5.881   0.730  23.113  0.00  0.00    +0.178 C 
ATOM     23  C   UNL     1       5.404  -0.908  24.724  0.00  0.00    +0.178 C 
ATOM     24  C   UNL     1       1.332  -0.277  23.678  0.00  0.00    +0.055 A 
ATOM     27  C   UNL     1      -0.288  -0.303  21.901  0.00  0.00    +0.031 A 
ATOM     29  C   UNL     1       0.771  -0.309  21.008  0.00  0.00    +0.113 A 
ENDBRANCH  15  20
BRANCH  13   8
ATOM      3  N   UNL     1      -4.307   2.230  25.320  0.00  0.00    -0.287 NA
ATOM      8  C   UNL     1      -4.135   0.804  25.663  0.00  0.00    +0.146 C 
ATOM      9  C   UNL     1      -5.352   0.101  25.035  0.00  0.00    +0.030 C 
ATOM     10  C   UNL     1      -6.181   1.217  24.416  0.00  0.00    +0.017 C 
ATOM     11  C   UNL     1      -5.746   2.450  25.181  0.00  0.00    +0.085 C 
BRANCH   3  12
ATOM     12  C   UNL     1      -3.706   3.131  26.294  0.00  0.00    +0.120 C 
BRANCH  12  14
ATOM     14  C   UNL     1      -2.445   3.765  25.769  0.00  0.00    -0.033 A 
ATOM     16  C   UNL     1      -2.474   5.067  25.269  0.00  0.00    +0.005 A 
ATOM     17  C   UNL     1      -1.248   3.050  25.781  0.00  0.00    +0.005 A 
ATOM     25  C   UNL     1      -1.306   5.654  24.782  0.00  0.00    +0.000 A 
ATOM     26  C   UNL     1      -0.079   3.636  25.293  0.00  0.00    +0.000 A 
ATOM     28  C   UNL     1      -0.110   4.938  24.794  0.00  0.00    +0.000 A 
ENDBRANCH  12  14
ENDBRANCH   3  12
ENDBRANCH  13   8
TORSDOF 4
ENDMDL
MODEL 3
REMARK VINA RESULT:       3.6     14.487     16.571
REMARK  Name = 45783284
REMARK  4 active torsions:
REMARK  status: ('A' for Active; 'I' for Inactive)
REMARK    1  A    between atoms: N_3  and  C_12
REMARK    2  A    between atoms: C_8  and  C_13
REMARK    3  A    between atoms: C_12  and  C_14
REMARK    4  A    between atoms: C_15  and  C_20
REMARK                            x       y       z     vdW  Elec       q    Type
REMARK                         _______ _______ _______ _____ _____    ______ ____
ROOT
ATOM      1  O   UNL     1      -6.000  -7.274   9.740  0.00  0.00    -0.336 OA
ATOM      4  N   UNL     1      -5.470  -9.418  10.116  0.00  0.00    -0.190 NA
ATOM      6  N   UNL     1      -4.712  -7.266  10.290  0.00  0.00    -0.056 NA
ATOM     13  C   UNL     1      -6.372  -8.580   9.672  0.00  0.00    +0.245 A 
ATOM     15  C   UNL     1      -4.470  -8.566  10.484  0.00  0.00    +0.202 A 
ENDROOT
BRANCH  15  20
ATOM      2  O   UNL     1       2.367  -6.231  12.280  0.00  0.00    -0.377 OA
ATOM      5  N   UNL     1       0.110  -7.843  11.821  0.00  0.00    -0.311 N 
ATOM      7  N   UNL     1      -0.846  -9.985  12.141  0.00  0.00    -0.240 NA
ATOM     18  C   UNL     1       1.461  -8.416  11.741  0.00  0.00    +0.134 C 
ATOM     19  C   UNL     1      -0.003  -6.621  12.625  0.00  0.00    +0.134 C 
ATOM     20  C   UNL     1      -3.240  -9.047  11.045  0.00  0.00    +0.027 A 
ATOM     21  C   UNL     1      -0.983  -8.710  11.712  0.00  0.00    +0.122 A 
ATOM     22  C   UNL     1       2.461  -7.328  11.370  0.00  0.00    +0.178 C 
ATOM     23  C   UNL     1       1.076  -5.628  12.206  0.00  0.00    +0.178 C 
ATOM     24  C   UNL     1      -2.146  -8.197  11.162  0.00  0.00    +0.055 A 
ATOM     27  C   UNL     1      -3.139 -10.365  11.476  0.00  0.00    +0.031 A 
ATOM     29  C   UNL     1      -1.931 -10.781  12.011  0.00  0.00    +0.113 A 
ENDBRANCH  15  20
BRANCH  13   8
ATOM      3  N   UNL     1      -8.791  -8.924  10.146  0.00  0.00    -0.287 NA
ATOM      8  C   UNL     1      -7.747  -8.860   9.103  0.00  0.00    +0.146 C 
ATOM      9  C   UNL     1      -8.227  -7.762   8.137  0.00  0.00    +0.030 C 
ATOM     10  C   UNL     1      -9.574  -7.311   8.684  0.00  0.00    +0.017 C 
ATOM     11  C   UNL     1     -10.036  -8.493   9.511  0.00  0.00    +0.085 C 
BRANCH   3  12
ATOM     12  C   UNL     1      -8.914 -10.242  10.755  0.00  0.00    +0.120 C 
BRANCH  12  14
ATOM     14  C   UNL     1      -8.717 -10.191  12.247  0.00  0.00    -0.033 A 
ATOM     16  C   UNL     1      -7.493 -10.564  12.803  0.00  0.00    +0.005 A 
ATOM     17  C   UNL     1      -9.758  -9.769  13.074  0.00  0.00    +0.005 A 
ATOM     25  C   UNL     1      -7.310 -10.516  14.185  0.00  0.00    +0.000 A 
ATOM     26  C   UNL     1      -9.576  -9.722  14.456  0.00  0.00    +0.000 A 
ATOM     28  C   UNL     1      -8.352 -10.095  15.011  0.00  0.00    +0.000 A 
ENDBRANCH  12  14
ENDBRANCH   3  12
ENDBRANCH  13   8
TORSDOF 4
ENDMDL
MODEL 4
REMARK VINA RESULT:       3.6      2.251      7.968
REMARK  Name = 45783284
REMARK  4 active torsions:
REMARK  status: ('A' for Active; 'I' for Inactive)
REMARK    1  A    between atoms: N_3  and  C_12
REMARK    2  A    between atoms: C_8  and  C_13
REMARK    3  A    between atoms: C_12  and  C_14
REMARK    4  A    between atoms: C_15  and  C_20
REMARK                            x       y       z     vdW  Elec       q    Type
REMARK                         _______ _______ _______ _____ _____    ______ ____
ROOT
ATOM      1  O   UNL     1       1.115  -1.611  24.201  0.00  0.00    -0.336 OA
ATOM      4  N   UNL     1      -0.304  -0.132  23.297  0.00  0.00    -0.190 NA
ATOM      6  N   UNL     1      -0.160  -1.965  24.659  0.00  0.00    -0.056 NA
ATOM     13  C   UNL     1       0.940  -0.523  23.405  0.00  0.00    +0.245 A 
ATOM     15  C   UNL     1      -0.942  -1.046  24.084  0.00  0.00    +0.202 A 
ENDROOT
BRANCH  15  20
ATOM      2  O   UNL     1      -6.425   3.661  25.873  0.00  0.00    -0.377 OA
ATOM      5  N   UNL     1      -4.976   1.337  25.236  0.00  0.00    -0.311 N 
ATOM      7  N   UNL     1      -5.133  -0.949  24.645  0.00  0.00    -0.240 NA
ATOM     18  C   UNL     1      -6.201   1.252  26.044  0.00  0.00    +0.134 C 
ATOM     19  C   UNL     1      -4.868   2.533  24.392  0.00  0.00    +0.134 C 
ATOM     20  C   UNL     1      -2.364  -1.013  24.275  0.00  0.00    +0.027 A 
ATOM     21  C   UNL     1      -4.363   0.145  24.838  0.00  0.00    +0.122 A 
ATOM     22  C   UNL     1      -6.421   2.565  26.787  0.00  0.00    +0.178 C 
ATOM     23  C   UNL     1      -5.159   3.778  25.224  0.00  0.00    +0.178 C 
ATOM     24  C   UNL     1      -2.988   0.165  24.669  0.00  0.00    +0.055 A 
ATOM     27  C   UNL     1      -3.123  -2.160  24.066  0.00  0.00    +0.031 A 
ATOM     29  C   UNL     1      -4.491  -2.076  24.263  0.00  0.00    +0.113 A 
ENDBRANCH  15  20
BRANCH  13   8
ATOM      3  N   UNL     1       2.726   1.204  23.537  0.00  0.00    -0.287 NA
ATOM      8  C   UNL     1       2.188   0.060  22.776  0.00  0.00    +0.146 C 
ATOM      9  C   UNL     1       3.349  -0.950  22.713  0.00  0.00    +0.030 C 
ATOM     10  C   UNL     1       4.513  -0.261  23.411  0.00  0.00    +0.017 C 
ATOM     11  C   UNL     1       4.171   1.211  23.305  0.00  0.00    +0.085 C 
BRANCH   3  12
ATOM     12  C   UNL     1       2.108   2.474  23.179  0.00  0.00    +0.120 C 
BRANCH  12  14
ATOM     14  C   UNL     1       0.923   2.787  24.054  0.00  0.00    -0.033 A 
ATOM     16  C   UNL     1       0.754   2.116  25.266  0.00  0.00    +0.005 A 
ATOM     17  C   UNL     1      -0.006   3.747  23.654  0.00  0.00    +0.005 A 
ATOM     25  C   UNL     1      -0.344   2.405  26.077  0.00  0.00    +0.000 A 
ATOM     26  C   UNL     1      -1.104   4.037  24.465  0.00  0.00    +0.000 A 
ATOM     28  C   UNL     1      -1.272   3.365  25.676  0.00  0.00    +0.000 A 
ENDBRANCH  12  14
ENDBRANCH   3  12
ENDBRANCH  13   8
TORSDOF 4
ENDMDL
