MODEL 1
REMARK VINA RESULT:      10.3      0.000      0.000
REMARK  Name = 45783982
REMARK  12 active torsions:
REMARK  status: ('A' for Active; 'I' for Inactive)
REMARK    1  A    between atoms: N_2  and  C_14
REMARK    2  A    between atoms: N_8  and  C_36
REMARK    3  A    between atoms: N_8  and  C_37
REMARK    4  A    between atoms: N_8  and  C_38
REMARK    5  A    between atoms: C_9  and  C_13
REMARK    6  A    between atoms: C_10  and  C_14
REMARK    7  A    between atoms: C_12  and  C_17
REMARK    8  A    between atoms: C_13  and  C_18
REMARK    9  A    between atoms: C_13  and  C_19
REMARK   10  A    between atoms: C_16  and  C_22
REMARK   11  A    between atoms: C_17  and  C_25
REMARK   12  A    between atoms: C_27  and  C_28
REMARK                            x       y       z     vdW  Elec       q    Type
REMARK                         _______ _______ _______ _____ _____    ______ ____
ROOT
ATOM      9  C   UNL     1      -2.064   4.372  23.806  0.00  0.00    +0.000 C 
ATOM     10  C   UNL     1      -1.415   3.284  24.692  0.00  0.00    +0.029 C 
ATOM     11  C   UNL     1      -3.564   4.488  24.109  0.00  0.00    +0.012 C 
ATOM     12  C   UNL     1      -3.867   4.787  25.594  0.00  0.00    +0.024 C 
ATOM     15  C   UNL     1      -1.875   3.354  26.126  0.00  0.00    -0.023 C 
ATOM     16  C   UNL     1      -2.959   4.029  26.550  0.00  0.00    -0.073 C 
ATOM     22  C   UNL     1      -3.277   4.105  28.018  0.00  0.00    +0.039 C 
ENDROOT
BRANCH   9  13
ATOM     13  C   UNL     1      -1.358   5.724  23.973  0.00  0.00    -0.013 C 
ATOM     18  C   UNL     1      -0.024   5.542  24.691  0.00  0.00    +0.007 C 
ATOM     19  C   UNL     1      -2.251   6.702  24.730  0.00  0.00    +0.007 C 
ENDBRANCH   9  13
BRANCH  10  14
ATOM     14  C   UNL     1      -1.681   1.877  24.146  0.00  0.00    +0.092 C 
BRANCH  14   2
ATOM      2  N   UNL     1      -0.452   1.287  23.616  0.00  0.00    -0.299 NA
ATOM      3  N   UNL     1       2.248   0.361  23.715  0.00  0.00    -0.297 N 
ATOM      6  N   UNL     1       3.732  -1.440  23.612  0.00  0.00    -0.223 NA
ATOM      7  N   UNL     1       4.532   0.833  23.594  0.00  0.00    -0.223 NA
ATOM     20  C   UNL     1       0.658   2.244  23.706  0.00  0.00    +0.103 C 
ATOM     21  C   UNL     1      -0.114   0.060  24.346  0.00  0.00    +0.103 C 
ATOM     23  C   UNL     1       1.937   1.659  23.103  0.00  0.00    +0.123 C 
ATOM     24  C   UNL     1       1.141  -0.598  23.765  0.00  0.00    +0.123 C 
ATOM     26  C   UNL     1       3.566  -0.104  23.637  0.00  0.00    +0.218 A 
ATOM     29  C   UNL     1       5.014  -1.853  23.536  0.00  0.00    +0.116 A 
ATOM     30  C   UNL     1       5.790   0.350  23.518  0.00  0.00    +0.116 A 
ATOM     31  C   UNL     1       6.094  -0.996  23.487  0.00  0.00    +0.039 A 
ENDBRANCH  14   2
ENDBRANCH  10  14
BRANCH  12  17
ATOM     17  C   UNL     1      -5.356   4.525  25.852  0.00  0.00    +0.105 C 
BRANCH  17  25
ATOM      1  O   UNL     1      -4.678   2.221  25.414  0.00  0.00    -0.420 OA
ATOM      4  N   UNL     1      -6.760   2.429  26.207  0.00  0.00    -0.112 NA
ATOM      5  N   UNL     1      -6.511   1.084  26.007  0.00  0.00    -0.107 NA
ATOM     25  C   UNL     1      -5.663   3.055  25.849  0.00  0.00    +0.218 A 
ATOM     27  C   UNL     1      -5.286   1.010  25.544  0.00  0.00    +0.248 A 
BRANCH  27  28
ATOM     28  C   UNL     1      -4.502  -0.129  25.161  0.00  0.00    +0.039 A 
ATOM     32  C   UNL     1      -4.718  -0.741  23.926  0.00  0.00    +0.015 A 
ATOM     33  C   UNL     1      -3.523  -0.623  26.024  0.00  0.00    +0.015 A 
ATOM     34  C   UNL     1      -3.955  -1.847  23.554  0.00  0.00    +0.024 A 
ATOM     35  C   UNL     1      -2.761  -1.731  25.651  0.00  0.00    +0.024 A 
ATOM     36  C   UNL     1      -2.977  -2.342  24.416  0.00  0.00    +0.029 A 
BRANCH  36   8
ATOM      8  N   UNL     1      -2.207  -3.462  24.040  0.00  0.00    -0.336 N 
ATOM     37  C   UNL     1      -2.734  -4.435  23.103  0.00  0.00    +0.129 C 
ATOM     38  C   UNL     1      -0.874  -3.652  24.578  0.00  0.00    +0.129 C 
ENDBRANCH  36   8
ENDBRANCH  27  28
ENDBRANCH  17  25
ENDBRANCH  12  17
TORSDOF 7
ENDMDL
MODEL 2
REMARK VINA RESULT:      11.1      2.779      5.502
REMARK  Name = 45783982
REMARK  12 active torsions:
REMARK  status: ('A' for Active; 'I' for Inactive)
REMARK    1  A    between atoms: N_2  and  C_14
REMARK    2  A    between atoms: N_8  and  C_36
REMARK    3  A    between atoms: N_8  and  C_37
REMARK    4  A    between atoms: N_8  and  C_38
REMARK    5  A    between atoms: C_9  and  C_13
REMARK    6  A    between atoms: C_10  and  C_14
REMARK    7  A    between atoms: C_12  and  C_17
REMARK    8  A    between atoms: C_13  and  C_18
REMARK    9  A    between atoms: C_13  and  C_19
REMARK   10  A    between atoms: C_16  and  C_22
REMARK   11  A    between atoms: C_17  and  C_25
REMARK   12  A    between atoms: C_27  and  C_28
REMARK                            x       y       z     vdW  Elec       q    Type
REMARK                         _______ _______ _______ _____ _____    ______ ____
ROOT
ATOM      9  C   UNL     1      -3.119   2.886  23.089  0.00  0.00    +0.000 C 
ATOM     10  C   UNL     1      -4.030   3.930  23.774  0.00  0.00    +0.029 C 
ATOM     11  C   UNL     1      -2.989   1.630  23.962  0.00  0.00    +0.012 C 
ATOM     12  C   UNL     1      -4.346   0.981  24.306  0.00  0.00    +0.024 C 
ATOM     15  C   UNL     1      -5.270   3.315  24.371  0.00  0.00    -0.023 C 
ATOM     16  C   UNL     1      -5.435   1.999  24.604  0.00  0.00    -0.073 C 
ATOM     22  C   UNL     1      -6.749   1.482  25.123  0.00  0.00    +0.039 C 
ENDROOT
BRANCH   9  13
ATOM     13  C   UNL     1      -3.629   2.535  21.685  0.00  0.00    -0.013 C 
ATOM     18  C   UNL     1      -2.531   1.852  20.875  0.00  0.00    +0.007 C 
ATOM     19  C   UNL     1      -4.128   3.787  20.971  0.00  0.00    +0.007 C 
ENDBRANCH   9  13
BRANCH  10  14
ATOM     14  C   UNL     1      -3.281   4.708  24.862  0.00  0.00    +0.092 C 
BRANCH  14   2
ATOM      2  N   UNL     1      -2.316   3.845  25.543  0.00  0.00    -0.299 NA
ATOM      3  N   UNL     1      -0.163   3.233  27.317  0.00  0.00    -0.297 N 
ATOM      6  N   UNL     1       0.558   2.172  29.269  0.00  0.00    -0.223 NA
ATOM      7  N   UNL     1       2.137   3.104  27.705  0.00  0.00    -0.223 NA
ATOM     20  C   UNL     1      -0.943   4.244  25.209  0.00  0.00    +0.103 C 
ATOM     21  C   UNL     1      -2.513   3.900  26.996  0.00  0.00    +0.103 C 
ATOM     23  C   UNL     1       0.075   3.312  25.870  0.00  0.00    +0.123 C 
ATOM     24  C   UNL     1      -1.546   2.957  27.718  0.00  0.00    +0.123 C 
ATOM     26  C   UNL     1       0.893   2.818  28.136  0.00  0.00    +0.218 A 
ATOM     29  C   UNL     1       1.600   1.785  30.034  0.00  0.00    +0.116 A 
ATOM     30  C   UNL     1       3.130   2.688  28.517  0.00  0.00    +0.116 A 
ATOM     31  C   UNL     1       2.919   2.018  29.706  0.00  0.00    +0.039 A 
ENDBRANCH  14   2
ENDBRANCH  10  14
BRANCH  12  17
ATOM     17  C   UNL     1      -4.135  -0.019  25.449  0.00  0.00    +0.105 C 
BRANCH  17  25
ATOM      1  O   UNL     1      -1.799  -0.244  24.779  0.00  0.00    -0.420 OA
ATOM      4  N   UNL     1      -2.775  -2.171  25.361  0.00  0.00    -0.112 NA
ATOM      5  N   UNL     1      -1.467  -2.445  25.008  0.00  0.00    -0.107 NA
ATOM     25  C   UNL     1      -2.925  -0.876  25.213  0.00  0.00    +0.218 A 
ATOM     27  C   UNL     1      -0.936  -1.291  24.676  0.00  0.00    +0.248 A 
BRANCH  27  28
ATOM     28  C   UNL     1       0.389  -0.970  24.230  0.00  0.00    +0.039 A 
ATOM     32  C   UNL     1       1.457  -1.805  24.557  0.00  0.00    +0.015 A 
ATOM     33  C   UNL     1       0.608   0.178  23.468  0.00  0.00    +0.015 A 
ATOM     34  C   UNL     1       2.745  -1.493  24.122  0.00  0.00    +0.024 A 
ATOM     35  C   UNL     1       1.897   0.490  23.033  0.00  0.00    +0.024 A 
ATOM     36  C   UNL     1       2.965  -0.346  23.361  0.00  0.00    +0.029 A 
BRANCH  36   8
ATOM      8  N   UNL     1       4.267  -0.030  22.923  0.00  0.00    -0.336 N 
ATOM     37  C   UNL     1       4.468   0.898  21.826  0.00  0.00    +0.129 C 
ATOM     38  C   UNL     1       5.423  -0.621  23.567  0.00  0.00    +0.129 C 
ENDBRANCH  36   8
ENDBRANCH  27  28
ENDBRANCH  17  25
ENDBRANCH  12  17
TORSDOF 7
ENDMDL
MODEL 3
REMARK VINA RESULT:      13.6      1.824      6.976
REMARK  Name = 45783982
REMARK  12 active torsions:
REMARK  status: ('A' for Active; 'I' for Inactive)
REMARK    1  A    between atoms: N_2  and  C_14
REMARK    2  A    between atoms: N_8  and  C_36
REMARK    3  A    between atoms: N_8  and  C_37
REMARK    4  A    between atoms: N_8  and  C_38
REMARK    5  A    between atoms: C_9  and  C_13
REMARK    6  A    between atoms: C_10  and  C_14
REMARK    7  A    between atoms: C_12  and  C_17
REMARK    8  A    between atoms: C_13  and  C_18
REMARK    9  A    between atoms: C_13  and  C_19
REMARK   10  A    between atoms: C_16  and  C_22
REMARK   11  A    between atoms: C_17  and  C_25
REMARK   12  A    between atoms: C_27  and  C_28
REMARK                            x       y       z     vdW  Elec       q    Type
REMARK                         _______ _______ _______ _____ _____    ______ ____
ROOT
ATOM      9  C   UNL     1      -2.745   4.827  25.682  0.00  0.00    +0.000 C 
ATOM     10  C   UNL     1      -4.002   4.674  24.794  0.00  0.00    +0.029 C 
ATOM     11  C   UNL     1      -2.096   3.459  25.934  0.00  0.00    +0.012 C 
ATOM     12  C   UNL     1      -1.721   2.711  24.637  0.00  0.00    +0.024 C 
ATOM     15  C   UNL     1      -3.782   3.737  23.634  0.00  0.00    -0.023 C 
ATOM     16  C   UNL     1      -2.763   2.862  23.540  0.00  0.00    -0.073 C 
ATOM     22  C   UNL     1      -2.590   2.034  22.296  0.00  0.00    +0.039 C 
ENDROOT
BRANCH   9  13
ATOM     13  C   UNL     1      -1.742   5.812  25.067  0.00  0.00    -0.013 C 
ATOM     18  C   UNL     1      -2.345   6.489  23.840  0.00  0.00    +0.007 C 
ATOM     19  C   UNL     1      -0.444   5.096  24.707  0.00  0.00    +0.007 C 
ENDBRANCH   9  13
BRANCH  10  14
ATOM     14  C   UNL     1      -5.213   4.198  25.604  0.00  0.00    +0.092 C 
BRANCH  14   2
ATOM      2  N   UNL     1      -5.283   2.737  25.617  0.00  0.00    -0.299 NA
ATOM      3  N   UNL     1      -4.443   0.081  24.987  0.00  0.00    -0.297 N 
ATOM      6  N   UNL     1      -3.607  -1.966  25.741  0.00  0.00    -0.223 NA
ATOM      7  N   UNL     1      -4.420  -1.709  23.487  0.00  0.00    -0.223 NA
ATOM     20  C   UNL     1      -5.428   2.217  24.251  0.00  0.00    +0.103 C 
ATOM     21  C   UNL     1      -4.083   2.169  26.243  0.00  0.00    +0.103 C 
ATOM     23  C   UNL     1      -5.561   0.692  24.256  0.00  0.00    +0.123 C 
ATOM     24  C   UNL     1      -4.170   0.642  26.313  0.00  0.00    +0.123 C 
ATOM     26  C   UNL     1      -4.142  -1.261  24.725  0.00  0.00    +0.218 A 
ATOM     29  C   UNL     1      -3.330  -3.255  25.454  0.00  0.00    +0.116 A 
ATOM     30  C   UNL     1      -4.118  -3.006  23.270  0.00  0.00    +0.116 A 
ATOM     31  C   UNL     1      -3.565  -3.835  24.225  0.00  0.00    +0.039 A 
ENDBRANCH  14   2
ENDBRANCH  10  14
BRANCH  12  17
ATOM     17  C   UNL     1      -1.428   1.246  24.984  0.00  0.00    +0.105 C 
BRANCH  17  25
ATOM      1  O   UNL     1       0.854   0.727  24.290  0.00  0.00    -0.420 OA
ATOM      4  N   UNL     1      -0.722  -0.005  22.880  0.00  0.00    -0.112 NA
ATOM      5  N   UNL     1       0.510  -0.365  22.367  0.00  0.00    -0.107 NA
ATOM     25  C   UNL     1      -0.474   0.629  24.002  0.00  0.00    +0.218 A 
ATOM     27  C   UNL     1       1.399   0.082  23.222  0.00  0.00    +0.248 A 
BRANCH  27  28
ATOM     28  C   UNL     1       2.831  -0.002  23.206  0.00  0.00    +0.039 A 
ATOM     32  C   UNL     1       3.589   1.084  22.768  0.00  0.00    +0.015 A 
ATOM     33  C   UNL     1       3.466  -1.170  23.630  0.00  0.00    +0.015 A 
ATOM     34  C   UNL     1       4.981   1.002  22.753  0.00  0.00    +0.024 A 
ATOM     35  C   UNL     1       4.858  -1.252  23.614  0.00  0.00    +0.024 A 
ATOM     36  C   UNL     1       5.616  -0.165  23.176  0.00  0.00    +0.029 A 
BRANCH  36   8
ATOM      8  N   UNL     1       7.023  -0.248  23.160  0.00  0.00    -0.336 N 
ATOM     37  C   UNL     1       7.825   0.733  23.865  0.00  0.00    +0.129 C 
ATOM     38  C   UNL     1       7.688  -1.320  22.444  0.00  0.00    +0.129 C 
ENDBRANCH  36   8
ENDBRANCH  27  28
ENDBRANCH  17  25
ENDBRANCH  12  17
TORSDOF 7
ENDMDL
