MODEL 1
REMARK VINA RESULT:       0.3      0.000      0.000
REMARK  Name = 11941655
REMARK  7 active torsions:
REMARK  status: ('A' for Active; 'I' for Inactive)
REMARK    1  A    between atoms: O_4  and  C_28
REMARK    2  A    between atoms: O_4  and  C_29
REMARK    3  A    between atoms: N_5  and  C_12
REMARK    4  A    between atoms: N_6  and  C_13
REMARK    5  A    between atoms: N_7  and  C_18
REMARK    6  A    between atoms: C_18  and  C_23
REMARK    7  A    between atoms: C_19  and  C_22
REMARK                            x       y       z     vdW  Elec       q    Type
REMARK                         _______ _______ _______ _____ _____    ______ ____
ROOT
ATOM      5  N   UNL     1      -4.817   0.485  24.551  0.00  0.00    -0.306 N 
ATOM      8  N   UNL     1      -2.533   0.082  24.194  0.00  0.00    -0.214 NA
ATOM      9  N   UNL     1      -4.005  -1.688  24.905  0.00  0.00    -0.223 NA
ATOM     16  C   UNL     1      -3.754  -0.400  24.550  0.00  0.00    +0.216 A 
ATOM     19  C   UNL     1      -1.519  -0.807  24.204  0.00  0.00    +0.076 A 
ATOM     20  C   UNL     1      -2.946  -2.523  24.893  0.00  0.00    +0.116 A 
ATOM     21  C   UNL     1      -1.667  -2.135  24.549  0.00  0.00    +0.048 A 
ATOM     30  H   UNL     1      -5.711   0.127  24.868  0.00  0.00    +0.149 HD
ENDROOT
BRANCH   5  12
ATOM      1  O   UNL     1      -4.558   3.051  26.260  0.00  0.00    -0.370 OA
ATOM      2  O   UNL     1      -3.010   3.509  23.590  0.00  0.00    -0.370 OA
ATOM     10  C   UNL     1      -3.270   2.342  24.390  0.00  0.00    +0.171 C 
ATOM     11  C   UNL     1      -3.212   2.771  25.843  0.00  0.00    +0.171 C 
ATOM     12  C   UNL     1      -4.696   1.882  24.197  0.00  0.00    +0.130 C 
ATOM     13  C   UNL     1      -2.394   4.042  25.818  0.00  0.00    +0.131 C 
ATOM     14  C   UNL     1      -5.460   2.742  25.187  0.00  0.00    +0.185 C 
ATOM     15  C   UNL     1      -2.730   4.618  24.455  0.00  0.00    +0.185 C 
BRANCH  13   6
ATOM      3  O   UNL     1      -1.068   2.663  27.980  0.00  0.00    -0.253 OA
ATOM      6  N   UNL     1      -0.983   3.758  25.934  0.00  0.00    -0.292 N 
ATOM      7  N   UNL     1       0.952   2.944  26.874  0.00  0.00    -0.300 N 
ATOM     17  C   UNL     1      -0.426   3.083  27.018  0.00  0.00    +0.300 C 
ATOM     31  H   UNL     1      -0.376   4.005  25.159  0.00  0.00    +0.151 HD
ATOM     32  H   UNL     1       1.399   3.325  26.046  0.00  0.00    +0.150 HD
BRANCH   7  18
ATOM     18  C   UNL     1       1.779   2.283  27.856  0.00  0.00    +0.102 C 
ATOM     23  C   UNL     1       2.513   3.281  28.727  0.00  0.00    +0.024 C 
ENDBRANCH   7  18
ENDBRANCH  13   6
ENDBRANCH   5  12
BRANCH  19  22
ATOM     22  C   UNL     1      -0.233  -0.275  23.824  0.00  0.00    +0.001 A 
ATOM     24  C   UNL     1       0.127   1.023  24.196  0.00  0.00    +0.013 A 
ATOM     25  C   UNL     1       0.657  -1.053  23.080  0.00  0.00    +0.013 A 
ATOM     26  C   UNL     1       1.370   1.537  23.828  0.00  0.00    +0.046 A 
ATOM     27  C   UNL     1       1.899  -0.538  22.711  0.00  0.00    +0.046 A 
ATOM     28  C   UNL     1       2.256   0.757  23.085  0.00  0.00    +0.120 A 
BRANCH  28   4
ATOM      4  O   UNL     1       3.468   1.260  22.724  0.00  0.00    -0.495 OA
ATOM     29  C   UNL     1       4.621   0.507  23.098  0.00  0.00    +0.277 C 
ENDBRANCH  28   4
ENDBRANCH  19  22
TORSDOF 5
ENDMDL
MODEL 2
REMARK VINA RESULT:       1.3      2.526      5.102
REMARK  Name = 11941655
REMARK  7 active torsions:
REMARK  status: ('A' for Active; 'I' for Inactive)
REMARK    1  A    between atoms: O_4  and  C_28
REMARK    2  A    between atoms: O_4  and  C_29
REMARK    3  A    between atoms: N_5  and  C_12
REMARK    4  A    between atoms: N_6  and  C_13
REMARK    5  A    between atoms: N_7  and  C_18
REMARK    6  A    between atoms: C_18  and  C_23
REMARK    7  A    between atoms: C_19  and  C_22
REMARK                            x       y       z     vdW  Elec       q    Type
REMARK                         _______ _______ _______ _____ _____    ______ ____
ROOT
ATOM      5  N   UNL     1      -3.923   4.698  24.738  0.00  0.00    -0.306 N 
ATOM      8  N   UNL     1      -4.235   2.379  24.922  0.00  0.00    -0.214 NA
ATOM      9  N   UNL     1      -5.867   3.920  25.796  0.00  0.00    -0.223 NA
ATOM     16  C   UNL     1      -4.698   3.635  25.164  0.00  0.00    +0.216 A 
ATOM     19  C   UNL     1      -5.016   1.367  25.351  0.00  0.00    +0.076 A 
ATOM     20  C   UNL     1      -6.598   2.861  26.199  0.00  0.00    +0.116 A 
ATOM     21  C   UNL     1      -6.219   1.549  26.003  0.00  0.00    +0.048 A 
ATOM     30  H   UNL     1      -4.252   5.627  24.971  0.00  0.00    +0.149 HD
ENDROOT
BRANCH   5  12
ATOM      1  O   UNL     1      -0.993   4.796  25.731  0.00  0.00    -0.370 OA
ATOM      2  O   UNL     1      -1.134   2.806  23.333  0.00  0.00    -0.370 OA
ATOM     10  C   UNL     1      -2.071   3.182  24.355  0.00  0.00    +0.171 C 
ATOM     11  C   UNL     1      -1.283   3.392  25.633  0.00  0.00    +0.171 C 
ATOM     12  C   UNL     1      -2.657   4.541  24.055  0.00  0.00    +0.130 C 
ATOM     13  C   UNL     1      -0.010   2.607  25.413  0.00  0.00    +0.131 C 
ATOM     14  C   UNL     1      -1.624   5.486  24.642  0.00  0.00    +0.185 C 
ATOM     15  C   UNL     1       0.176   2.705  23.910  0.00  0.00    +0.185 C 
BRANCH  13   6
ATOM      3  O   UNL     1       0.087   0.254  23.743  0.00  0.00    -0.253 OA
ATOM      6  N   UNL     1      -0.163   1.234  25.833  0.00  0.00    -0.292 N 
ATOM      7  N   UNL     1      -0.281  -1.054  25.624  0.00  0.00    -0.300 N 
ATOM     17  C   UNL     1      -0.102   0.155  24.955  0.00  0.00    +0.300 C 
ATOM     31  H   UNL     1      -0.257   1.041  26.826  0.00  0.00    +0.151 HD
ATOM     32  H   UNL     1      -0.432  -1.040  26.627  0.00  0.00    +0.150 HD
BRANCH   7  18
ATOM     18  C   UNL     1      -0.264  -2.331  24.950  0.00  0.00    +0.102 C 
ATOM     23  C   UNL     1       0.581  -3.341  25.697  0.00  0.00    +0.024 C 
ENDBRANCH   7  18
ENDBRANCH  13   6
ENDBRANCH   5  12
BRANCH  19  22
ATOM     22  C   UNL     1      -4.505   0.043  25.084  0.00  0.00    +0.001 A 
ATOM     24  C   UNL     1      -4.633  -0.513  23.809  0.00  0.00    +0.013 A 
ATOM     25  C   UNL     1      -3.883  -0.687  26.099  0.00  0.00    +0.013 A 
ATOM     26  C   UNL     1      -4.140  -1.792  23.551  0.00  0.00    +0.046 A 
ATOM     27  C   UNL     1      -3.391  -1.966  25.841  0.00  0.00    +0.046 A 
ATOM     28  C   UNL     1      -3.520  -2.519  24.567  0.00  0.00    +0.120 A 
BRANCH  28   4
ATOM      4  O   UNL     1      -3.040  -3.768  24.316  0.00  0.00    -0.495 OA
ATOM     29  C   UNL     1      -2.277  -3.943  23.123  0.00  0.00    +0.277 C 
ENDBRANCH  28   4
ENDBRANCH  19  22
TORSDOF 5
ENDMDL
MODEL 3
REMARK VINA RESULT:       2.4      2.202      5.146
REMARK  Name = 11941655
REMARK  7 active torsions:
REMARK  status: ('A' for Active; 'I' for Inactive)
REMARK    1  A    between atoms: O_4  and  C_28
REMARK    2  A    between atoms: O_4  and  C_29
REMARK    3  A    between atoms: N_5  and  C_12
REMARK    4  A    between atoms: N_6  and  C_13
REMARK    5  A    between atoms: N_7  and  C_18
REMARK    6  A    between atoms: C_18  and  C_23
REMARK    7  A    between atoms: C_19  and  C_22
REMARK                            x       y       z     vdW  Elec       q    Type
REMARK                         _______ _______ _______ _____ _____    ______ ____
ROOT
ATOM      5  N   UNL     1      -4.973   0.544  24.703  0.00  0.00    -0.306 N 
ATOM      8  N   UNL     1      -3.141   1.751  25.536  0.00  0.00    -0.214 NA
ATOM      9  N   UNL     1      -5.069   2.887  24.643  0.00  0.00    -0.223 NA
ATOM     16  C   UNL     1      -4.377   1.763  24.968  0.00  0.00    +0.216 A 
ATOM     19  C   UNL     1      -2.590   2.957  25.780  0.00  0.00    +0.076 A 
ATOM     20  C   UNL     1      -4.459   4.059  24.915  0.00  0.00    +0.116 A 
ATOM     21  C   UNL     1      -3.207   4.156  25.488  0.00  0.00    +0.048 A 
ATOM     30  H   UNL     1      -5.871   0.565  24.232  0.00  0.00    +0.149 HD
ENDROOT
BRANCH   5  12
ATOM      1  O   UNL     1      -3.346  -1.429  22.960  0.00  0.00    -0.370 OA
ATOM      2  O   UNL     1      -2.297  -1.637  25.890  0.00  0.00    -0.370 OA
ATOM     10  C   UNL     1      -2.858  -0.561  25.120  0.00  0.00    +0.171 C 
ATOM     11  C   UNL     1      -2.346  -0.710  23.701  0.00  0.00    +0.171 C 
ATOM     12  C   UNL     1      -4.353  -0.730  24.994  0.00  0.00    +0.130 C 
ATOM     13  C   UNL     1      -1.097  -1.547  23.846  0.00  0.00    +0.131 C 
ATOM     14  C   UNL     1      -4.484  -1.662  23.804  0.00  0.00    +0.185 C 
ATOM     15  C   UNL     1      -1.419  -2.406  25.055  0.00  0.00    +0.185 C 
BRANCH  13   6
ATOM      3  O   UNL     1       0.779  -0.567  21.882  0.00  0.00    -0.253 OA
ATOM      6  N   UNL     1       0.062  -0.719  24.086  0.00  0.00    -0.292 N 
ATOM      7  N   UNL     1       1.950   0.494  23.581  0.00  0.00    -0.300 N 
ATOM     17  C   UNL     1       0.917  -0.290  23.074  0.00  0.00    +0.300 C 
ATOM     31  H   UNL     1       0.226  -0.380  25.029  0.00  0.00    +0.151 HD
ATOM     32  H   UNL     1       1.986   0.670  24.580  0.00  0.00    +0.150 HD
BRANCH   7  18
ATOM     18  C   UNL     1       2.979   1.068  22.747  0.00  0.00    +0.102 C 
ATOM     23  C   UNL     1       4.336   0.464  23.042  0.00  0.00    +0.024 C 
ENDBRANCH   7  18
ENDBRANCH  13   6
ENDBRANCH   5  12
BRANCH  19  22
ATOM     22  C   UNL     1      -1.278   2.921  26.382  0.00  0.00    +0.001 A 
ATOM     24  C   UNL     1      -0.137   2.978  25.579  0.00  0.00    +0.013 A 
ATOM     25  C   UNL     1      -1.145   2.826  27.769  0.00  0.00    +0.013 A 
ATOM     26  C   UNL     1       1.130   2.942  26.161  0.00  0.00    +0.046 A 
ATOM     27  C   UNL     1       0.122   2.789  28.351  0.00  0.00    +0.046 A 
ATOM     28  C   UNL     1       1.260   2.847  27.547  0.00  0.00    +0.120 A 
BRANCH  28   4
ATOM      4  O   UNL     1       2.496   2.810  28.115  0.00  0.00    -0.495 OA
ATOM     29  C   UNL     1       2.556   2.645  29.531  0.00  0.00    +0.277 C 
ENDBRANCH  28   4
ENDBRANCH  19  22
TORSDOF 5
ENDMDL
MODEL 4
REMARK VINA RESULT:       2.9      2.180      5.765
REMARK  Name = 11941655
REMARK  7 active torsions:
REMARK  status: ('A' for Active; 'I' for Inactive)
REMARK    1  A    between atoms: O_4  and  C_28
REMARK    2  A    between atoms: O_4  and  C_29
REMARK    3  A    between atoms: N_5  and  C_12
REMARK    4  A    between atoms: N_6  and  C_13
REMARK    5  A    between atoms: N_7  and  C_18
REMARK    6  A    between atoms: C_18  and  C_23
REMARK    7  A    between atoms: C_19  and  C_22
REMARK                            x       y       z     vdW  Elec       q    Type
REMARK                         _______ _______ _______ _____ _____    ______ ____
ROOT
ATOM      5  N   UNL     1      -1.261  -2.414  24.641  0.00  0.00    -0.306 N 
ATOM      8  N   UNL     1      -3.030  -0.875  24.758  0.00  0.00    -0.214 NA
ATOM      9  N   UNL     1      -3.346  -3.052  23.774  0.00  0.00    -0.223 NA
ATOM     16  C   UNL     1      -2.585  -2.105  24.383  0.00  0.00    +0.216 A 
ATOM     19  C   UNL     1      -4.324  -0.607  24.491  0.00  0.00    +0.076 A 
ATOM     20  C   UNL     1      -4.631  -2.717  23.537  0.00  0.00    +0.116 A 
ATOM     21  C   UNL     1      -5.181  -1.498  23.877  0.00  0.00    +0.048 A 
ATOM     30  H   UNL     1      -0.928  -3.312  24.310  0.00  0.00    +0.149 HD
ENDROOT
BRANCH   5  12
ATOM      1  O   UNL     1       0.871  -0.475  23.512  0.00  0.00    -0.370 OA
ATOM      2  O   UNL     1      -0.249   0.752  26.153  0.00  0.00    -0.370 OA
ATOM     10  C   UNL     1      -0.825  -0.082  25.133  0.00  0.00    +0.171 C 
ATOM     11  C   UNL     1      -0.253   0.372  23.804  0.00  0.00    +0.171 C 
ATOM     12  C   UNL     1      -0.337  -1.504  25.280  0.00  0.00    +0.130 C 
ATOM     13  C   UNL     1       0.210   1.786  24.068  0.00  0.00    +0.131 C 
ATOM     14  C   UNL     1       0.982  -1.482  24.530  0.00  0.00    +0.185 C 
ATOM     15  C   UNL     1       0.593   1.735  25.535  0.00  0.00    +0.185 C 
BRANCH  13   6
ATOM      3  O   UNL     1      -0.320   4.202  25.557  0.00  0.00    -0.253 OA
ATOM      6  N   UNL     1      -0.853   2.735  23.837  0.00  0.00    -0.292 N 
ATOM      7  N   UNL     1      -2.133   4.618  24.169  0.00  0.00    -0.300 N 
ATOM     17  C   UNL     1      -1.036   3.881  24.608  0.00  0.00    +0.300 C 
ATOM     31  H   UNL     1      -1.459   2.595  23.034  0.00  0.00    +0.151 HD
ATOM     32  H   UNL     1      -2.668   4.275  23.377  0.00  0.00    +0.150 HD
BRANCH   7  18
ATOM     18  C   UNL     1      -2.547   5.852  24.794  0.00  0.00    +0.102 C 
ATOM     23  C   UNL     1      -2.962   5.634  26.233  0.00  0.00    +0.024 C 
ENDBRANCH   7  18
ENDBRANCH  13   6
ENDBRANCH   5  12
BRANCH  19  22
ATOM     22  C   UNL     1      -4.775   0.703  24.897  0.00  0.00    +0.001 A 
ATOM     24  C   UNL     1      -4.282   1.842  24.258  0.00  0.00    +0.013 A 
ATOM     25  C   UNL     1      -5.704   0.836  25.931  0.00  0.00    +0.013 A 
ATOM     26  C   UNL     1      -4.717   3.108  24.650  0.00  0.00    +0.046 A 
ATOM     27  C   UNL     1      -6.138   2.101  26.324  0.00  0.00    +0.046 A 
ATOM     28  C   UNL     1      -5.645   3.238  25.684  0.00  0.00    +0.120 A 
BRANCH  28   4
ATOM      4  O   UNL     1      -6.068   4.473  26.068  0.00  0.00    -0.495 OA
ATOM     29  C   UNL     1      -6.306   5.428  25.035  0.00  0.00    +0.277 C 
ENDBRANCH  28   4
ENDBRANCH  19  22
TORSDOF 5
ENDMDL
