MODEL 1
REMARK VINA RESULT:      -5.8      0.000      0.000
REMARK  Name = 26744096
REMARK  6 active torsions:
REMARK  status: ('A' for Active; 'I' for Inactive)
REMARK    1  A    between atoms: O_1  and  C_9
REMARK    2  A    between atoms: N_3  and  C_11
REMARK    3  A    between atoms: C_7  and  C_12
REMARK    4  A    between atoms: C_11  and  C_13
REMARK    5  A    between atoms: C_14  and  C_17
REMARK    6  A    between atoms: C_17  and  C_19
REMARK                            x       y       z     vdW  Elec       q    Type
REMARK                         _______ _______ _______ _____ _____    ______ ____
ROOT
ATOM      3  N   UNL     1      -3.365   2.104  25.059  0.00  0.00    -0.285 NA
ATOM      7  C   UNL     1      -2.368   2.865  24.280  0.00  0.00    +0.149 C 
ATOM      8  C   UNL     1      -2.151   4.163  25.080  0.00  0.00    +0.061 C 
ATOM      9  C   UNL     1      -3.103   4.060  26.265  0.00  0.00    +0.130 C 
ATOM     10  C   UNL     1      -4.165   3.090  25.784  0.00  0.00    +0.116 C 
ENDROOT
BRANCH   7  12
ATOM      2  O   UNL     1      -0.038   2.415  24.864  0.00  0.00    -0.336 OA
ATOM      4  N   UNL     1      -0.825   1.142  23.198  0.00  0.00    -0.194 NA
ATOM      5  N   UNL     1       1.020   1.580  24.478  0.00  0.00    -0.061 NA
ATOM     12  C   UNL     1      -1.084   2.091  24.061  0.00  0.00    +0.245 A 
ATOM     14  C   UNL     1       0.477   0.860  23.492  0.00  0.00    +0.176 A 
BRANCH  14  17
ATOM     17  C   UNL     1       1.238  -0.167  22.771  0.00  0.00    +0.114 C 
BRANCH  17  19
ATOM     19  C   UNL     1       2.737  -0.170  23.056  0.00  0.00    -0.040 A 
ATOM     21  C   UNL     1       3.506   0.953  22.753  0.00  0.00    +0.004 A 
ATOM     22  C   UNL     1       3.337  -1.297  23.619  0.00  0.00    +0.004 A 
ATOM     23  C   UNL     1       4.876   0.950  23.014  0.00  0.00    +0.000 A 
ATOM     24  C   UNL     1       4.707  -1.300  23.878  0.00  0.00    +0.000 A 
ATOM     25  C   UNL     1       5.477  -0.176  23.576  0.00  0.00    +0.000 A 
ENDBRANCH  17  19
ENDBRANCH  14  17
ENDBRANCH   7  12
BRANCH   9   1
ATOM      1  O   UNL     1      -3.651   5.325  26.579  0.00  0.00    -0.390 OA
ATOM     26  H   UNL     1      -2.910   5.938  26.721  0.00  0.00    +0.210 HD
ENDBRANCH   9   1
BRANCH   3  11
ATOM     11  C   UNL     1      -4.189   1.227  24.237  0.00  0.00    +0.122 C 
BRANCH  11  13
ATOM      6  N   UNL     1      -2.896  -1.901  25.932  0.00  0.00    -0.263 NA
ATOM     13  C   UNL     1      -3.909  -0.227  24.513  0.00  0.00    -0.015 A 
ATOM     15  C   UNL     1      -4.369  -1.221  23.656  0.00  0.00    +0.008 A 
ATOM     16  C   UNL     1      -3.184  -0.616  25.627  0.00  0.00    +0.115 A 
ATOM     18  C   UNL     1      -4.092  -2.554  23.936  0.00  0.00    +0.020 A 
ATOM     20  C   UNL     1      -3.359  -2.840  25.076  0.00  0.00    +0.111 A 
ENDBRANCH  11  13
ENDBRANCH   3  11
TORSDOF 6
ENDMDL
MODEL 2
REMARK VINA RESULT:      -5.5      2.074      6.337
REMARK  Name = 26744096
REMARK  6 active torsions:
REMARK  status: ('A' for Active; 'I' for Inactive)
REMARK    1  A    between atoms: O_1  and  C_9
REMARK    2  A    between atoms: N_3  and  C_11
REMARK    3  A    between atoms: C_7  and  C_12
REMARK    4  A    between atoms: C_11  and  C_13
REMARK    5  A    between atoms: C_14  and  C_17
REMARK    6  A    between atoms: C_17  and  C_19
REMARK                            x       y       z     vdW  Elec       q    Type
REMARK                         _______ _______ _______ _____ _____    ______ ____
ROOT
ATOM      3  N   UNL     1      -0.139   0.137  24.135  0.00  0.00    -0.285 NA
ATOM      7  C   UNL     1       0.570   1.321  24.659  0.00  0.00    +0.149 C 
ATOM      8  C   UNL     1       1.657   1.625  23.611  0.00  0.00    +0.061 C 
ATOM      9  C   UNL     1       1.511   0.530  22.562  0.00  0.00    +0.130 C 
ATOM     10  C   UNL     1       0.827  -0.594  23.315  0.00  0.00    +0.116 C 
ENDROOT
BRANCH   7  12
ATOM      2  O   UNL     1       0.149   3.729  24.637  0.00  0.00    -0.336 OA
ATOM      4  N   UNL     1      -1.593   2.503  25.329  0.00  0.00    -0.194 NA
ATOM      5  N   UNL     1      -0.875   4.639  24.931  0.00  0.00    -0.061 NA
ATOM     12  C   UNL     1      -0.357   2.496  24.898  0.00  0.00    +0.245 A 
ATOM     14  C   UNL     1      -1.868   3.839  25.332  0.00  0.00    +0.176 A 
BRANCH  14  17
ATOM     17  C   UNL     1      -3.170   4.369  25.752  0.00  0.00    +0.114 C 
BRANCH  17  19
ATOM     19  C   UNL     1      -4.348   3.426  25.524  0.00  0.00    -0.040 A 
ATOM     21  C   UNL     1      -4.562   2.871  24.263  0.00  0.00    +0.004 A 
ATOM     22  C   UNL     1      -5.210   3.120  26.578  0.00  0.00    +0.004 A 
ATOM     23  C   UNL     1      -5.639   2.009  24.056  0.00  0.00    +0.000 A 
ATOM     24  C   UNL     1      -6.286   2.258  26.370  0.00  0.00    +0.000 A 
ATOM     25  C   UNL     1      -6.501   1.702  25.109  0.00  0.00    +0.000 A 
ENDBRANCH  17  19
ENDBRANCH  14  17
ENDBRANCH   7  12
BRANCH   9   1
ATOM      1  O   UNL     1       2.776   0.137  22.068  0.00  0.00    -0.390 OA
ATOM     26  H   UNL     1       2.634  -0.282  21.202  0.00  0.00    +0.210 HD
ENDBRANCH   9   1
BRANCH   3  11
ATOM     11  C   UNL     1      -0.713  -0.699  25.182  0.00  0.00    +0.122 C 
BRANCH  11  13
ATOM      6  N   UNL     1      -3.262  -3.309  24.173  0.00  0.00    -0.263 NA
ATOM     13  C   UNL     1      -2.015  -1.321  24.751  0.00  0.00    -0.015 A 
ATOM     15  C   UNL     1      -3.144  -0.540  24.531  0.00  0.00    +0.008 A 
ATOM     16  C   UNL     1      -2.125  -2.688  24.560  0.00  0.00    +0.115 A 
ATOM     18  C   UNL     1      -4.332  -1.143  24.132  0.00  0.00    +0.020 A 
ATOM     20  C   UNL     1      -4.339  -2.518  23.968  0.00  0.00    +0.111 A 
ENDBRANCH  11  13
ENDBRANCH   3  11
TORSDOF 6
ENDMDL
MODEL 3
REMARK VINA RESULT:      -4.7      1.743      3.817
REMARK  Name = 26744096
REMARK  6 active torsions:
REMARK  status: ('A' for Active; 'I' for Inactive)
REMARK    1  A    between atoms: O_1  and  C_9
REMARK    2  A    between atoms: N_3  and  C_11
REMARK    3  A    between atoms: C_7  and  C_12
REMARK    4  A    between atoms: C_11  and  C_13
REMARK    5  A    between atoms: C_14  and  C_17
REMARK    6  A    between atoms: C_17  and  C_19
REMARK                            x       y       z     vdW  Elec       q    Type
REMARK                         _______ _______ _______ _____ _____    ______ ____
ROOT
ATOM      3  N   UNL     1      -2.963   0.079  23.577  0.00  0.00    -0.285 NA
ATOM      7  C   UNL     1      -1.948   0.248  24.635  0.00  0.00    +0.149 C 
ATOM      8  C   UNL     1      -1.998  -1.062  25.443  0.00  0.00    +0.061 C 
ATOM      9  C   UNL     1      -3.104  -1.884  24.792  0.00  0.00    +0.130 C 
ATOM     10  C   UNL     1      -3.967  -0.841  24.110  0.00  0.00    +0.116 C 
ENDROOT
BRANCH   7  12
ATOM      2  O   UNL     1       0.050   1.654  24.547  0.00  0.00    -0.336 OA
ATOM      4  N   UNL     1       0.128  -0.131  23.197  0.00  0.00    -0.194 NA
ATOM      5  N   UNL     1       1.289   1.712  23.896  0.00  0.00    -0.061 NA
ATOM     12  C   UNL     1      -0.569   0.539  24.079  0.00  0.00    +0.245 A 
ATOM     14  C   UNL     1       1.260   0.626  23.118  0.00  0.00    +0.176 A 
BRANCH  14  17
ATOM     17  C   UNL     1       2.377   0.275  22.233  0.00  0.00    +0.114 C 
BRANCH  17  19
ATOM     19  C   UNL     1       3.681  -0.061  22.951  0.00  0.00    -0.040 A 
ATOM     21  C   UNL     1       3.875  -1.336  23.480  0.00  0.00    +0.004 A 
ATOM     22  C   UNL     1       4.677   0.908  23.077  0.00  0.00    +0.004 A 
ATOM     23  C   UNL     1       5.068  -1.643  24.136  0.00  0.00    +0.000 A 
ATOM     24  C   UNL     1       5.868   0.601  23.734  0.00  0.00    +0.000 A 
ATOM     25  C   UNL     1       6.064  -0.675  24.263  0.00  0.00    +0.000 A 
ENDBRANCH  17  19
ENDBRANCH  14  17
ENDBRANCH   7  12
BRANCH   9   1
ATOM      1  O   UNL     1      -3.829  -2.610  25.766  0.00  0.00    -0.390 OA
ATOM     26  H   UNL     1      -4.284  -3.338  25.309  0.00  0.00    +0.210 HD
ENDBRANCH   9   1
BRANCH   3  11
ATOM     11  C   UNL     1      -3.551   1.338  23.138  0.00  0.00    +0.122 C 
BRANCH  11  13
ATOM      6  N   UNL     1      -5.434   2.920  26.015  0.00  0.00    -0.263 NA
ATOM     13  C   UNL     1      -3.874   2.241  24.299  0.00  0.00    -0.015 A 
ATOM     15  C   UNL     1      -2.968   3.203  24.732  0.00  0.00    +0.008 A 
ATOM     16  C   UNL     1      -5.082   2.141  24.968  0.00  0.00    +0.115 A 
ATOM     18  C   UNL     1      -3.295   4.024  25.806  0.00  0.00    +0.020 A 
ATOM     20  C   UNL     1      -4.529   3.844  26.408  0.00  0.00    +0.111 A 
ENDBRANCH  11  13
ENDBRANCH   3  11
TORSDOF 6
ENDMDL
MODEL 4
REMARK VINA RESULT:      -3.9      1.601      2.051
REMARK  Name = 26744096
REMARK  6 active torsions:
REMARK  status: ('A' for Active; 'I' for Inactive)
REMARK    1  A    between atoms: O_1  and  C_9
REMARK    2  A    between atoms: N_3  and  C_11
REMARK    3  A    between atoms: C_7  and  C_12
REMARK    4  A    between atoms: C_11  and  C_13
REMARK    5  A    between atoms: C_14  and  C_17
REMARK    6  A    between atoms: C_17  and  C_19
REMARK                            x       y       z     vdW  Elec       q    Type
REMARK                         _______ _______ _______ _____ _____    ______ ____
ROOT
ATOM      3  N   UNL     1      -4.544   1.853  24.787  0.00  0.00    -0.285 NA
ATOM      7  C   UNL     1      -3.840   3.014  24.209  0.00  0.00    +0.149 C 
ATOM      8  C   UNL     1      -4.423   4.235  24.945  0.00  0.00    +0.061 C 
ATOM      9  C   UNL     1      -5.480   3.663  25.881  0.00  0.00    +0.130 C 
ATOM     10  C   UNL     1      -5.847   2.340  25.237  0.00  0.00    +0.116 C 
ENDROOT
BRANCH   7  12
ATOM      2  O   UNL     1      -1.626   4.045  24.104  0.00  0.00    -0.336 OA
ATOM      4  N   UNL     1      -1.600   1.878  24.669  0.00  0.00    -0.194 NA
ATOM      5  N   UNL     1      -0.279   3.707  24.290  0.00  0.00    -0.061 NA
ATOM     12  C   UNL     1      -2.335   2.912  24.348  0.00  0.00    +0.245 A 
ATOM     14  C   UNL     1      -0.347   2.414  24.622  0.00  0.00    +0.176 A 
BRANCH  14  17
ATOM     17  C   UNL     1       0.855   1.624  24.913  0.00  0.00    +0.114 C 
BRANCH  17  19
ATOM     19  C   UNL     1       1.494   0.960  23.696  0.00  0.00    -0.040 A 
ATOM     21  C   UNL     1       2.821   1.237  23.369  0.00  0.00    +0.004 A 
ATOM     22  C   UNL     1       0.751   0.077  22.913  0.00  0.00    +0.004 A 
ATOM     23  C   UNL     1       3.406   0.630  22.257  0.00  0.00    +0.000 A 
ATOM     24  C   UNL     1       1.336  -0.529  21.801  0.00  0.00    +0.000 A 
ATOM     25  C   UNL     1       2.663  -0.253  21.473  0.00  0.00    +0.000 A 
ENDBRANCH  17  19
ENDBRANCH  14  17
ENDBRANCH   7  12
BRANCH   9   1
ATOM      1  O   UNL     1      -6.593   4.530  25.971  0.00  0.00    -0.390 OA
ATOM     26  H   UNL     1      -6.512   5.186  25.258  0.00  0.00    +0.210 HD
ENDBRANCH   9   1
BRANCH   3  11
ATOM     11  C   UNL     1      -4.668   0.735  23.860  0.00  0.00    +0.122 C 
BRANCH  11  13
ATOM      6  N   UNL     1      -3.182  -1.702  26.346  0.00  0.00    -0.263 NA
ATOM     13  C   UNL     1      -4.153  -0.548  24.458  0.00  0.00    -0.015 A 
ATOM     15  C   UNL     1      -4.157  -1.731  23.727  0.00  0.00    +0.008 A 
ATOM     16  C   UNL     1      -3.660  -0.586  25.751  0.00  0.00    +0.115 A 
ATOM     18  C   UNL     1      -3.674  -2.900  24.305  0.00  0.00    +0.020 A 
ATOM     20  C   UNL     1      -3.201  -2.834  25.606  0.00  0.00    +0.111 A 
ENDBRANCH  11  13
ENDBRANCH   3  11
TORSDOF 6
ENDMDL
MODEL 5
REMARK VINA RESULT:      -3.6      3.054      5.664
REMARK  Name = 26744096
REMARK  6 active torsions:
REMARK  status: ('A' for Active; 'I' for Inactive)
REMARK    1  A    between atoms: O_1  and  C_9
REMARK    2  A    between atoms: N_3  and  C_11
REMARK    3  A    between atoms: C_7  and  C_12
REMARK    4  A    between atoms: C_11  and  C_13
REMARK    5  A    between atoms: C_14  and  C_17
REMARK    6  A    between atoms: C_17  and  C_19
REMARK                            x       y       z     vdW  Elec       q    Type
REMARK                         _______ _______ _______ _____ _____    ______ ____
ROOT
ATOM      3  N   UNL     1      -3.669  -1.100  24.525  0.00  0.00    -0.285 NA
ATOM      7  C   UNL     1      -2.339  -1.538  24.993  0.00  0.00    +0.149 C 
ATOM      8  C   UNL     1      -2.116  -2.906  24.323  0.00  0.00    +0.061 C 
ATOM      9  C   UNL     1      -3.394  -3.173  23.538  0.00  0.00    +0.130 C 
ATOM     10  C   UNL     1      -4.429  -2.317  24.241  0.00  0.00    +0.116 C 
ENDROOT
BRANCH   7  12
ATOM      2  O   UNL     1      -0.252  -0.978  23.850  0.00  0.00    -0.336 OA
ATOM      4  N   UNL     1      -1.114   0.703  25.053  0.00  0.00    -0.194 NA
ATOM      5  N   UNL     1       0.625   0.104  23.693  0.00  0.00    -0.061 NA
ATOM     12  C   UNL     1      -1.248  -0.540  24.663  0.00  0.00    +0.245 A 
ATOM     14  C   UNL     1       0.048   1.055  24.432  0.00  0.00    +0.176 A 
BRANCH  14  17
ATOM     17  C   UNL     1       0.633   2.395  24.568  0.00  0.00    +0.114 C 
BRANCH  17  19
ATOM     19  C   UNL     1      -0.361   3.492  24.940  0.00  0.00    -0.040 A 
ATOM     21  C   UNL     1      -0.310   4.725  24.293  0.00  0.00    +0.004 A 
ATOM     22  C   UNL     1      -1.319   3.259  25.927  0.00  0.00    +0.004 A 
ATOM     23  C   UNL     1      -1.218   5.728  24.633  0.00  0.00    +0.000 A 
ATOM     24  C   UNL     1      -2.226   4.262  26.267  0.00  0.00    +0.000 A 
ATOM     25  C   UNL     1      -2.176   5.496  25.620  0.00  0.00    +0.000 A 
ENDBRANCH  17  19
ENDBRANCH  14  17
ENDBRANCH   7  12
BRANCH   9   1
ATOM      1  O   UNL     1      -3.731  -4.546  23.580  0.00  0.00    -0.390 OA
ATOM     26  H   UNL     1      -3.714  -4.822  24.513  0.00  0.00    +0.210 HD
ENDBRANCH   9   1
BRANCH   3  11
ATOM     11  C   UNL     1      -4.357  -0.235  25.475  0.00  0.00    +0.122 C 
BRANCH  11  13
ATOM      6  N   UNL     1      -5.413   3.391  25.208  0.00  0.00    -0.263 NA
ATOM     13  C   UNL     1      -4.474   1.177  24.963  0.00  0.00    -0.015 A 
ATOM     15  C   UNL     1      -3.794   1.584  23.820  0.00  0.00    +0.008 A 
ATOM     16  C   UNL     1      -5.263   2.110  25.615  0.00  0.00    +0.115 A 
ATOM     18  C   UNL     1      -3.924   2.893  23.371  0.00  0.00    +0.020 A 
ATOM     20  C   UNL     1      -4.738   3.750  24.093  0.00  0.00    +0.111 A 
ENDBRANCH  11  13
ENDBRANCH   3  11
TORSDOF 6
ENDMDL
MODEL 6
REMARK VINA RESULT:      -3.6      2.406      5.633
REMARK  Name = 26744096
REMARK  6 active torsions:
REMARK  status: ('A' for Active; 'I' for Inactive)
REMARK    1  A    between atoms: O_1  and  C_9
REMARK    2  A    between atoms: N_3  and  C_11
REMARK    3  A    between atoms: C_7  and  C_12
REMARK    4  A    between atoms: C_11  and  C_13
REMARK    5  A    between atoms: C_14  and  C_17
REMARK    6  A    between atoms: C_17  and  C_19
REMARK                            x       y       z     vdW  Elec       q    Type
REMARK                         _______ _______ _______ _____ _____    ______ ____
ROOT
ATOM      3  N   UNL     1      -1.277   3.538  25.242  0.00  0.00    -0.285 NA
ATOM      7  C   UNL     1      -2.515   3.857  25.979  0.00  0.00    +0.149 C 
ATOM      8  C   UNL     1      -2.828   5.319  25.610  0.00  0.00    +0.061 C 
ATOM      9  C   UNL     1      -1.684   5.749  24.701  0.00  0.00    +0.130 C 
ATOM     10  C   UNL     1      -0.560   4.800  25.070  0.00  0.00    +0.116 C 
ENDROOT
BRANCH   7  12
ATOM      2  O   UNL     1      -4.885   3.269  26.091  0.00  0.00    -0.336 OA
ATOM      4  N   UNL     1      -3.627   1.785  24.981  0.00  0.00    -0.194 NA
ATOM      5  N   UNL     1      -5.757   2.257  25.667  0.00  0.00    -0.061 NA
ATOM     12  C   UNL     1      -3.653   2.913  25.644  0.00  0.00    +0.245 A 
ATOM     14  C   UNL     1      -4.941   1.420  25.021  0.00  0.00    +0.176 A 
BRANCH  14  17
ATOM     17  C   UNL     1      -5.430   0.186  24.396  0.00  0.00    +0.114 C 
BRANCH  17  19
ATOM     19  C   UNL     1      -4.531  -1.032  24.596  0.00  0.00    -0.040 A 
ATOM     21  C   UNL     1      -3.851  -1.204  25.801  0.00  0.00    +0.004 A 
ATOM     22  C   UNL     1      -4.392  -1.970  23.574  0.00  0.00    +0.004 A 
ATOM     23  C   UNL     1      -3.030  -2.317  25.983  0.00  0.00    +0.000 A 
ATOM     24  C   UNL     1      -3.570  -3.083  23.756  0.00  0.00    +0.000 A 
ATOM     25  C   UNL     1      -2.890  -3.256  24.962  0.00  0.00    +0.000 A 
ENDBRANCH  17  19
ENDBRANCH  14  17
ENDBRANCH   7  12
BRANCH   9   1
ATOM      1  O   UNL     1      -1.333   7.098  24.940  0.00  0.00    -0.390 OA
ATOM     26  H   UNL     1      -0.696   7.360  24.253  0.00  0.00    +0.210 HD
ENDBRANCH   9   1
BRANCH   3  11
ATOM     11  C   UNL     1      -0.459   2.528  25.902  0.00  0.00    +0.122 C 
BRANCH  11  13
ATOM      6  N   UNL     1       1.292   0.663  23.112  0.00  0.00    -0.263 NA
ATOM     13  C   UNL     1      -0.069   1.419  24.961  0.00  0.00    -0.015 A 
ATOM     15  C   UNL     1      -0.669   0.167  25.040  0.00  0.00    +0.008 A 
ATOM     16  C   UNL     1       0.897   1.614  23.988  0.00  0.00    +0.115 A 
ATOM     18  C   UNL     1      -0.290  -0.836  24.156  0.00  0.00    +0.020 A 
ATOM     20  C   UNL     1       0.686  -0.541  23.218  0.00  0.00    +0.111 A 
ENDBRANCH  11  13
ENDBRANCH   3  11
TORSDOF 6
ENDMDL
MODEL 7
REMARK VINA RESULT:      -3.5     14.587     16.350
REMARK  Name = 26744096
REMARK  6 active torsions:
REMARK  status: ('A' for Active; 'I' for Inactive)
REMARK    1  A    between atoms: O_1  and  C_9
REMARK    2  A    between atoms: N_3  and  C_11
REMARK    3  A    between atoms: C_7  and  C_12
REMARK    4  A    between atoms: C_11  and  C_13
REMARK    5  A    between atoms: C_14  and  C_17
REMARK    6  A    between atoms: C_17  and  C_19
REMARK                            x       y       z     vdW  Elec       q    Type
REMARK                         _______ _______ _______ _____ _____    ______ ____
ROOT
ATOM      3  N   UNL     1      -7.935  -9.824  15.306  0.00  0.00    -0.285 NA
ATOM      7  C   UNL     1      -6.957  -9.385  16.321  0.00  0.00    +0.149 C 
ATOM      8  C   UNL     1      -7.501  -9.931  17.654  0.00  0.00    +0.061 C 
ATOM      9  C   UNL     1      -8.811 -10.620  17.293  0.00  0.00    +0.130 C 
ATOM     10  C   UNL     1      -9.218  -9.951  15.995  0.00  0.00    +0.116 C 
ENDROOT
BRANCH   7  12
ATOM      2  O   UNL     1      -4.784 -10.196  17.095  0.00  0.00    -0.336 OA
ATOM      4  N   UNL     1      -4.951 -10.010  14.869  0.00  0.00    -0.194 NA
ATOM      5  N   UNL     1      -3.548 -10.602  16.575  0.00  0.00    -0.061 NA
ATOM     12  C   UNL     1      -5.551  -9.866  16.023  0.00  0.00    +0.245 A 
ATOM     14  C   UNL     1      -3.726 -10.465  15.258  0.00  0.00    +0.176 A 
BRANCH  14  17
ATOM     17  C   UNL     1      -2.666 -10.781  14.294  0.00  0.00    +0.114 C 
BRANCH  17  19
ATOM     19  C   UNL     1      -2.927 -10.292  12.873  0.00  0.00    -0.040 A 
ATOM     21  C   UNL     1      -1.882  -9.768  12.113  0.00  0.00    +0.004 A 
ATOM     22  C   UNL     1      -4.212 -10.372  12.334  0.00  0.00    +0.004 A 
ATOM     23  C   UNL     1      -2.122  -9.322  10.813  0.00  0.00    +0.000 A 
ATOM     24  C   UNL     1      -4.451  -9.925  11.034  0.00  0.00    +0.000 A 
ATOM     25  C   UNL     1      -3.406  -9.400  10.274  0.00  0.00    +0.000 A 
ENDBRANCH  17  19
ENDBRANCH  14  17
ENDBRANCH   7  12
BRANCH   9   1
ATOM      1  O   UNL     1      -9.777 -10.428  18.308  0.00  0.00    -0.390 OA
ATOM     26  H   UNL     1      -9.732  -9.496  18.581  0.00  0.00    +0.210 HD
ENDBRANCH   9   1
BRANCH   3  11
ATOM     11  C   UNL     1      -8.014  -8.928  14.159  0.00  0.00    +0.122 C 
BRANCH  11  13
ATOM      6  N   UNL     1     -10.685 -10.227  11.813  0.00  0.00    -0.263 NA
ATOM     13  C   UNL     1      -8.662  -9.592  12.973  0.00  0.00    -0.015 A 
ATOM     15  C   UNL     1      -7.895 -10.172  11.968  0.00  0.00    +0.008 A 
ATOM     16  C   UNL     1     -10.040  -9.646  12.849  0.00  0.00    +0.115 A 
ATOM     18  C   UNL     1      -8.523 -10.780  10.886  0.00  0.00    +0.020 A 
ATOM     20  C   UNL     1      -9.908 -10.781  10.856  0.00  0.00    +0.111 A 
ENDBRANCH  11  13
ENDBRANCH   3  11
TORSDOF 6
ENDMDL
MODEL 8
REMARK VINA RESULT:      -2.5      2.244      6.903
REMARK  Name = 26744096
REMARK  6 active torsions:
REMARK  status: ('A' for Active; 'I' for Inactive)
REMARK    1  A    between atoms: O_1  and  C_9
REMARK    2  A    between atoms: N_3  and  C_11
REMARK    3  A    between atoms: C_7  and  C_12
REMARK    4  A    between atoms: C_11  and  C_13
REMARK    5  A    between atoms: C_14  and  C_17
REMARK    6  A    between atoms: C_17  and  C_19
REMARK                            x       y       z     vdW  Elec       q    Type
REMARK                         _______ _______ _______ _____ _____    ______ ____
ROOT
ATOM      3  N   UNL     1       1.457   1.545  23.677  0.00  0.00    -0.285 NA
ATOM      7  C   UNL     1       0.815   0.434  22.946  0.00  0.00    +0.149 C 
ATOM      8  C   UNL     1       1.943  -0.586  22.709  0.00  0.00    +0.061 C 
ATOM      9  C   UNL     1       3.190   0.060  23.300  0.00  0.00    +0.130 C 
ATOM     10  C   UNL     1       2.864   1.541  23.282  0.00  0.00    +0.116 C 
ENDROOT
BRANCH   7  12
ATOM      2  O   UNL     1      -0.074  -1.139  24.592  0.00  0.00    -0.336 OA
ATOM      4  N   UNL     1      -1.633   0.138  23.614  0.00  0.00    -0.194 NA
ATOM      5  N   UNL     1      -1.301  -1.523  25.151  0.00  0.00    -0.061 NA
ATOM     12  C   UNL     1      -0.360  -0.157  23.699  0.00  0.00    +0.245 A 
ATOM     14  C   UNL     1      -2.169  -0.724  24.524  0.00  0.00    +0.176 A 
BRANCH  14  17
ATOM     17  C   UNL     1      -3.610  -0.778  24.797  0.00  0.00    +0.114 C 
BRANCH  17  19
ATOM     19  C   UNL     1      -4.289   0.584  24.914  0.00  0.00    -0.040 A 
ATOM     21  C   UNL     1      -3.879   1.639  24.101  0.00  0.00    +0.004 A 
ATOM     22  C   UNL     1      -5.321   0.771  25.835  0.00  0.00    +0.004 A 
ATOM     23  C   UNL     1      -4.501   2.883  24.208  0.00  0.00    +0.000 A 
ATOM     24  C   UNL     1      -5.942   2.016  25.942  0.00  0.00    +0.000 A 
ATOM     25  C   UNL     1      -5.532   3.072  25.127  0.00  0.00    +0.000 A 
ENDBRANCH  17  19
ENDBRANCH  14  17
ENDBRANCH   7  12
BRANCH   9   1
ATOM      1  O   UNL     1       4.329  -0.237  22.516  0.00  0.00    -0.390 OA
ATOM     26  H   UNL     1       4.847   0.582  22.432  0.00  0.00    +0.210 HD
ENDBRANCH   9   1
BRANCH   3  11
ATOM     11  C   UNL     1       0.823   2.835  23.435  0.00  0.00    +0.122 C 
BRANCH  11  13
ATOM      6  N   UNL     1      -1.111   2.691  26.686  0.00  0.00    -0.263 NA
ATOM     13  C   UNL     1      -0.158   3.189  24.522  0.00  0.00    -0.015 A 
ATOM     15  C   UNL     1      -0.999   4.290  24.397  0.00  0.00    +0.008 A 
ATOM     16  C   UNL     1      -0.252   2.429  25.675  0.00  0.00    +0.115 A 
ATOM     18  C   UNL     1      -1.896   4.591  25.415  0.00  0.00    +0.020 A 
ATOM     20  C   UNL     1      -1.913   3.768  26.530  0.00  0.00    +0.111 A 
ENDBRANCH  11  13
ENDBRANCH   3  11
TORSDOF 6
ENDMDL
MODEL 9
REMARK VINA RESULT:      -2.0     15.609     17.509
REMARK  Name = 26744096
REMARK  6 active torsions:
REMARK  status: ('A' for Active; 'I' for Inactive)
REMARK    1  A    between atoms: O_1  and  C_9
REMARK    2  A    between atoms: N_3  and  C_11
REMARK    3  A    between atoms: C_7  and  C_12
REMARK    4  A    between atoms: C_11  and  C_13
REMARK    5  A    between atoms: C_14  and  C_17
REMARK    6  A    between atoms: C_17  and  C_19
REMARK                            x       y       z     vdW  Elec       q    Type
REMARK                         _______ _______ _______ _____ _____    ______ ____
ROOT
ATOM      3  N   UNL     1      -7.695 -10.466  10.984  0.00  0.00    -0.285 NA
ATOM      7  C   UNL     1      -6.949  -9.507  11.823  0.00  0.00    +0.149 C 
ATOM      8  C   UNL     1      -7.813  -9.333  13.085  0.00  0.00    +0.061 C 
ATOM      9  C   UNL     1      -9.045 -10.196  12.842  0.00  0.00    +0.130 C 
ATOM     10  C   UNL     1      -9.107 -10.310  11.332  0.00  0.00    +0.116 C 
ENDROOT
BRANCH   7  12
ATOM      2  O   UNL     1      -5.317 -10.403  13.406  0.00  0.00    -0.336 OA
ATOM      4  N   UNL     1      -4.494 -10.032  11.356  0.00  0.00    -0.194 NA
ATOM      5  N   UNL     1      -3.967 -10.779  13.453  0.00  0.00    -0.061 NA
ATOM     12  C   UNL     1      -5.543  -9.977  12.136  0.00  0.00    +0.245 A 
ATOM     14  C   UNL     1      -3.552 -10.531  12.208  0.00  0.00    +0.176 A 
BRANCH  14  17
ATOM     17  C   UNL     1      -2.168 -10.778  11.787  0.00  0.00    +0.114 C 
BRANCH  17  19
ATOM     19  C   UNL     1      -1.199  -9.634  12.071  0.00  0.00    -0.040 A 
ATOM     21  C   UNL     1      -1.058  -9.147  13.369  0.00  0.00    +0.004 A 
ATOM     22  C   UNL     1      -0.455  -9.076  11.031  0.00  0.00    +0.004 A 
ATOM     23  C   UNL     1      -0.172  -8.102  13.629  0.00  0.00    +0.000 A 
ATOM     24  C   UNL     1       0.430  -8.031  11.290  0.00  0.00    +0.000 A 
ATOM     25  C   UNL     1       0.572  -7.544  12.590  0.00  0.00    +0.000 A 
ENDBRANCH  17  19
ENDBRANCH  14  17
ENDBRANCH   7  12
BRANCH   9   1
ATOM      1  O   UNL     1     -10.203  -9.579  13.370  0.00  0.00    -0.390 OA
ATOM     26  H   UNL     1     -10.257  -9.816  14.312  0.00  0.00    +0.210 HD
ENDBRANCH   9   1
BRANCH   3  11
ATOM     11  C   UNL     1      -7.459 -10.286   9.557  0.00  0.00    +0.122 C 
BRANCH  11  13
ATOM      6  N   UNL     1      -7.476  -6.673   8.430  0.00  0.00    -0.263 NA
ATOM     13  C   UNL     1      -7.961  -8.953   9.069  0.00  0.00    -0.015 A 
ATOM     15  C   UNL     1      -9.311  -8.746   8.812  0.00  0.00    +0.008 A 
ATOM     16  C   UNL     1      -7.092  -7.894   8.864  0.00  0.00    +0.115 A 
ATOM     18  C   UNL     1      -9.745  -7.503   8.364  0.00  0.00    +0.020 A 
ATOM     20  C   UNL     1      -8.797  -6.508   8.191  0.00  0.00    +0.111 A 
ENDBRANCH  11  13
ENDBRANCH   3  11
TORSDOF 6
ENDMDL
