MODEL 1
REMARK VINA RESULT:       6.3      0.000      0.000
REMARK  Name = 26744682
REMARK  8 active torsions:
REMARK  status: ('A' for Active; 'I' for Inactive)
REMARK    1  A    between atoms: S_2  and  N_10
REMARK    2  A    between atoms: S_2  and  C_25
REMARK    3  A    between atoms: O_4  and  C_14
REMARK    4  A    between atoms: O_5  and  C_15
REMARK    5  A    between atoms: N_10  and  C_18
REMARK    6  A    between atoms: C_13  and  C_17
REMARK    7  A    between atoms: C_16  and  C_18
REMARK    8  A    between atoms: C_17  and  C_19
REMARK                            x       y       z     vdW  Elec       q    Type
REMARK                         _______ _______ _______ _____ _____    ______ ____
ROOT
ATOM      3  O   UNL     1      -4.535   0.134  24.142  0.00  0.00    -0.366 OA
ATOM     13  C   UNL     1      -5.053   0.071  25.483  0.00  0.00    +0.158 C 
ATOM     14  C   UNL     1      -5.362   1.506  25.873  0.00  0.00    +0.175 C 
ATOM     15  C   UNL     1      -5.835   2.083  24.555  0.00  0.00    +0.175 C 
ATOM     16  C   UNL     1      -4.902   1.406  23.558  0.00  0.00    +0.165 C 
ENDROOT
BRANCH  14   4
ATOM      4  O   UNL     1      -6.330   1.580  26.897  0.00  0.00    -0.387 OA
ATOM     35  H   UNL     1      -6.650   0.677  27.061  0.00  0.00    +0.210 HD
ENDBRANCH  14   4
BRANCH  15   5
ATOM      5  O   UNL     1      -7.168   1.655  24.277  0.00  0.00    -0.387 OA
ATOM     36  H   UNL     1      -7.183   1.329  23.361  0.00  0.00    +0.210 HD
ENDBRANCH  15   5
BRANCH  13  17
ATOM     17  C   UNL     1      -4.035  -0.595  26.392  0.00  0.00    +0.130 C 
BRANCH  17  19
ATOM      6  O   UNL     1      -3.761  -2.783  25.510  0.00  0.00    -0.276 OA
ATOM      9  N   UNL     1      -2.047  -1.270  25.098  0.00  0.00    -0.298 N 
ATOM     11  N   UNL     1       0.416  -0.521  23.772  0.00  0.00    -0.312 N 
ATOM     12  N   UNL     1       2.621   0.322  23.834  0.00  0.00    -0.240 NA
ATOM     19  C   UNL     1      -3.278  -1.654  25.628  0.00  0.00    +0.218 C 
ATOM     20  C   UNL     1      -1.251  -2.238  24.349  0.00  0.00    +0.126 C 
ATOM     21  C   UNL     1      -1.480   0.075  25.230  0.00  0.00    +0.126 C 
ATOM     22  C   UNL     1      -0.446  -1.576  23.232  0.00  0.00    +0.125 C 
ATOM     23  C   UNL     1       0.038   0.098  25.045  0.00  0.00    +0.125 C 
ATOM     24  C   UNL     1       1.580  -0.144  23.108  0.00  0.00    +0.121 A 
ATOM     26  C   UNL     1       1.593  -0.274  21.728  0.00  0.00    +0.043 A 
ATOM     29  C   UNL     1       2.749   0.097  21.050  0.00  0.00    +0.005 A 
ATOM     30  C   UNL     1       3.728   0.673  23.141  0.00  0.00    +0.113 A 
ATOM     31  C   UNL     1       3.840   0.582  21.763  0.00  0.00    +0.020 A 
ENDBRANCH  17  19
ENDBRANCH  13  17
BRANCH  16  18
ATOM     18  C   UNL     1      -3.622   2.191  23.310  0.00  0.00    +0.140 C 
BRANCH  18  10
ATOM     10  N   UNL     1      -3.955   3.596  23.015  0.00  0.00    -0.187 NA
ATOM     37  H   UNL     1      -3.691   3.873  22.059  0.00  0.00    +0.148 HD
BRANCH  10   2
ATOM      2  S   UNL     1      -3.727   4.796  24.200  0.00  0.00    +0.058 S 
ATOM      7  O   UNL     1      -4.868   4.809  25.096  0.00  0.00    -0.153 OA
ATOM      8  O   UNL     1      -3.293   6.020  23.554  0.00  0.00    -0.153 OA
BRANCH   2  25
ATOM      1 CL   UNL     1       1.202   2.549  27.371  0.00  0.00    -0.084 Cl
ATOM     25  C   UNL     1      -2.339   4.163  25.092  0.00  0.00    +0.105 A 
ATOM     27  C   UNL     1      -1.065   4.214  24.529  0.00  0.00    +0.030 A 
ATOM     28  C   UNL     1      -2.518   3.613  26.362  0.00  0.00    +0.030 A 
ATOM     32  C   UNL     1       0.031   3.714  25.233  0.00  0.00    +0.022 A 
ATOM     33  C   UNL     1      -1.423   3.114  27.067  0.00  0.00    +0.022 A 
ATOM     34  C   UNL     1      -0.149   3.164  26.502  0.00  0.00    +0.041 A 
ENDBRANCH   2  25
ENDBRANCH  10   2
ENDBRANCH  18  10
ENDBRANCH  16  18
TORSDOF 8
ENDMDL
MODEL 2
REMARK VINA RESULT:       6.3      2.751      5.299
REMARK  Name = 26744682
REMARK  8 active torsions:
REMARK  status: ('A' for Active; 'I' for Inactive)
REMARK    1  A    between atoms: S_2  and  N_10
REMARK    2  A    between atoms: S_2  and  C_25
REMARK    3  A    between atoms: O_4  and  C_14
REMARK    4  A    between atoms: O_5  and  C_15
REMARK    5  A    between atoms: N_10  and  C_18
REMARK    6  A    between atoms: C_13  and  C_17
REMARK    7  A    between atoms: C_16  and  C_18
REMARK    8  A    between atoms: C_17  and  C_19
REMARK                            x       y       z     vdW  Elec       q    Type
REMARK                         _______ _______ _______ _____ _____    ______ ____
ROOT
ATOM      3  O   UNL     1      -4.123   1.717  25.151  0.00  0.00    -0.366 OA
ATOM     13  C   UNL     1      -4.514   3.095  25.011  0.00  0.00    +0.158 C 
ATOM     14  C   UNL     1      -6.032   3.087  24.949  0.00  0.00    +0.175 C 
ATOM     15  C   UNL     1      -6.368   1.957  25.900  0.00  0.00    +0.175 C 
ATOM     16  C   UNL     1      -5.264   0.949  25.599  0.00  0.00    +0.165 C 
ENDROOT
BRANCH  14   4
ATOM      4  O   UNL     1      -6.584   4.327  25.337  0.00  0.00    -0.387 OA
ATOM     35  H   UNL     1      -6.620   4.339  26.308  0.00  0.00    +0.210 HD
ENDBRANCH  14   4
BRANCH  15   5
ATOM      5  O   UNL     1      -6.220   2.386  27.253  0.00  0.00    -0.387 OA
ATOM     36  H   UNL     1      -7.101   2.639  27.576  0.00  0.00    +0.210 HD
ENDBRANCH  15   5
BRANCH  13  17
ATOM     17  C   UNL     1      -3.864   3.686  23.773  0.00  0.00    +0.130 C 
BRANCH  17  19
ATOM      6  O   UNL     1      -2.222   2.667  22.393  0.00  0.00    -0.276 OA
ATOM      9  N   UNL     1      -1.706   2.876  24.649  0.00  0.00    -0.298 N 
ATOM     11  N   UNL     1       0.162   2.699  26.855  0.00  0.00    -0.312 N 
ATOM     12  N   UNL     1       0.734   1.957  29.022  0.00  0.00    -0.240 NA
ATOM     19  C   UNL     1      -2.526   3.032  23.532  0.00  0.00    +0.218 C 
ATOM     20  C   UNL     1      -0.397   2.247  24.500  0.00  0.00    +0.126 C 
ATOM     21  C   UNL     1      -2.065   3.319  25.999  0.00  0.00    +0.126 C 
ATOM     22  C   UNL     1       0.631   2.825  25.472  0.00  0.00    +0.125 C 
ATOM     23  C   UNL     1      -1.280   2.589  27.090  0.00  0.00    +0.125 C 
ATOM     24  C   UNL     1       1.068   2.651  27.911  0.00  0.00    +0.121 A 
ATOM     26  C   UNL     1       2.267   3.326  27.749  0.00  0.00    +0.043 A 
ATOM     29  C   UNL     1       3.183   3.286  28.795  0.00  0.00    +0.005 A 
ATOM     30  C   UNL     1       1.649   1.940  30.018  0.00  0.00    +0.113 A 
ATOM     31  C   UNL     1       2.875   2.583  29.954  0.00  0.00    +0.020 A 
ENDBRANCH  17  19
ENDBRANCH  13  17
BRANCH  16  18
ATOM     18  C   UNL     1      -5.633  -0.027  24.491  0.00  0.00    +0.140 C 
BRANCH  18  10
ATOM     10  N   UNL     1      -4.405  -0.614  23.923  0.00  0.00    -0.187 NA
ATOM     37  H   UNL     1      -4.508  -0.861  22.929  0.00  0.00    +0.148 HD
BRANCH  10   2
ATOM      2  S   UNL     1      -3.475  -1.703  24.843  0.00  0.00    +0.058 S 
ATOM      7  O   UNL     1      -3.748  -3.058  24.402  0.00  0.00    -0.153 OA
ATOM      8  O   UNL     1      -3.592  -1.356  26.246  0.00  0.00    -0.153 OA
BRANCH   2  25
ATOM      1 CL   UNL     1       2.360  -0.222  23.064  0.00  0.00    -0.084 Cl
ATOM     25  C   UNL     1      -1.832  -1.286  24.343  0.00  0.00    +0.105 A 
ATOM     27  C   UNL     1      -0.742  -1.715  25.099  0.00  0.00    +0.030 A 
ATOM     28  C   UNL     1      -1.625  -0.527  23.190  0.00  0.00    +0.030 A 
ATOM     32  C   UNL     1       0.555  -1.386  24.704  0.00  0.00    +0.022 A 
ATOM     33  C   UNL     1      -0.329  -0.199  22.794  0.00  0.00    +0.022 A 
ATOM     34  C   UNL     1       0.760  -0.627  23.552  0.00  0.00    +0.041 A 
ENDBRANCH   2  25
ENDBRANCH  10   2
ENDBRANCH  18  10
ENDBRANCH  16  18
TORSDOF 8
ENDMDL
MODEL 3
REMARK VINA RESULT:       6.4      1.969      2.482
REMARK  Name = 26744682
REMARK  8 active torsions:
REMARK  status: ('A' for Active; 'I' for Inactive)
REMARK    1  A    between atoms: S_2  and  N_10
REMARK    2  A    between atoms: S_2  and  C_25
REMARK    3  A    between atoms: O_4  and  C_14
REMARK    4  A    between atoms: O_5  and  C_15
REMARK    5  A    between atoms: N_10  and  C_18
REMARK    6  A    between atoms: C_13  and  C_17
REMARK    7  A    between atoms: C_16  and  C_18
REMARK    8  A    between atoms: C_17  and  C_19
REMARK                            x       y       z     vdW  Elec       q    Type
REMARK                         _______ _______ _______ _____ _____    ______ ____
ROOT
ATOM      3  O   UNL     1      -4.304   2.662  24.110  0.00  0.00    -0.366 OA
ATOM     13  C   UNL     1      -5.292   1.668  24.435  0.00  0.00    +0.158 C 
ATOM     14  C   UNL     1      -5.554   1.821  25.923  0.00  0.00    +0.175 C 
ATOM     15  C   UNL     1      -5.426   3.319  26.102  0.00  0.00    +0.175 C 
ATOM     16  C   UNL     1      -4.273   3.654  25.163  0.00  0.00    +0.165 C 
ENDROOT
BRANCH  14   4
ATOM      4  O   UNL     1      -6.821   1.319  26.292  0.00  0.00    -0.387 OA
ATOM     35  H   UNL     1      -6.754   1.006  27.210  0.00  0.00    +0.210 HD
ENDBRANCH  14   4
BRANCH  15   5
ATOM      5  O   UNL     1      -6.597   3.978  25.618  0.00  0.00    -0.387 OA
ATOM     36  H   UNL     1      -6.944   4.523  26.344  0.00  0.00    +0.210 HD
ENDBRANCH  15   5
BRANCH  13  17
ATOM     17  C   UNL     1      -4.776   0.292  24.052  0.00  0.00    +0.130 C 
BRANCH  17  19
ATOM      6  O   UNL     1      -4.102  -0.639  26.130  0.00  0.00    -0.276 OA
ATOM      9  N   UNL     1      -2.407  -0.010  24.670  0.00  0.00    -0.298 N 
ATOM     11  N   UNL     1       0.382   0.066  23.898  0.00  0.00    -0.312 N 
ATOM     12  N   UNL     1       2.297   1.250  23.185  0.00  0.00    -0.240 NA
ATOM     19  C   UNL     1      -3.740  -0.165  25.050  0.00  0.00    +0.218 C 
ATOM     20  C   UNL     1      -1.345  -0.424  25.582  0.00  0.00    +0.126 C 
ATOM     21  C   UNL     1      -1.980   0.544  23.382  0.00  0.00    +0.126 C 
ATOM     22  C   UNL     1      -0.118  -0.944  24.835  0.00  0.00    +0.125 C 
ATOM     23  C   UNL     1      -0.551   1.087  23.417  0.00  0.00    +0.125 C 
ATOM     24  C   UNL     1       1.718   0.071  23.506  0.00  0.00    +0.121 A 
ATOM     26  C   UNL     1       2.374  -1.149  23.471  0.00  0.00    +0.043 A 
ATOM     29  C   UNL     1       3.709  -1.160  23.082  0.00  0.00    +0.005 A 
ATOM     30  C   UNL     1       3.596   1.201  22.812  0.00  0.00    +0.113 A 
ATOM     31  C   UNL     1       4.338   0.033  22.744  0.00  0.00    +0.020 A 
ENDBRANCH  17  19
ENDBRANCH  13  17
BRANCH  16  18
ATOM     18  C   UNL     1      -2.911   3.573  25.838  0.00  0.00    +0.140 C 
BRANCH  18  10
ATOM     10  N   UNL     1      -1.881   3.252  24.833  0.00  0.00    -0.187 NA
ATOM     37  H   UNL     1      -1.849   2.249  24.605  0.00  0.00    +0.148 HD
BRANCH  10   2
ATOM      2  S   UNL     1      -0.366   4.026  24.886  0.00  0.00    +0.058 S 
ATOM      7  O   UNL     1      -0.561   5.452  25.067  0.00  0.00    -0.153 OA
ATOM      8  O   UNL     1       0.453   3.534  23.795  0.00  0.00    -0.153 OA
BRANCH   2  25
ATOM      1 CL   UNL     1       2.067   1.716  30.192  0.00  0.00    -0.084 Cl
ATOM     25  C   UNL     1       0.320   3.376  26.380  0.00  0.00    +0.105 A 
ATOM     27  C   UNL     1       1.552   3.837  26.841  0.00  0.00    +0.030 A 
ATOM     28  C   UNL     1      -0.373   2.400  27.098  0.00  0.00    +0.030 A 
ATOM     32  C   UNL     1       2.093   3.323  28.020  0.00  0.00    +0.022 A 
ATOM     33  C   UNL     1       0.168   1.887  28.277  0.00  0.00    +0.022 A 
ATOM     34  C   UNL     1       1.400   2.348  28.737  0.00  0.00    +0.041 A 
ENDBRANCH   2  25
ENDBRANCH  10   2
ENDBRANCH  18  10
ENDBRANCH  16  18
TORSDOF 8
ENDMDL
MODEL 4
REMARK VINA RESULT:       6.5      2.124      4.569
REMARK  Name = 26744682
REMARK  8 active torsions:
REMARK  status: ('A' for Active; 'I' for Inactive)
REMARK    1  A    between atoms: S_2  and  N_10
REMARK    2  A    between atoms: S_2  and  C_25
REMARK    3  A    between atoms: O_4  and  C_14
REMARK    4  A    between atoms: O_5  and  C_15
REMARK    5  A    between atoms: N_10  and  C_18
REMARK    6  A    between atoms: C_13  and  C_17
REMARK    7  A    between atoms: C_16  and  C_18
REMARK    8  A    between atoms: C_17  and  C_19
REMARK                            x       y       z     vdW  Elec       q    Type
REMARK                         _______ _______ _______ _____ _____    ______ ____
ROOT
ATOM      3  O   UNL     1      -3.597   2.206  25.963  0.00  0.00    -0.366 OA
ATOM     13  C   UNL     1      -4.072   3.477  26.444  0.00  0.00    +0.158 C 
ATOM     14  C   UNL     1      -5.128   3.924  25.449  0.00  0.00    +0.175 C 
ATOM     15  C   UNL     1      -5.765   2.604  25.069  0.00  0.00    +0.175 C 
ATOM     16  C   UNL     1      -4.561   1.670  25.027  0.00  0.00    +0.165 C 
ENDROOT
BRANCH  14   4
ATOM      4  O   UNL     1      -6.038   4.841  26.019  0.00  0.00    -0.387 OA
ATOM     35  H   UNL     1      -6.502   5.283  25.288  0.00  0.00    +0.210 HD
ENDBRANCH  14   4
BRANCH  15   5
ATOM      5  O   UNL     1      -6.637   2.157  26.107  0.00  0.00    -0.387 OA
ATOM     36  H   UNL     1      -6.401   2.643  26.914  0.00  0.00    +0.210 HD
ENDBRANCH  15   5
BRANCH  13  17
ATOM     17  C   UNL     1      -2.907   4.444  26.563  0.00  0.00    +0.130 C 
BRANCH  17  19
ATOM      6  O   UNL     1      -2.646   5.671  24.546  0.00  0.00    -0.276 OA
ATOM      9  N   UNL     1      -1.362   3.747  24.771  0.00  0.00    -0.298 N 
ATOM     11  N   UNL     1       0.749   1.982  23.870  0.00  0.00    -0.312 N 
ATOM     12  N   UNL     1       1.543  -0.169  23.305  0.00  0.00    -0.240 NA
ATOM     19  C   UNL     1      -2.299   4.686  25.203  0.00  0.00    +0.218 C 
ATOM     20  C   UNL     1      -0.731   3.908  23.465  0.00  0.00    +0.126 C 
ATOM     21  C   UNL     1      -0.943   2.584  25.558  0.00  0.00    +0.126 C 
ATOM     22  C   UNL     1       0.706   3.387  23.454  0.00  0.00    +0.125 C 
ATOM     23  C   UNL     1      -0.347   1.470  24.696  0.00  0.00    +0.125 C 
ATOM     24  C   UNL     1       1.788   1.152  23.459  0.00  0.00    +0.121 A 
ATOM     26  C   UNL     1       3.021   1.743  23.232  0.00  0.00    +0.043 A 
ATOM     29  C   UNL     1       4.069   0.926  22.820  0.00  0.00    +0.005 A 
ATOM     30  C   UNL     1       2.585  -0.932  22.904  0.00  0.00    +0.113 A 
ATOM     31  C   UNL     1       3.854  -0.437  22.652  0.00  0.00    +0.020 A 
ENDBRANCH  17  19
ENDBRANCH  13  17
BRANCH  16  18
ATOM     18  C   UNL     1      -3.897   1.613  23.658  0.00  0.00    +0.140 C 
BRANCH  18  10
ATOM     10  N   UNL     1      -3.977   0.239  23.129  0.00  0.00    -0.187 NA
ATOM     37  H   UNL     1      -4.450   0.195  22.215  0.00  0.00    +0.148 HD
BRANCH  10   2
ATOM      2  S   UNL     1      -4.309  -1.062  24.175  0.00  0.00    +0.058 S 
ATOM      7  O   UNL     1      -4.934  -2.134  23.424  0.00  0.00    -0.153 OA
ATOM      8  O   UNL     1      -4.937  -0.551  25.379  0.00  0.00    -0.153 OA
BRANCH   2  25
ATOM      1 CL   UNL     1       1.468  -2.929  25.772  0.00  0.00    -0.084 Cl
ATOM     25  C   UNL     1      -2.682  -1.587  24.625  0.00  0.00    +0.105 A 
ATOM     27  C   UNL     1      -2.020  -0.974  25.688  0.00  0.00    +0.030 A 
ATOM     28  C   UNL     1      -2.061  -2.616  23.916  0.00  0.00    +0.030 A 
ATOM     32  C   UNL     1      -0.736  -1.389  26.042  0.00  0.00    +0.022 A 
ATOM     33  C   UNL     1      -0.777  -3.031  24.271  0.00  0.00    +0.022 A 
ATOM     34  C   UNL     1      -0.115  -2.417  25.333  0.00  0.00    +0.041 A 
ENDBRANCH   2  25
ENDBRANCH  10   2
ENDBRANCH  18  10
ENDBRANCH  16  18
TORSDOF 8
ENDMDL
MODEL 5
REMARK VINA RESULT:       6.7      2.394      4.458
REMARK  Name = 26744682
REMARK  8 active torsions:
REMARK  status: ('A' for Active; 'I' for Inactive)
REMARK    1  A    between atoms: S_2  and  N_10
REMARK    2  A    between atoms: S_2  and  C_25
REMARK    3  A    between atoms: O_4  and  C_14
REMARK    4  A    between atoms: O_5  and  C_15
REMARK    5  A    between atoms: N_10  and  C_18
REMARK    6  A    between atoms: C_13  and  C_17
REMARK    7  A    between atoms: C_16  and  C_18
REMARK    8  A    between atoms: C_17  and  C_19
REMARK                            x       y       z     vdW  Elec       q    Type
REMARK                         _______ _______ _______ _____ _____    ______ ____
ROOT
ATOM      3  O   UNL     1      -3.003   2.378  25.195  0.00  0.00    -0.366 OA
ATOM     13  C   UNL     1      -1.958   3.000  24.426  0.00  0.00    +0.158 C 
ATOM     14  C   UNL     1      -1.963   4.463  24.835  0.00  0.00    +0.175 C 
ATOM     15  C   UNL     1      -2.315   4.366  26.305  0.00  0.00    +0.175 C 
ATOM     16  C   UNL     1      -3.336   3.234  26.313  0.00  0.00    +0.165 C 
ENDROOT
BRANCH  14   4
ATOM      4  O   UNL     1      -0.717   5.083  24.597  0.00  0.00    -0.387 OA
ATOM     35  H   UNL     1      -0.203   4.492  24.021  0.00  0.00    +0.210 HD
ENDBRANCH  14   4
BRANCH  15   5
ATOM      5  O   UNL     1      -1.179   3.945  27.060  0.00  0.00    -0.387 OA
ATOM     36  H   UNL     1      -1.495   3.325  27.738  0.00  0.00    +0.210 HD
ENDBRANCH  15   5
BRANCH  13  17
ATOM     17  C   UNL     1      -2.219   2.788  22.945  0.00  0.00    +0.130 C 
BRANCH  17  19
ATOM      6  O   UNL     1      -2.496   0.638  21.975  0.00  0.00    -0.276 OA
ATOM      9  N   UNL     1      -0.385   1.143  22.805  0.00  0.00    -0.298 N 
ATOM     11  N   UNL     1       2.425   0.534  23.140  0.00  0.00    -0.312 N 
ATOM     12  N   UNL     1       4.334   0.274  24.507  0.00  0.00    -0.240 NA
ATOM     19  C   UNL     1      -1.723   1.425  22.526  0.00  0.00    +0.218 C 
ATOM     20  C   UNL     1       0.169  -0.155  22.435  0.00  0.00    +0.126 C 
ATOM     21  C   UNL     1       0.534   2.085  23.451  0.00  0.00    +0.126 C 
ATOM     22  C   UNL     1       1.645  -0.059  22.051  0.00  0.00    +0.125 C 
ATOM     23  C   UNL     1       1.729   1.389  24.105  0.00  0.00    +0.125 C 
ATOM     24  C   UNL     1       3.785   0.263  23.271  0.00  0.00    +0.121 A 
ATOM     26  C   UNL     1       4.492  -0.005  22.110  0.00  0.00    +0.043 A 
ATOM     29  C   UNL     1       5.851  -0.279  22.225  0.00  0.00    +0.005 A 
ATOM     30  C   UNL     1       5.656   0.002  24.579  0.00  0.00    +0.113 A 
ATOM     31  C   UNL     1       6.451  -0.277  23.479  0.00  0.00    +0.020 A 
ENDBRANCH  17  19
ENDBRANCH  13  17
BRANCH  16  18
ATOM     18  C   UNL     1      -4.766   3.718  26.120  0.00  0.00    +0.140 C 
BRANCH  18  10
ATOM     10  N   UNL     1      -5.403   2.950  25.034  0.00  0.00    -0.187 NA
ATOM     37  H   UNL     1      -5.829   3.556  24.319  0.00  0.00    +0.148 HD
BRANCH  10   2
ATOM      2  S   UNL     1      -6.277   1.533  25.389  0.00  0.00    +0.058 S 
ATOM      7  O   UNL     1      -7.317   1.350  24.394  0.00  0.00    -0.153 OA
ATOM      8  O   UNL     1      -6.607   1.523  26.801  0.00  0.00    -0.153 OA
BRANCH   2  25
ATOM      1 CL   UNL     1      -1.932  -2.908  24.492  0.00  0.00    -0.084 Cl
ATOM     25  C   UNL     1      -5.054   0.282  25.136  0.00  0.00    +0.105 A 
ATOM     27  C   UNL     1      -4.956  -0.359  23.902  0.00  0.00    +0.030 A 
ATOM     28  C   UNL     1      -4.185  -0.063  26.172  0.00  0.00    +0.030 A 
ATOM     32  C   UNL     1      -3.991  -1.346  23.702  0.00  0.00    +0.022 A 
ATOM     33  C   UNL     1      -3.219  -1.050  25.972  0.00  0.00    +0.022 A 
ATOM     34  C   UNL     1      -3.123  -1.691  24.738  0.00  0.00    +0.041 A 
ENDBRANCH   2  25
ENDBRANCH  10   2
ENDBRANCH  18  10
ENDBRANCH  16  18
TORSDOF 8
ENDMDL
MODEL 6
REMARK VINA RESULT:       7.3      2.911      6.380
REMARK  Name = 26744682
REMARK  8 active torsions:
REMARK  status: ('A' for Active; 'I' for Inactive)
REMARK    1  A    between atoms: S_2  and  N_10
REMARK    2  A    between atoms: S_2  and  C_25
REMARK    3  A    between atoms: O_4  and  C_14
REMARK    4  A    between atoms: O_5  and  C_15
REMARK    5  A    between atoms: N_10  and  C_18
REMARK    6  A    between atoms: C_13  and  C_17
REMARK    7  A    between atoms: C_16  and  C_18
REMARK    8  A    between atoms: C_17  and  C_19
REMARK                            x       y       z     vdW  Elec       q    Type
REMARK                         _______ _______ _______ _____ _____    ______ ____
ROOT
ATOM      3  O   UNL     1      -1.003   4.513  23.927  0.00  0.00    -0.366 OA
ATOM     13  C   UNL     1      -2.022   4.703  24.925  0.00  0.00    +0.158 C 
ATOM     14  C   UNL     1      -1.929   3.498  25.844  0.00  0.00    +0.175 C 
ATOM     15  C   UNL     1      -0.436   3.240  25.855  0.00  0.00    +0.175 C 
ATOM     16  C   UNL     1      -0.051   3.536  24.410  0.00  0.00    +0.165 C 
ENDROOT
BRANCH  14   4
ATOM      4  O   UNL     1      -2.461   3.765  27.123  0.00  0.00    -0.387 OA
ATOM     35  H   UNL     1      -3.210   3.161  27.258  0.00  0.00    +0.210 HD
ENDBRANCH  14   4
BRANCH  15   5
ATOM      5  O   UNL     1       0.224   4.189  26.693  0.00  0.00    -0.387 OA
ATOM     36  H   UNL     1      -0.322   4.993  26.708  0.00  0.00    +0.210 HD
ENDBRANCH  15   5
BRANCH  13  17
ATOM     17  C   UNL     1      -3.375   4.844  24.251  0.00  0.00    +0.130 C 
BRANCH  17  19
ATOM      6  O   UNL     1      -5.324   4.438  25.546  0.00  0.00    -0.276 OA
ATOM      9  N   UNL     1      -4.164   2.571  24.791  0.00  0.00    -0.298 N 
ATOM     11  N   UNL     1      -3.932  -0.289  24.401  0.00  0.00    -0.312 N 
ATOM     12  N   UNL     1      -2.722  -2.308  24.590  0.00  0.00    -0.240 NA
ATOM     19  C   UNL     1      -4.381   3.942  24.923  0.00  0.00    +0.218 C 
ATOM     20  C   UNL     1      -5.091   1.632  25.417  0.00  0.00    +0.126 C 
ATOM     21  C   UNL     1      -3.050   1.985  24.041  0.00  0.00    +0.126 C 
ATOM     22  C   UNL     1      -5.238   0.346  24.605  0.00  0.00    +0.125 C 
ATOM     23  C   UNL     1      -2.735   0.552  24.474  0.00  0.00    +0.125 C 
ATOM     24  C   UNL     1      -3.835  -1.660  24.179  0.00  0.00    +0.121 A 
ATOM     26  C   UNL     1      -4.902  -2.276  23.544  0.00  0.00    +0.043 A 
ATOM     29  C   UNL     1      -4.820  -3.646  23.316  0.00  0.00    +0.005 A 
ATOM     30  C   UNL     1      -2.678  -3.638  24.351  0.00  0.00    +0.113 A 
ATOM     31  C   UNL     1      -3.690  -4.346  23.724  0.00  0.00    +0.020 A 
ENDBRANCH  17  19
ENDBRANCH  13  17
BRANCH  16  18
ATOM     18  C   UNL     1      -0.139   2.314  23.507  0.00  0.00    +0.140 C 
BRANCH  18  10
ATOM     10  N   UNL     1       0.514   1.168  24.165  0.00  0.00    -0.187 NA
ATOM     37  H   UNL     1       1.244   1.457  24.831  0.00  0.00    +0.148 HD
BRANCH  10   2
ATOM      2  S   UNL     1       0.870  -0.240  23.276  0.00  0.00    +0.058 S 
ATOM      7  O   UNL     1       0.425  -0.066  21.906  0.00  0.00    -0.153 OA
ATOM      8  O   UNL     1       0.447  -1.398  24.039  0.00  0.00    -0.153 OA
BRANCH   2  25
ATOM      1 CL   UNL     1       7.147  -0.221  23.298  0.00  0.00    -0.084 Cl
ATOM     25  C   UNL     1       2.637  -0.234  23.282  0.00  0.00    +0.105 A 
ATOM     27  C   UNL     1       3.333   0.876  22.805  0.00  0.00    +0.030 A 
ATOM     28  C   UNL     1       3.336  -1.341  23.764  0.00  0.00    +0.030 A 
ATOM     32  C   UNL     1       4.728   0.880  22.809  0.00  0.00    +0.022 A 
ATOM     33  C   UNL     1       4.731  -1.337  23.769  0.00  0.00    +0.022 A 
ATOM     34  C   UNL     1       5.426  -0.227  23.292  0.00  0.00    +0.041 A 
ENDBRANCH   2  25
ENDBRANCH  10   2
ENDBRANCH  18  10
ENDBRANCH  16  18
TORSDOF 8
ENDMDL
MODEL 7
REMARK VINA RESULT:       7.4      2.532      3.097
REMARK  Name = 26744682
REMARK  8 active torsions:
REMARK  status: ('A' for Active; 'I' for Inactive)
REMARK    1  A    between atoms: S_2  and  N_10
REMARK    2  A    between atoms: S_2  and  C_25
REMARK    3  A    between atoms: O_4  and  C_14
REMARK    4  A    between atoms: O_5  and  C_15
REMARK    5  A    between atoms: N_10  and  C_18
REMARK    6  A    between atoms: C_13  and  C_17
REMARK    7  A    between atoms: C_16  and  C_18
REMARK    8  A    between atoms: C_17  and  C_19
REMARK                            x       y       z     vdW  Elec       q    Type
REMARK                         _______ _______ _______ _____ _____    ______ ____
ROOT
ATOM      3  O   UNL     1      -3.714  -0.342  22.720  0.00  0.00    -0.366 OA
ATOM     13  C   UNL     1      -4.039  -1.144  23.869  0.00  0.00    +0.158 C 
ATOM     14  C   UNL     1      -3.658  -0.306  25.077  0.00  0.00    +0.175 C 
ATOM     15  C   UNL     1      -4.000   1.089  24.598  0.00  0.00    +0.175 C 
ATOM     16  C   UNL     1      -3.575   1.036  23.135  0.00  0.00    +0.165 C 
ENDROOT
BRANCH  14   4
ATOM      4  O   UNL     1      -4.368  -0.691  26.235  0.00  0.00    -0.387 OA
ATOM     35  H   UNL     1      -3.967  -0.227  26.989  0.00  0.00    +0.210 HD
ENDBRANCH  14   4
BRANCH  15   5
ATOM      5  O   UNL     1      -5.412   1.296  24.643  0.00  0.00    -0.387 OA
ATOM     36  H   UNL     1      -5.626   1.650  25.522  0.00  0.00    +0.210 HD
ENDBRANCH  15   5
BRANCH  13  17
ATOM     17  C   UNL     1      -3.297  -2.467  23.794  0.00  0.00    +0.130 C 
BRANCH  17  19
ATOM      6  O   UNL     1      -2.530  -3.054  25.964  0.00  0.00    -0.276 OA
ATOM      9  N   UNL     1      -1.009  -1.977  24.575  0.00  0.00    -0.298 N 
ATOM     11  N   UNL     1       1.667  -1.050  23.974  0.00  0.00    -0.312 N 
ATOM     12  N   UNL     1       3.163   0.652  23.308  0.00  0.00    -0.240 NA
ATOM     19  C   UNL     1      -2.252  -2.532  24.881  0.00  0.00    +0.218 C 
ATOM     20  C   UNL     1       0.054  -1.997  25.575  0.00  0.00    +0.126 C 
ATOM     21  C   UNL     1      -0.678  -1.368  23.284  0.00  0.00    +0.126 C 
ATOM     22  C   UNL     1       1.437  -2.129  24.938  0.00  0.00    +0.125 C 
ATOM     23  C   UNL     1       0.501  -0.398  23.373  0.00  0.00    +0.125 C 
ATOM     24  C   UNL     1       2.960  -0.636  23.665  0.00  0.00    +0.121 A 
ATOM     26  C   UNL     1       3.966  -1.586  23.746  0.00  0.00    +0.043 A 
ATOM     29  C   UNL     1       5.263  -1.188  23.442  0.00  0.00    +0.005 A 
ATOM     30  C   UNL     1       4.436   1.003  23.020  0.00  0.00    +0.113 A 
ATOM     31  C   UNL     1       5.510   0.130  23.071  0.00  0.00    +0.020 A 
ENDBRANCH  17  19
ENDBRANCH  13  17
BRANCH  16  18
ATOM     18  C   UNL     1      -2.124   1.443  22.920  0.00  0.00    +0.140 C 
BRANCH  18  10
ATOM     10  N   UNL     1      -1.417   1.447  24.213  0.00  0.00    -0.187 NA
ATOM     37  H   UNL     1      -1.753   0.711  24.850  0.00  0.00    +0.148 HD
BRANCH  10   2
ATOM      2  S   UNL     1      -1.019   2.922  24.965  0.00  0.00    +0.058 S 
ATOM      7  O   UNL     1      -0.236   3.730  24.050  0.00  0.00    -0.153 OA
ATOM      8  O   UNL     1      -0.528   2.651  26.303  0.00  0.00    -0.153 OA
BRANCH   2  25
ATOM      1 CL   UNL     1      -6.658   5.607  25.592  0.00  0.00    -0.084 Cl
ATOM     25  C   UNL     1      -2.606   3.678  25.141  0.00  0.00    +0.105 A 
ATOM     27  C   UNL     1      -3.248   4.220  24.029  0.00  0.00    +0.030 A 
ATOM     28  C   UNL     1      -3.218   3.732  26.394  0.00  0.00    +0.030 A 
ATOM     32  C   UNL     1      -4.501   4.818  24.168  0.00  0.00    +0.022 A 
ATOM     33  C   UNL     1      -4.472   4.328  26.533  0.00  0.00    +0.022 A 
ATOM     34  C   UNL     1      -5.112   4.871  25.421  0.00  0.00    +0.041 A 
ENDBRANCH   2  25
ENDBRANCH  10   2
ENDBRANCH  18  10
ENDBRANCH  16  18
TORSDOF 8
ENDMDL
MODEL 8
REMARK VINA RESULT:       7.4      2.033      3.674
REMARK  Name = 26744682
REMARK  8 active torsions:
REMARK  status: ('A' for Active; 'I' for Inactive)
REMARK    1  A    between atoms: S_2  and  N_10
REMARK    2  A    between atoms: S_2  and  C_25
REMARK    3  A    between atoms: O_4  and  C_14
REMARK    4  A    between atoms: O_5  and  C_15
REMARK    5  A    between atoms: N_10  and  C_18
REMARK    6  A    between atoms: C_13  and  C_17
REMARK    7  A    between atoms: C_16  and  C_18
REMARK    8  A    between atoms: C_17  and  C_19
REMARK                            x       y       z     vdW  Elec       q    Type
REMARK                         _______ _______ _______ _____ _____    ______ ____
ROOT
ATOM      3  O   UNL     1      -4.466  -0.761  23.884  0.00  0.00    -0.366 OA
ATOM     13  C   UNL     1      -3.161  -1.124  23.400  0.00  0.00    +0.158 C 
ATOM     14  C   UNL     1      -2.288  -1.262  24.635  0.00  0.00    +0.175 C 
ATOM     15  C   UNL     1      -3.269  -1.833  25.638  0.00  0.00    +0.175 C 
ATOM     16  C   UNL     1      -4.550  -1.083  25.292  0.00  0.00    +0.165 C 
ENDROOT
BRANCH  14   4
ATOM      4  O   UNL     1      -1.172  -2.096  24.405  0.00  0.00    -0.387 OA
ATOM     35  H   UNL     1      -0.928  -2.002  23.469  0.00  0.00    +0.210 HD
ENDBRANCH  14   4
BRANCH  15   5
ATOM      5  O   UNL     1      -3.486  -3.221  25.383  0.00  0.00    -0.387 OA
ATOM     36  H   UNL     1      -3.289  -3.378  24.444  0.00  0.00    +0.210 HD
ENDBRANCH  15   5
BRANCH  13  17
ATOM     17  C   UNL     1      -2.666  -0.068  22.427  0.00  0.00    +0.130 C 
BRANCH  17  19
ATOM      6  O   UNL     1      -2.363   1.861  23.779  0.00  0.00    -0.276 OA
ATOM      9  N   UNL     1      -0.437   0.774  23.066  0.00  0.00    -0.298 N 
ATOM     11  N   UNL     1       2.432   0.388  23.127  0.00  0.00    -0.312 N 
ATOM     12  N   UNL     1       4.509   0.162  22.026  0.00  0.00    -0.240 NA
ATOM     19  C   UNL     1      -1.818   0.946  23.156  0.00  0.00    +0.218 C 
ATOM     20  C   UNL     1       0.452   1.716  23.740  0.00  0.00    +0.126 C 
ATOM     21  C   UNL     1       0.207  -0.320  22.334  0.00  0.00    +0.126 C 
ATOM     22  C   UNL     1       1.731   1.043  24.234  0.00  0.00    +0.125 C 
ATOM     23  C   UNL     1       1.653  -0.002  21.949  0.00  0.00    +0.125 C 
ATOM     24  C   UNL     1       3.807   0.175  23.182  0.00  0.00    +0.121 A 
ATOM     26  C   UNL     1       4.370  -0.010  24.434  0.00  0.00    +0.043 A 
ATOM     29  C   UNL     1       5.742  -0.223  24.506  0.00  0.00    +0.005 A 
ATOM     30  C   UNL     1       5.841  -0.047  22.135  0.00  0.00    +0.113 A 
ATOM     31  C   UNL     1       6.498  -0.244  23.338  0.00  0.00    +0.020 A 
ENDBRANCH  17  19
ENDBRANCH  13  17
BRANCH  16  18
ATOM     18  C   UNL     1      -4.703   0.222  26.060  0.00  0.00    +0.140 C 
BRANCH  18  10
ATOM     10  N   UNL     1      -5.343   1.230  25.195  0.00  0.00    -0.187 NA
ATOM     37  H   UNL     1      -4.992   1.203  24.228  0.00  0.00    +0.148 HD
BRANCH  10   2
ATOM      2  S   UNL     1      -5.671   2.789  25.797  0.00  0.00    +0.058 S 
ATOM      7  O   UNL     1      -5.868   2.717  27.232  0.00  0.00    -0.153 OA
ATOM      8  O   UNL     1      -6.669   3.419  24.955  0.00  0.00    -0.153 OA
BRANCH   2  25
ATOM      1 CL   UNL     1      -0.237   5.745  24.733  0.00  0.00    -0.084 Cl
ATOM     25  C   UNL     1      -4.141   3.621  25.497  0.00  0.00    +0.105 A 
ATOM     27  C   UNL     1      -3.953   4.329  24.311  0.00  0.00    +0.030 A 
ATOM     28  C   UNL     1      -3.121   3.569  26.448  0.00  0.00    +0.030 A 
ATOM     32  C   UNL     1      -2.745   4.986  24.074  0.00  0.00    +0.022 A 
ATOM     33  C   UNL     1      -1.913   4.226  26.211  0.00  0.00    +0.022 A 
ATOM     34  C   UNL     1      -1.726   4.934  25.025  0.00  0.00    +0.041 A 
ENDBRANCH   2  25
ENDBRANCH  10   2
ENDBRANCH  18  10
ENDBRANCH  16  18
TORSDOF 8
ENDMDL
MODEL 9
REMARK VINA RESULT:       9.4      2.200      4.190
REMARK  Name = 26744682
REMARK  8 active torsions:
REMARK  status: ('A' for Active; 'I' for Inactive)
REMARK    1  A    between atoms: S_2  and  N_10
REMARK    2  A    between atoms: S_2  and  C_25
REMARK    3  A    between atoms: O_4  and  C_14
REMARK    4  A    between atoms: O_5  and  C_15
REMARK    5  A    between atoms: N_10  and  C_18
REMARK    6  A    between atoms: C_13  and  C_17
REMARK    7  A    between atoms: C_16  and  C_18
REMARK    8  A    between atoms: C_17  and  C_19
REMARK                            x       y       z     vdW  Elec       q    Type
REMARK                         _______ _______ _______ _____ _____    ______ ____
ROOT
ATOM      3  O   UNL     1      -4.518   3.080  26.805  0.00  0.00    -0.366 OA
ATOM     13  C   UNL     1      -3.820   4.055  26.010  0.00  0.00    +0.158 C 
ATOM     14  C   UNL     1      -4.583   4.139  24.699  0.00  0.00    +0.175 C 
ATOM     15  C   UNL     1      -6.010   3.941  25.166  0.00  0.00    +0.175 C 
ATOM     16  C   UNL     1      -5.845   2.894  26.261  0.00  0.00    +0.165 C 
ENDROOT
BRANCH  14   4
ATOM      4  O   UNL     1      -4.374   5.370  24.042  0.00  0.00    -0.387 OA
ATOM     35  H   UNL     1      -4.544   5.228  23.096  0.00  0.00    +0.210 HD
ENDBRANCH  14   4
BRANCH  15   5
ATOM      5  O   UNL     1      -6.505   5.138  25.767  0.00  0.00    -0.387 OA
ATOM     36  H   UNL     1      -6.260   5.113  26.708  0.00  0.00    +0.210 HD
ENDBRANCH  15   5
BRANCH  13  17
ATOM     17  C   UNL     1      -2.372   3.633  25.839  0.00  0.00    +0.130 C 
BRANCH  17  19
ATOM      6  O   UNL     1      -3.076   3.050  23.647  0.00  0.00    -0.276 OA
ATOM      9  N   UNL     1      -0.981   2.291  24.306  0.00  0.00    -0.298 N 
ATOM     11  N   UNL     1       1.565   1.039  23.727  0.00  0.00    -0.312 N 
ATOM     12  N   UNL     1       3.237  -0.559  24.205  0.00  0.00    -0.240 NA
ATOM     19  C   UNL     1      -2.184   2.971  24.496  0.00  0.00    +0.218 C 
ATOM     20  C   UNL     1      -0.725   1.620  23.035  0.00  0.00    +0.126 C 
ATOM     21  C   UNL     1       0.081   2.207  25.312  0.00  0.00    +0.126 C 
ATOM     22  C   UNL     1       0.756   1.641  22.664  0.00  0.00    +0.125 C 
ATOM     23  C   UNL     1       1.017   1.019  25.086  0.00  0.00    +0.125 C 
ATOM     24  C   UNL     1       2.804   0.471  23.444  0.00  0.00    +0.121 A 
ATOM     26  C   UNL     1       3.519   1.006  22.384  0.00  0.00    +0.043 A 
ATOM     29  C   UNL     1       4.758   0.449  22.088  0.00  0.00    +0.005 A 
ATOM     30  C   UNL     1       4.445  -1.075  23.888  0.00  0.00    +0.113 A 
ATOM     31  C   UNL     1       5.237  -0.611  22.850  0.00  0.00    +0.020 A 
ENDBRANCH  17  19
ENDBRANCH  13  17
BRANCH  16  18
ATOM     18  C   UNL     1      -5.939   1.467  25.741  0.00  0.00    +0.140 C 
BRANCH  18  10
ATOM     10  N   UNL     1      -4.587   0.959  25.448  0.00  0.00    -0.187 NA
ATOM     37  H   UNL     1      -3.860   1.679  25.564  0.00  0.00    +0.148 HD
BRANCH  10   2
ATOM      2  S   UNL     1      -4.338  -0.110  24.146  0.00  0.00    +0.058 S 
ATOM      7  O   UNL     1      -4.060   0.654  22.945  0.00  0.00    -0.153 OA
ATOM      8  O   UNL     1      -5.390  -1.108  24.148  0.00  0.00    -0.153 OA
BRANCH   2  25
ATOM      1 CL   UNL     1       0.954  -3.015  25.866  0.00  0.00    -0.084 Cl
ATOM     25  C   UNL     1      -2.848  -0.928  24.630  0.00  0.00    +0.105 A 
ATOM     27  C   UNL     1      -2.341  -1.970  23.855  0.00  0.00    +0.030 A 
ATOM     28  C   UNL     1      -2.179  -0.531  25.789  0.00  0.00    +0.030 A 
ATOM     32  C   UNL     1      -1.165  -2.616  24.238  0.00  0.00    +0.022 A 
ATOM     33  C   UNL     1      -1.003  -1.176  26.171  0.00  0.00    +0.022 A 
ATOM     34  C   UNL     1      -0.497  -2.219  25.396  0.00  0.00    +0.041 A 
ENDBRANCH   2  25
ENDBRANCH  10   2
ENDBRANCH  18  10
ENDBRANCH  16  18
TORSDOF 8
ENDMDL
MODEL 10
REMARK VINA RESULT:       9.6      2.254      2.694
REMARK  Name = 26744682
REMARK  8 active torsions:
REMARK  status: ('A' for Active; 'I' for Inactive)
REMARK    1  A    between atoms: S_2  and  N_10
REMARK    2  A    between atoms: S_2  and  C_25
REMARK    3  A    between atoms: O_4  and  C_14
REMARK    4  A    between atoms: O_5  and  C_15
REMARK    5  A    between atoms: N_10  and  C_18
REMARK    6  A    between atoms: C_13  and  C_17
REMARK    7  A    between atoms: C_16  and  C_18
REMARK    8  A    between atoms: C_17  and  C_19
REMARK                            x       y       z     vdW  Elec       q    Type
REMARK                         _______ _______ _______ _____ _____    ______ ____
ROOT
ATOM      3  O   UNL     1      -4.279   0.584  23.156  0.00  0.00    -0.366 OA
ATOM     13  C   UNL     1      -4.811  -0.376  24.087  0.00  0.00    +0.158 C 
ATOM     14  C   UNL     1      -4.719   0.282  25.453  0.00  0.00    +0.175 C 
ATOM     15  C   UNL     1      -5.000   1.730  25.112  0.00  0.00    +0.175 C 
ATOM     16  C   UNL     1      -4.276   1.889  23.779  0.00  0.00    +0.165 C 
ENDROOT
BRANCH  14   4
ATOM      4  O   UNL     1      -5.643  -0.268  26.368  0.00  0.00    -0.387 OA
ATOM     35  H   UNL     1      -6.504   0.152  26.199  0.00  0.00    +0.210 HD
ENDBRANCH  14   4
BRANCH  15   5
ATOM      5  O   UNL     1      -6.396   1.924  24.883  0.00  0.00    -0.387 OA
ATOM     36  H   UNL     1      -6.540   1.896  23.922  0.00  0.00    +0.210 HD
ENDBRANCH  15   5
BRANCH  13  17
ATOM     17  C   UNL     1      -4.025  -1.672  23.987  0.00  0.00    +0.130 C 
BRANCH  17  19
ATOM      6  O   UNL     1      -3.253  -2.105  26.191  0.00  0.00    -0.276 OA
ATOM      9  N   UNL     1      -1.689  -1.285  24.680  0.00  0.00    -0.298 N 
ATOM     11  N   UNL     1       1.033  -0.627  23.948  0.00  0.00    -0.312 N 
ATOM     12  N   UNL     1       2.636   0.884  23.096  0.00  0.00    -0.240 NA
ATOM     19  C   UNL     1      -2.962  -1.712  25.058  0.00  0.00    +0.218 C 
ATOM     20  C   UNL     1      -0.607  -1.290  25.659  0.00  0.00    +0.126 C 
ATOM     21  C   UNL     1      -1.345  -0.829  23.330  0.00  0.00    +0.126 C 
ATOM     22  C   UNL     1       0.746  -1.588  25.016  0.00  0.00    +0.125 C 
ATOM     23  C   UNL     1      -0.095   0.052  23.306  0.00  0.00    +0.125 C 
ATOM     24  C   UNL     1       2.346  -0.345  23.579  0.00  0.00    +0.121 A 
ATOM     26  C   UNL     1       3.280  -1.356  23.737  0.00  0.00    +0.043 A 
ATOM     29  C   UNL     1       4.596  -1.089  23.374  0.00  0.00    +0.005 A 
ATOM     30  C   UNL     1       3.925   1.108  22.754  0.00  0.00    +0.113 A 
ATOM     31  C   UNL     1       4.932   0.164  22.872  0.00  0.00    +0.020 A 
ENDBRANCH  17  19
ENDBRANCH  13  17
BRANCH  16  18
ATOM     18  C   UNL     1      -2.827   2.327  23.937  0.00  0.00    +0.140 C 
BRANCH  18  10
ATOM     10  N   UNL     1      -2.366   2.022  25.303  0.00  0.00    -0.187 NA
ATOM     37  H   UNL     1      -3.094   1.570  25.875  0.00  0.00    +0.148 HD
BRANCH  10   2
ATOM      2  S   UNL     1      -1.380   3.129  26.140  0.00  0.00    +0.058 S 
ATOM      7  O   UNL     1      -0.351   2.404  26.861  0.00  0.00    -0.153 OA
ATOM      8  O   UNL     1      -2.224   4.082  26.834  0.00  0.00    -0.153 OA
BRANCH   2  25
ATOM      1 CL   UNL     1       1.374   6.216  21.418  0.00  0.00    -0.084 Cl
ATOM     25  C   UNL     1      -0.605   3.999  24.810  0.00  0.00    +0.105 A 
ATOM     27  C   UNL     1      -0.869   5.354  24.615  0.00  0.00    +0.030 A 
ATOM     28  C   UNL     1       0.273   3.329  23.956  0.00  0.00    +0.030 A 
ATOM     32  C   UNL     1      -0.258   6.040  23.565  0.00  0.00    +0.022 A 
ATOM     33  C   UNL     1       0.885   4.015  22.908  0.00  0.00    +0.022 A 
ATOM     34  C   UNL     1       0.619   5.370  22.712  0.00  0.00    +0.041 A 
ENDBRANCH   2  25
ENDBRANCH  10   2
ENDBRANCH  18  10
ENDBRANCH  16  18
TORSDOF 8
ENDMDL
