MODEL 1
REMARK VINA RESULT:       3.0      0.000      0.000
REMARK  Name = 11887584
REMARK  13 active torsions:
REMARK  status: ('A' for Active; 'I' for Inactive)
REMARK    1  A    between atoms: O_4  and  C_20
REMARK    2  A    between atoms: O_4  and  C_29
REMARK    3  A    between atoms: O_5  and  C_22
REMARK    4  A    between atoms: O_5  and  C_33
REMARK    5  A    between atoms: O_7  and  C_32
REMARK    6  A    between atoms: O_7  and  C_37
REMARK    7  A    between atoms: N_10  and  C_19
REMARK    8  A    between atoms: N_11  and  C_24
REMARK    9  A    between atoms: C_12  and  C_16
REMARK   10  A    between atoms: C_17  and  C_20
REMARK   11  A    between atoms: C_19  and  C_21
REMARK   12  A    between atoms: C_19  and  C_22
REMARK   13  A    between atoms: C_21  and  C_23
REMARK                            x       y       z     vdW  Elec       q    Type
REMARK                         _______ _______ _______ _____ _____    ______ ____
ROOT
ATOM      2  O   UNL     1      -3.707   4.831  24.488  0.00  0.00    -0.273 OA
ATOM      3  O   UNL     1       0.514  -0.976  23.027  0.00  0.00    -0.252 OA
ATOM      8  N   UNL     1      -2.710   2.851  23.780  0.00  0.00    -0.285 N 
ATOM      9  N   UNL     1      -0.382   1.133  23.342  0.00  0.00    -0.282 N 
ATOM     11  N   UNL     1       1.917   0.877  22.890  0.00  0.00    -0.269 N 
ATOM     12  C   UNL     1      -1.377   3.280  24.203  0.00  0.00    +0.179 C 
ATOM     13  C   UNL     1      -0.241   2.594  23.443  0.00  0.00    +0.141 C 
ATOM     14  C   UNL     1      -2.814   1.548  23.113  0.00  0.00    +0.127 C 
ATOM     15  C   UNL     1      -1.720   0.580  23.540  0.00  0.00    +0.128 C 
ATOM     17  C   UNL     1      -3.785   3.735  23.928  0.00  0.00    +0.242 C 
ATOM     18  C   UNL     1       0.689   0.244  23.086  0.00  0.00    +0.307 C 
ATOM     39  H   UNL     1       1.905   1.830  22.539  0.00  0.00    +0.156 HD
ENDROOT
BRANCH  11  24
ATOM     24  C   UNL     1       3.207   0.371  23.187  0.00  0.00    +0.035 A 
ATOM     27  C   UNL     1       4.320   1.210  23.113  0.00  0.00    +0.023 A 
ATOM     28  C   UNL     1       3.366  -0.965  23.554  0.00  0.00    +0.023 A 
ATOM     34  C   UNL     1       5.589   0.713  23.407  0.00  0.00    +0.002 A 
ATOM     35  C   UNL     1       4.635  -1.463  23.848  0.00  0.00    +0.002 A 
ATOM     36  C   UNL     1       5.747  -0.624  23.775  0.00  0.00    +0.000 A 
ENDBRANCH  11  24
BRANCH  12  16
ATOM      1  O   UNL     1      -1.673   3.834  26.509  0.00  0.00    -0.274 OA
ATOM     10  N   UNL     1      -0.631   1.827  25.958  0.00  0.00    -0.301 N 
ATOM     16  C   UNL     1      -1.261   3.028  25.679  0.00  0.00    +0.236 C 
ATOM     38  H   UNL     1      -0.348   1.224  25.191  0.00  0.00    +0.150 HD
BRANCH  10  19
ATOM     19  C   UNL     1      -0.376   1.362  27.302  0.00  0.00    +0.186 C 
BRANCH  19  22
ATOM      6  O   UNL     1       1.589   2.767  27.331  0.00  0.00    -0.249 OA
ATOM     22  C   UNL     1       0.770   2.113  27.968  0.00  0.00    +0.328 C 
BRANCH  22   5
ATOM      5  O   UNL     1       0.775   1.949  29.320  0.00  0.00    -0.467 OA
ATOM     33  C   UNL     1       1.987   2.316  29.986  0.00  0.00    +0.280 C 
ENDBRANCH  22   5
ENDBRANCH  19  22
BRANCH  19  21
ATOM     21  C   UNL     1      -0.165  -0.159  27.336  0.00  0.00    +0.069 C 
BRANCH  21  23
ATOM     23  C   UNL     1      -1.139  -0.952  26.493  0.00  0.00    -0.045 A 
ATOM     25  C   UNL     1      -2.508  -0.711  26.599  0.00  0.00    +0.007 A 
ATOM     26  C   UNL     1      -0.668  -1.923  25.611  0.00  0.00    +0.007 A 
ATOM     30  C   UNL     1      -3.407  -1.441  25.823  0.00  0.00    +0.046 A 
ATOM     31  C   UNL     1      -1.567  -2.654  24.833  0.00  0.00    +0.046 A 
ATOM     32  C   UNL     1      -2.937  -2.413  24.940  0.00  0.00    +0.120 A 
BRANCH  32   7
ATOM      7  O   UNL     1      -3.814  -3.126  24.183  0.00  0.00    -0.495 OA
ATOM     37  C   UNL     1      -4.758  -2.384  23.410  0.00  0.00    +0.277 C 
ENDBRANCH  32   7
ENDBRANCH  21  23
ENDBRANCH  19  21
ENDBRANCH  10  19
ENDBRANCH  12  16
BRANCH  17  20
ATOM     20  C   UNL     1      -5.109   3.278  23.364  0.00  0.00    +0.255 C 
BRANCH  20   4
ATOM      4  O   UNL     1      -5.602   2.296  24.242  0.00  0.00    -0.374 OA
ATOM     29  C   UNL     1      -5.630   2.749  25.594  0.00  0.00    +0.194 C 
ENDBRANCH  20   4
ENDBRANCH  17  20
TORSDOF 10
ENDMDL
MODEL 2
REMARK VINA RESULT:       6.0      1.646      4.001
REMARK  Name = 11887584
REMARK  13 active torsions:
REMARK  status: ('A' for Active; 'I' for Inactive)
REMARK    1  A    between atoms: O_4  and  C_20
REMARK    2  A    between atoms: O_4  and  C_29
REMARK    3  A    between atoms: O_5  and  C_22
REMARK    4  A    between atoms: O_5  and  C_33
REMARK    5  A    between atoms: O_7  and  C_32
REMARK    6  A    between atoms: O_7  and  C_37
REMARK    7  A    between atoms: N_10  and  C_19
REMARK    8  A    between atoms: N_11  and  C_24
REMARK    9  A    between atoms: C_12  and  C_16
REMARK   10  A    between atoms: C_17  and  C_20
REMARK   11  A    between atoms: C_19  and  C_21
REMARK   12  A    between atoms: C_19  and  C_22
REMARK   13  A    between atoms: C_21  and  C_23
REMARK                            x       y       z     vdW  Elec       q    Type
REMARK                         _______ _______ _______ _____ _____    ______ ____
ROOT
ATOM      2  O   UNL     1      -4.210   0.875  23.696  0.00  0.00    -0.273 OA
ATOM      3  O   UNL     1       2.194  -2.415  25.050  0.00  0.00    -0.252 OA
ATOM      8  N   UNL     1      -2.420  -0.537  24.161  0.00  0.00    -0.285 N 
ATOM      9  N   UNL     1       0.435  -1.178  24.199  0.00  0.00    -0.282 N 
ATOM     11  N   UNL     1       2.597  -0.946  23.290  0.00  0.00    -0.269 N 
ATOM     12  C   UNL     1      -1.429   0.449  23.731  0.00  0.00    +0.179 C 
ATOM     13  C   UNL     1      -0.106  -0.169  23.275  0.00  0.00    +0.141 C 
ATOM     14  C   UNL     1      -1.919  -1.851  24.582  0.00  0.00    +0.127 C 
ATOM     15  C   UNL     1      -0.504  -1.789  25.138  0.00  0.00    +0.128 C 
ATOM     17  C   UNL     1      -3.780  -0.226  24.048  0.00  0.00    +0.242 C 
ATOM     18  C   UNL     1       1.793  -1.573  24.243  0.00  0.00    +0.307 C 
ATOM     39  H   UNL     1       2.152  -0.623  22.437  0.00  0.00    +0.156 HD
ENDROOT
BRANCH  11  24
ATOM     24  C   UNL     1       3.977  -0.635  23.393  0.00  0.00    +0.035 A 
ATOM     27  C   UNL     1       4.877  -1.599  23.848  0.00  0.00    +0.023 A 
ATOM     28  C   UNL     1       4.435   0.633  23.038  0.00  0.00    +0.023 A 
ATOM     34  C   UNL     1       6.234  -1.295  23.946  0.00  0.00    +0.002 A 
ATOM     35  C   UNL     1       5.792   0.939  23.137  0.00  0.00    +0.002 A 
ATOM     36  C   UNL     1       6.692  -0.026  23.591  0.00  0.00    +0.000 A 
ENDBRANCH  11  24
BRANCH  12  16
ATOM      1  O   UNL     1      -1.854   1.331  25.910  0.00  0.00    -0.274 OA
ATOM     10  N   UNL     1      -0.242   2.352  24.577  0.00  0.00    -0.301 N 
ATOM     16  C   UNL     1      -1.210   1.405  24.867  0.00  0.00    +0.236 C 
ATOM     38  H   UNL     1       0.245   2.307  23.687  0.00  0.00    +0.150 HD
BRANCH  10  19
ATOM     19  C   UNL     1       0.139   3.400  25.496  0.00  0.00    +0.186 C 
BRANCH  19  22
ATOM      6  O   UNL     1      -0.736   2.712  27.640  0.00  0.00    -0.249 OA
ATOM     22  C   UNL     1       0.247   2.902  26.931  0.00  0.00    +0.328 C 
BRANCH  22   5
ATOM      5  O   UNL     1       1.541   2.720  27.316  0.00  0.00    -0.467 OA
ATOM     33  C   UNL     1       1.772   2.706  28.728  0.00  0.00    +0.280 C 
ENDBRANCH  22   5
ENDBRANCH  19  22
BRANCH  19  21
ATOM     21  C   UNL     1      -0.794   4.614  25.376  0.00  0.00    +0.069 C 
BRANCH  21  23
ATOM     23  C   UNL     1      -2.269   4.279  25.361  0.00  0.00    -0.045 A 
ATOM     25  C   UNL     1      -2.928   4.092  24.147  0.00  0.00    +0.007 A 
ATOM     26  C   UNL     1      -2.968   4.158  26.561  0.00  0.00    +0.007 A 
ATOM     30  C   UNL     1      -4.288   3.784  24.133  0.00  0.00    +0.046 A 
ATOM     31  C   UNL     1      -4.329   3.849  26.548  0.00  0.00    +0.046 A 
ATOM     32  C   UNL     1      -4.989   3.662  25.332  0.00  0.00    +0.120 A 
BRANCH  32   7
ATOM      7  O   UNL     1      -6.316   3.361  25.319  0.00  0.00    -0.495 OA
ATOM     37  C   UNL     1      -6.669   1.980  25.390  0.00  0.00    +0.277 C 
ENDBRANCH  32   7
ENDBRANCH  21  23
ENDBRANCH  19  21
ENDBRANCH  10  19
ENDBRANCH  12  16
BRANCH  17  20
ATOM     20  C   UNL     1      -4.750  -1.328  24.397  0.00  0.00    +0.255 C 
BRANCH  20   4
ATOM      4  O   UNL     1      -4.682  -2.268  23.353  0.00  0.00    -0.374 OA
ATOM     29  C   UNL     1      -4.294  -3.560  23.818  0.00  0.00    +0.194 C 
ENDBRANCH  20   4
ENDBRANCH  17  20
TORSDOF 10
ENDMDL
MODEL 3
REMARK VINA RESULT:       6.2      1.823      4.030
REMARK  Name = 11887584
REMARK  13 active torsions:
REMARK  status: ('A' for Active; 'I' for Inactive)
REMARK    1  A    between atoms: O_4  and  C_20
REMARK    2  A    between atoms: O_4  and  C_29
REMARK    3  A    between atoms: O_5  and  C_22
REMARK    4  A    between atoms: O_5  and  C_33
REMARK    5  A    between atoms: O_7  and  C_32
REMARK    6  A    between atoms: O_7  and  C_37
REMARK    7  A    between atoms: N_10  and  C_19
REMARK    8  A    between atoms: N_11  and  C_24
REMARK    9  A    between atoms: C_12  and  C_16
REMARK   10  A    between atoms: C_17  and  C_20
REMARK   11  A    between atoms: C_19  and  C_21
REMARK   12  A    between atoms: C_19  and  C_22
REMARK   13  A    between atoms: C_21  and  C_23
REMARK                            x       y       z     vdW  Elec       q    Type
REMARK                         _______ _______ _______ _____ _____    ______ ____
ROOT
ATOM      2  O   UNL     1      -3.007   3.563  26.079  0.00  0.00    -0.273 OA
ATOM      3  O   UNL     1       1.710   0.102  21.670  0.00  0.00    -0.252 OA
ATOM      8  N   UNL     1      -1.729   2.668  24.353  0.00  0.00    -0.285 N 
ATOM      9  N   UNL     1       0.667   1.343  23.320  0.00  0.00    -0.282 N 
ATOM     11  N   UNL     1       2.975   0.885  23.460  0.00  0.00    -0.269 N 
ATOM     12  C   UNL     1      -0.676   2.217  25.263  0.00  0.00    +0.179 C 
ATOM     13  C   UNL     1       0.693   2.075  24.596  0.00  0.00    +0.141 C 
ATOM     14  C   UNL     1      -1.513   2.449  22.918  0.00  0.00    +0.127 C 
ATOM     15  C   UNL     1      -0.620   1.250  22.635  0.00  0.00    +0.128 C 
ATOM     17  C   UNL     1      -2.818   3.375  24.875  0.00  0.00    +0.242 C 
ATOM     18  C   UNL     1       1.794   0.717  22.736  0.00  0.00    +0.307 C 
ATOM     39  H   UNL     1       3.053   1.710  24.047  0.00  0.00    +0.156 HD
ENDROOT
BRANCH  11  24
ATOM     24  C   UNL     1       4.078  -0.002  23.534  0.00  0.00    +0.035 A 
ATOM     27  C   UNL     1       3.865  -1.363  23.753  0.00  0.00    +0.023 A 
ATOM     28  C   UNL     1       5.376   0.485  23.386  0.00  0.00    +0.023 A 
ATOM     34  C   UNL     1       4.950  -2.237  23.824  0.00  0.00    +0.002 A 
ATOM     35  C   UNL     1       6.462  -0.388  23.456  0.00  0.00    +0.002 A 
ATOM     36  C   UNL     1       6.249  -1.749  23.675  0.00  0.00    +0.000 A 
ENDBRANCH  11  24
BRANCH  12  16
ATOM      1  O   UNL     1      -0.701   0.526  26.951  0.00  0.00    -0.274 OA
ATOM     10  N   UNL     1      -1.995   0.227  25.039  0.00  0.00    -0.301 N 
ATOM     16  C   UNL     1      -1.116   0.912  25.862  0.00  0.00    +0.236 C 
ATOM     38  H   UNL     1      -2.289   0.651  24.164  0.00  0.00    +0.150 HD
BRANCH  10  19
ATOM     19  C   UNL     1      -2.548  -1.065  25.375  0.00  0.00    +0.186 C 
BRANCH  19  22
ATOM      6  O   UNL     1      -2.302  -3.264  24.406  0.00  0.00    -0.249 OA
ATOM     22  C   UNL     1      -1.771  -2.211  24.741  0.00  0.00    +0.328 C 
BRANCH  22   5
ATOM      5  O   UNL     1      -0.444  -1.926  24.619  0.00  0.00    -0.467 OA
ATOM     33  C   UNL     1       0.423  -2.605  25.532  0.00  0.00    +0.280 C 
ENDBRANCH  22   5
ENDBRANCH  19  22
BRANCH  19  21
ATOM     21  C   UNL     1      -4.047  -1.133  25.045  0.00  0.00    +0.069 C 
BRANCH  21  23
ATOM     23  C   UNL     1      -4.802   0.159  25.265  0.00  0.00    -0.045 A 
ATOM     25  C   UNL     1      -4.991   0.644  26.559  0.00  0.00    +0.007 A 
ATOM     26  C   UNL     1      -5.309   0.864  24.175  0.00  0.00    +0.007 A 
ATOM     30  C   UNL     1      -5.688   1.834  26.763  0.00  0.00    +0.046 A 
ATOM     31  C   UNL     1      -6.006   2.056  24.378  0.00  0.00    +0.046 A 
ATOM     32  C   UNL     1      -6.196   2.541  25.673  0.00  0.00    +0.120 A 
BRANCH  32   7
ATOM      7  O   UNL     1      -6.876   3.702  25.871  0.00  0.00    -0.495 OA
ATOM     37  C   UNL     1      -6.148   4.918  25.699  0.00  0.00    +0.277 C 
ENDBRANCH  32   7
ENDBRANCH  21  23
ENDBRANCH  19  21
ENDBRANCH  10  19
ENDBRANCH  12  16
BRANCH  17  20
ATOM     20  C   UNL     1      -3.808   3.915  23.871  0.00  0.00    +0.255 C 
BRANCH  20   4
ATOM      4  O   UNL     1      -3.515   5.282  23.715  0.00  0.00    -0.374 OA
ATOM     29  C   UNL     1      -2.330   5.661  24.412  0.00  0.00    +0.194 C 
ENDBRANCH  20   4
ENDBRANCH  17  20
TORSDOF 10
ENDMDL
