MODEL 1
REMARK VINA RESULT:      -7.8      0.000      0.000
REMARK  Name = 7685286
REMARK  1 active torsions:
REMARK  status: ('A' for Active; 'I' for Inactive)
REMARK    1  A    between atoms: C_12  and  C_16
REMARK                            x       y       z     vdW  Elec       q    Type
REMARK                         _______ _______ _______ _____ _____    ______ ____
ROOT
ATOM      2  O   UNL     1      -5.018   4.676  25.567  0.00  0.00    -0.268 OA
ATOM      3  N   UNL     1      -3.431   2.964  25.366  0.00  0.00    -0.311 N 
ATOM      4  N   UNL     1      -1.144   2.640  23.166  0.00  0.00    -0.315 NA
ATOM      5  C   UNL     1      -0.914   3.440  25.525  0.00  0.00    +0.023 C 
ATOM      6  C   UNL     1      -1.701   1.161  25.107  0.00  0.00    +0.051 C 
ATOM      7  C   UNL     1      -0.831   2.011  26.031  0.00  0.00    +0.017 C 
ATOM      8  C   UNL     1      -2.360   3.923  25.670  0.00  0.00    +0.130 C 
ATOM      9  C   UNL     1      -3.172   1.591  25.176  0.00  0.00    +0.034 A 
ATOM     10  C   UNL     1      -0.411   3.523  24.072  0.00  0.00    +0.086 C 
ATOM     11  C   UNL     1      -1.164   1.263  23.661  0.00  0.00    +0.090 C 
ATOM     12  C   UNL     1      -4.207   0.719  25.045  0.00  0.00    +0.009 A 
ATOM     13  C   UNL     1      -4.735   3.491  25.393  0.00  0.00    +0.252 A 
ATOM     14  C   UNL     1      -5.566   1.229  25.063  0.00  0.00    +0.016 A 
ATOM     15  C   UNL     1      -5.841   2.525  25.210  0.00  0.00    +0.071 A 
ATOM     20  H   UNL     1      -0.717   2.666  22.241  0.00  0.00    +0.122 HD
ENDROOT
BRANCH  12  16
ATOM      1  S   UNL     1      -3.186  -1.548  26.103  0.00  0.00    -0.097 S 
ATOM     16  C   UNL     1      -3.945  -0.655  24.854  0.00  0.00    +0.021 A 
ATOM     17  C   UNL     1      -4.219  -1.437  23.753  0.00  0.00    +0.016 A 
ATOM     18  C   UNL     1      -3.802  -2.786  23.939  0.00  0.00    +0.008 A 
ATOM     19  C   UNL     1      -3.224  -2.985  25.173  0.00  0.00    +0.046 A 
ENDBRANCH  12  16
TORSDOF 1
ENDMDL
MODEL 2
REMARK VINA RESULT:      -6.7      2.855      5.328
REMARK  Name = 7685286
REMARK  1 active torsions:
REMARK  status: ('A' for Active; 'I' for Inactive)
REMARK    1  A    between atoms: C_12  and  C_16
REMARK                            x       y       z     vdW  Elec       q    Type
REMARK                         _______ _______ _______ _____ _____    ______ ____
ROOT
ATOM      2  O   UNL     1       0.827  -0.676  23.474  0.00  0.00    -0.268 OA
ATOM      3  N   UNL     1      -1.298  -0.432  24.430  0.00  0.00    -0.311 N 
ATOM      4  N   UNL     1      -4.071  -1.634  23.412  0.00  0.00    -0.315 NA
ATOM      5  C   UNL     1      -2.628  -2.454  25.282  0.00  0.00    +0.023 C 
ATOM      6  C   UNL     1      -3.598  -0.212  25.416  0.00  0.00    +0.051 C 
ATOM      7  C   UNL     1      -3.248  -1.450  26.238  0.00  0.00    +0.017 C 
ATOM      8  C   UNL     1      -1.321  -1.867  24.744  0.00  0.00    +0.130 C 
ATOM      9  C   UNL     1      -2.341   0.433  24.820  0.00  0.00    +0.034 A 
ATOM     10  C   UNL     1      -3.620  -2.807  24.159  0.00  0.00    +0.086 C 
ATOM     11  C   UNL     1      -4.598  -0.601  24.304  0.00  0.00    +0.090 C 
ATOM     12  C   UNL     1      -2.209   1.775  24.640  0.00  0.00    +0.009 A 
ATOM     13  C   UNL     1      -0.118   0.033  23.822  0.00  0.00    +0.252 A 
ATOM     14  C   UNL     1      -1.005   2.288  24.011  0.00  0.00    +0.016 A 
ATOM     15  C   UNL     1      -0.017   1.493  23.605  0.00  0.00    +0.071 A 
ATOM     20  H   UNL     1      -4.789  -1.909  22.743  0.00  0.00    +0.122 HD
ENDROOT
BRANCH  12  16
ATOM      1  S   UNL     1      -2.934   3.898  26.147  0.00  0.00    -0.097 S 
ATOM     16  C   UNL     1      -3.255   2.640  25.031  0.00  0.00    +0.021 A 
ATOM     17  C   UNL     1      -4.573   2.627  24.630  0.00  0.00    +0.016 A 
ATOM     18  C   UNL     1      -5.329   3.665  25.247  0.00  0.00    +0.008 A 
ATOM     19  C   UNL     1      -4.561   4.431  26.096  0.00  0.00    +0.046 A 
ENDBRANCH  12  16
TORSDOF 1
ENDMDL
MODEL 3
REMARK VINA RESULT:      -6.3      1.599      3.424
REMARK  Name = 7685286
REMARK  1 active torsions:
REMARK  status: ('A' for Active; 'I' for Inactive)
REMARK    1  A    between atoms: C_12  and  C_16
REMARK                            x       y       z     vdW  Elec       q    Type
REMARK                         _______ _______ _______ _____ _____    ______ ____
ROOT
ATOM      2  O   UNL     1      -0.269   3.932  25.781  0.00  0.00    -0.268 OA
ATOM      3  N   UNL     1      -2.185   2.830  25.004  0.00  0.00    -0.311 N 
ATOM      4  N   UNL     1      -5.120   2.855  26.253  0.00  0.00    -0.315 NA
ATOM      5  C   UNL     1      -4.275   4.126  24.271  0.00  0.00    +0.023 C 
ATOM      6  C   UNL     1      -4.273   1.679  24.212  0.00  0.00    +0.051 C 
ATOM      7  C   UNL     1      -4.513   2.928  23.367  0.00  0.00    +0.017 C 
ATOM      8  C   UNL     1      -2.805   4.126  24.698  0.00  0.00    +0.130 C 
ATOM      9  C   UNL     1      -2.820   1.609  24.701  0.00  0.00    +0.034 A 
ATOM     10  C   UNL     1      -5.236   4.087  25.473  0.00  0.00    +0.086 C 
ATOM     11  C   UNL     1      -5.256   1.671  25.405  0.00  0.00    +0.090 C 
ATOM     12  C   UNL     1      -2.149   0.437  24.866  0.00  0.00    +0.009 A 
ATOM     13  C   UNL     1      -0.874   2.895  25.511  0.00  0.00    +0.252 A 
ATOM     14  C   UNL     1      -0.796   0.467  25.392  0.00  0.00    +0.016 A 
ATOM     15  C   UNL     1      -0.181   1.604  25.716  0.00  0.00    +0.071 A 
ATOM     20  H   UNL     1      -5.834   2.841  26.980  0.00  0.00    +0.122 HD
ENDROOT
BRANCH  12  16
ATOM      1  S   UNL     1      -1.952  -2.257  24.817  0.00  0.00    -0.097 S 
ATOM     16  C   UNL     1      -2.788  -0.785  24.561  0.00  0.00    +0.021 A 
ATOM     17  C   UNL     1      -4.055  -0.989  24.060  0.00  0.00    +0.016 A 
ATOM     18  C   UNL     1      -4.343  -2.373  23.884  0.00  0.00    +0.008 A 
ATOM     19  C   UNL     1      -3.286  -3.174  24.257  0.00  0.00    +0.046 A 
ENDBRANCH  12  16
TORSDOF 1
ENDMDL
MODEL 4
REMARK VINA RESULT:      -4.8      2.684      4.464
REMARK  Name = 7685286
REMARK  1 active torsions:
REMARK  status: ('A' for Active; 'I' for Inactive)
REMARK    1  A    between atoms: C_12  and  C_16
REMARK                            x       y       z     vdW  Elec       q    Type
REMARK                         _______ _______ _______ _____ _____    ______ ____
ROOT
ATOM      2  O   UNL     1      -1.438  -2.779  24.679  0.00  0.00    -0.268 OA
ATOM      3  N   UNL     1      -1.580  -0.461  24.366  0.00  0.00    -0.311 N 
ATOM      4  N   UNL     1       0.341   1.809  25.519  0.00  0.00    -0.315 NA
ATOM      5  C   UNL     1       0.293   0.855  23.207  0.00  0.00    +0.023 C 
ATOM      6  C   UNL     1      -1.678   2.030  24.056  0.00  0.00    +0.051 C 
ATOM      7  C   UNL     1      -0.827   1.802  22.810  0.00  0.00    +0.017 C 
ATOM      8  C   UNL     1      -0.325  -0.488  23.602  0.00  0.00    +0.130 C 
ATOM      9  C   UNL     1      -2.325   0.724  24.535  0.00  0.00    +0.034 A 
ATOM     10  C   UNL     1       1.136   1.470  24.339  0.00  0.00    +0.086 C 
ATOM     11  C   UNL     1      -0.803   2.651  25.168  0.00  0.00    +0.090 C 
ATOM     12  C   UNL     1      -3.552   0.674  25.120  0.00  0.00    +0.009 A 
ATOM     13  C   UNL     1      -2.040  -1.714  24.812  0.00  0.00    +0.252 A 
ATOM     14  C   UNL     1      -4.055  -0.602  25.597  0.00  0.00    +0.016 A 
ATOM     15  C   UNL     1      -3.361  -1.733  25.478  0.00  0.00    +0.071 A 
ATOM     20  H   UNL     1       0.926   2.291  26.200  0.00  0.00    +0.122 HD
ENDROOT
BRANCH  12  16
ATOM      1  S   UNL     1      -6.000   1.816  25.137  0.00  0.00    -0.097 S 
ATOM     16  C   UNL     1      -4.295   1.862  25.289  0.00  0.00    +0.021 A 
ATOM     17  C   UNL     1      -3.835   3.129  25.574  0.00  0.00    +0.016 A 
ATOM     18  C   UNL     1      -4.897   4.074  25.668  0.00  0.00    +0.008 A 
ATOM     19  C   UNL     1      -6.128   3.495  25.453  0.00  0.00    +0.046 A 
ENDBRANCH  12  16
TORSDOF 1
ENDMDL
MODEL 5
REMARK VINA RESULT:      -4.1      2.884      4.863
REMARK  Name = 7685286
REMARK  1 active torsions:
REMARK  status: ('A' for Active; 'I' for Inactive)
REMARK    1  A    between atoms: C_12  and  C_16
REMARK                            x       y       z     vdW  Elec       q    Type
REMARK                         _______ _______ _______ _____ _____    ______ ____
ROOT
ATOM      2  O   UNL     1      -4.896  -1.856  23.998  0.00  0.00    -0.268 OA
ATOM      3  N   UNL     1      -2.932  -0.611  24.293  0.00  0.00    -0.311 N 
ATOM      4  N   UNL     1      -0.753  -0.880  26.607  0.00  0.00    -0.315 NA
ATOM      5  C   UNL     1      -0.620  -1.723  24.256  0.00  0.00    +0.023 C 
ATOM      6  C   UNL     1      -0.811   0.684  24.654  0.00  0.00    +0.051 C 
ATOM      7  C   UNL     1      -0.145  -0.365  23.767  0.00  0.00    +0.017 C 
ATOM      8  C   UNL     1      -2.131  -1.816  24.034  0.00  0.00    +0.130 C 
ATOM      9  C   UNL     1      -2.337   0.648  24.508  0.00  0.00    +0.034 A 
ATOM     10  C   UNL     1      -0.229  -1.926  25.731  0.00  0.00    +0.086 C 
ATOM     11  C   UNL     1      -0.392   0.453  26.123  0.00  0.00    +0.090 C 
ATOM     12  C   UNL     1      -3.118   1.759  24.595  0.00  0.00    +0.009 A 
ATOM     13  C   UNL     1      -4.326  -0.783  24.197  0.00  0.00    +0.252 A 
ATOM     14  C   UNL     1      -4.560   1.618  24.505  0.00  0.00    +0.016 A 
ATOM     15  C   UNL     1      -5.152   0.437  24.333  0.00  0.00    +0.071 A 
ATOM     20  H   UNL     1      -0.394  -1.011  27.551  0.00  0.00    +0.122 HD
ENDROOT
BRANCH  12  16
ATOM      1  S   UNL     1      -3.308   4.166  25.809  0.00  0.00    -0.097 S 
ATOM     16  C   UNL     1      -2.519   3.020  24.811  0.00  0.00    +0.021 A 
ATOM     17  C   UNL     1      -1.328   3.501  24.313  0.00  0.00    +0.016 A 
ATOM     18  C   UNL     1      -1.060   4.827  24.757  0.00  0.00    +0.008 A 
ATOM     19  C   UNL     1      -2.055   5.311  25.577  0.00  0.00    +0.046 A 
ENDBRANCH  12  16
TORSDOF 1
ENDMDL
MODEL 6
REMARK VINA RESULT:      -4.0      2.366      4.675
REMARK  Name = 7685286
REMARK  1 active torsions:
REMARK  status: ('A' for Active; 'I' for Inactive)
REMARK    1  A    between atoms: C_12  and  C_16
REMARK                            x       y       z     vdW  Elec       q    Type
REMARK                         _______ _______ _______ _____ _____    ______ ____
ROOT
ATOM      2  O   UNL     1      -7.066   1.490  25.740  0.00  0.00    -0.268 OA
ATOM      3  N   UNL     1      -4.887   1.088  24.978  0.00  0.00    -0.311 N 
ATOM      4  N   UNL     1      -2.726  -0.940  26.156  0.00  0.00    -0.315 NA
ATOM      5  C   UNL     1      -4.166  -1.224  24.130  0.00  0.00    +0.023 C 
ATOM      6  C   UNL     1      -2.547   0.610  24.199  0.00  0.00    +0.051 C 
ATOM      7  C   UNL     1      -3.180  -0.437  23.285  0.00  0.00    +0.017 C 
ATOM      8  C   UNL     1      -5.275  -0.275  24.590  0.00  0.00    +0.130 C 
ATOM      9  C   UNL     1      -3.598   1.598  24.723  0.00  0.00    +0.034 A 
ATOM     10  C   UNL     1      -3.441  -1.896  25.311  0.00  0.00    +0.086 C 
ATOM     11  C   UNL     1      -1.825  -0.099  25.367  0.00  0.00    +0.090 C 
ATOM     12  C   UNL     1      -3.328   2.909  24.964  0.00  0.00    +0.009 A 
ATOM     13  C   UNL     1      -5.921   1.880  25.510  0.00  0.00    +0.252 A 
ATOM     14  C   UNL     1      -4.371   3.753  25.518  0.00  0.00    +0.016 A 
ATOM     15  C   UNL     1      -5.590   3.293  25.797  0.00  0.00    +0.071 A 
ATOM     20  H   UNL     1      -2.194  -1.441  26.866  0.00  0.00    +0.122 HD
ENDROOT
BRANCH  12  16
ATOM      1  S   UNL     1      -1.651   5.016  25.182  0.00  0.00    -0.097 S 
ATOM     16  C   UNL     1      -2.035   3.416  24.709  0.00  0.00    +0.021 A 
ATOM     17  C   UNL     1      -0.971   2.787  24.101  0.00  0.00    +0.016 A 
ATOM     18  C   UNL     1       0.175   3.629  24.024  0.00  0.00    +0.008 A 
ATOM     19  C   UNL     1      -0.056   4.871  24.574  0.00  0.00    +0.046 A 
ENDBRANCH  12  16
TORSDOF 1
ENDMDL
