MODEL 1
REMARK VINA RESULT:      -1.0      0.000      0.000
REMARK  Name = 11882003
REMARK  15 active torsions:
REMARK  status: ('A' for Active; 'I' for Inactive)
REMARK    1  A    between atoms: S_1  and  C_25
REMARK    2  A    between atoms: S_1  and  C_29
REMARK    3  A    between atoms: O_2  and  C_13
REMARK    4  A    between atoms: O_3  and  C_15
REMARK    5  A    between atoms: N_9  and  C_14
REMARK    6  A    between atoms: N_10  and  C_23
REMARK    7  A    between atoms: N_11  and  C_19
REMARK    8  A    between atoms: C_17  and  C_20
REMARK    9  A    between atoms: C_19  and  C_21
REMARK   10  A    between atoms: C_19  and  C_22
REMARK   11  A    between atoms: C_22  and  C_26
REMARK   12  A    between atoms: C_22  and  C_27
REMARK   13  A    between atoms: C_23  and  C_24
REMARK   14  A    between atoms: C_23  and  C_28
REMARK   15  A    between atoms: C_24  and  C_25
REMARK                            x       y       z     vdW  Elec       q    Type
REMARK                         _______ _______ _______ _____ _____    ______ ____
ROOT
ATOM     13  C   UNL     1      -0.261  -1.333  24.801  0.00  0.00    +0.167 C 
ATOM     14  C   UNL     1       0.188  -0.643  23.501  0.00  0.00    +0.127 C 
ATOM     15  C   UNL     1      -0.672  -0.312  25.869  0.00  0.00    +0.149 C 
ATOM     16  C   UNL     1      -1.789   0.609  25.356  0.00  0.00    +0.074 C 
ATOM     17  C   UNL     1      -1.629   1.011  23.923  0.00  0.00    +0.015 C 
ATOM     18  C   UNL     1      -0.740   0.463  23.082  0.00  0.00    +0.006 C 
ENDROOT
BRANCH  17  20
ATOM      4  O   UNL     1      -2.838   2.089  22.222  0.00  0.00    -0.271 OA
ATOM     10  N   UNL     1      -2.825   3.017  24.360  0.00  0.00    -0.300 N 
ATOM     20  C   UNL     1      -2.487   2.078  23.401  0.00  0.00    +0.241 C 
ATOM     33  H   UNL     1      -2.472   2.944  25.307  0.00  0.00    +0.150 HD
BRANCH  10  23
ATOM     23  C   UNL     1      -3.660   4.163  24.083  0.00  0.00    +0.160 C 
BRANCH  23  28
ATOM      8  O   UNL     1      -2.990   6.466  23.693  0.00  0.00    -0.274 OA
ATOM     12  N   UNL     1      -1.851   5.245  25.269  0.00  0.00    -0.328 N 
ATOM     28  C   UNL     1      -2.812   5.410  24.294  0.00  0.00    +0.231 C 
ATOM     36  H   UNL     1      -1.717   4.367  25.761  0.00  0.00    +0.145 HD
ATOM     37  H   UNL     1      -1.228   6.005  25.520  0.00  0.00    +0.145 HD
ENDBRANCH  23  28
BRANCH  23  24
ATOM     24  C   UNL     1      -4.901   4.200  24.978  0.00  0.00    +0.054 C 
BRANCH  24  25
ATOM     25  C   UNL     1      -4.863   3.134  26.065  0.00  0.00    +0.168 C 
BRANCH  25   1
ATOM      1  S   UNL     1      -6.001   1.829  25.723  0.00  0.00    -0.034 S 
ATOM      6  O   UNL     1      -6.716   1.516  26.949  0.00  0.00    -0.175 OA
ATOM      7  O   UNL     1      -6.726   2.165  24.510  0.00  0.00    -0.175 OA
ATOM     29  C   UNL     1      -4.944   0.449  25.351  0.00  0.00    +0.194 C 
ENDBRANCH  25   1
ENDBRANCH  24  25
ENDBRANCH  23  24
ENDBRANCH  10  23
ENDBRANCH  17  20
BRANCH  14   9
ATOM      5  O   UNL     1       2.107  -0.276  21.388  0.00  0.00    -0.274 OA
ATOM      9  N   UNL     1       1.511  -0.072  23.620  0.00  0.00    -0.305 N 
ATOM     21  C   UNL     1       2.371   0.066  22.540  0.00  0.00    +0.231 C 
ATOM     30  H   UNL     1       1.835   0.201  24.544  0.00  0.00    +0.149 HD
BRANCH  21  19
ATOM     19  C   UNL     1       3.710   0.687  22.933  0.00  0.00    +0.140 C 
BRANCH  19  11
ATOM     11  N   UNL     1       4.136   1.528  21.811  0.00  0.00    -0.320 NA
ATOM     34  H   UNL     1       5.121   1.357  21.610  0.00  0.00    +0.119 HD
ATOM     35  H   UNL     1       3.627   1.275  20.965  0.00  0.00    +0.119 HD
ENDBRANCH  19  11
BRANCH  19  22
ATOM     22  C   UNL     1       4.787  -0.364  23.292  0.00  0.00    +0.009 C 
ATOM     26  C   UNL     1       4.219  -1.670  23.859  0.00  0.00    +0.009 C 
ATOM     27  C   UNL     1       5.837   0.203  24.252  0.00  0.00    +0.009 C 
ENDBRANCH  19  22
ENDBRANCH  21  19
ENDBRANCH  14   9
BRANCH  13   2
ATOM      2  O   UNL     1       0.791  -2.166  25.279  0.00  0.00    -0.387 OA
ATOM     31  H   UNL     1       1.112  -1.780  26.112  0.00  0.00    +0.210 HD
ENDBRANCH  13   2
BRANCH  15   3
ATOM      3  O   UNL     1      -1.163  -0.990  27.024  0.00  0.00    -0.389 OA
ATOM     32  H   UNL     1      -1.993  -1.430  26.773  0.00  0.00    +0.210 HD
ENDBRANCH  15   3
TORSDOF 12
ENDMDL
MODEL 2
REMARK VINA RESULT:      -0.6      3.323      7.556
REMARK  Name = 11882003
REMARK  15 active torsions:
REMARK  status: ('A' for Active; 'I' for Inactive)
REMARK    1  A    between atoms: S_1  and  C_25
REMARK    2  A    between atoms: S_1  and  C_29
REMARK    3  A    between atoms: O_2  and  C_13
REMARK    4  A    between atoms: O_3  and  C_15
REMARK    5  A    between atoms: N_9  and  C_14
REMARK    6  A    between atoms: N_10  and  C_23
REMARK    7  A    between atoms: N_11  and  C_19
REMARK    8  A    between atoms: C_17  and  C_20
REMARK    9  A    between atoms: C_19  and  C_21
REMARK   10  A    between atoms: C_19  and  C_22
REMARK   11  A    between atoms: C_22  and  C_26
REMARK   12  A    between atoms: C_22  and  C_27
REMARK   13  A    between atoms: C_23  and  C_24
REMARK   14  A    between atoms: C_23  and  C_28
REMARK   15  A    between atoms: C_24  and  C_25
REMARK                            x       y       z     vdW  Elec       q    Type
REMARK                         _______ _______ _______ _____ _____    ______ ____
ROOT
ATOM     13  C   UNL     1      -4.177   3.423  25.372  0.00  0.00    +0.167 C 
ATOM     14  C   UNL     1      -3.983   2.261  24.382  0.00  0.00    +0.127 C 
ATOM     15  C   UNL     1      -2.996   3.540  26.343  0.00  0.00    +0.149 C 
ATOM     16  C   UNL     1      -1.671   3.717  25.587  0.00  0.00    +0.074 C 
ATOM     17  C   UNL     1      -1.570   2.889  24.343  0.00  0.00    +0.015 C 
ATOM     18  C   UNL     1      -2.599   2.224  23.797  0.00  0.00    +0.006 C 
ENDROOT
BRANCH  17  20
ATOM      4  O   UNL     1       0.409   3.788  23.453  0.00  0.00    -0.271 OA
ATOM     10  N   UNL     1       0.075   1.482  23.364  0.00  0.00    -0.300 N 
ATOM     20  C   UNL     1      -0.267   2.786  23.681  0.00  0.00    +0.241 C 
ATOM     33  H   UNL     1      -0.554   0.715  23.568  0.00  0.00    +0.150 HD
BRANCH  10  23
ATOM     23  C   UNL     1       1.312   1.129  22.704  0.00  0.00    +0.160 C 
BRANCH  23  28
ATOM      8  O   UNL     1       1.598  -0.622  21.044  0.00  0.00    -0.274 OA
ATOM     12  N   UNL     1       0.460  -1.118  22.977  0.00  0.00    -0.328 N 
ATOM     28  C   UNL     1       1.140  -0.270  22.129  0.00  0.00    +0.231 C 
ATOM     36  H   UNL     1       0.090  -0.814  23.872  0.00  0.00    +0.145 HD
ATOM     37  H   UNL     1       0.291  -2.085  22.721  0.00  0.00    +0.145 HD
ENDBRANCH  23  28
BRANCH  23  24
ATOM     24  C   UNL     1       2.506   1.175  23.660  0.00  0.00    +0.054 C 
BRANCH  24  25
ATOM     25  C   UNL     1       3.838   1.223  22.921  0.00  0.00    +0.168 C 
BRANCH  25   1
ATOM      1  S   UNL     1       5.010   0.116  23.640  0.00  0.00    -0.034 S 
ATOM      6  O   UNL     1       6.063  -0.125  22.668  0.00  0.00    -0.175 OA
ATOM      7  O   UNL     1       5.330   0.596  24.973  0.00  0.00    -0.175 OA
ATOM     29  C   UNL     1       4.090  -1.395  23.820  0.00  0.00    +0.194 C 
ENDBRANCH  25   1
ENDBRANCH  24  25
ENDBRANCH  23  24
ENDBRANCH  10  23
ENDBRANCH  17  20
BRANCH  14   9
ATOM      5  O   UNL     1      -2.182   0.018  24.455  0.00  0.00    -0.274 OA
ATOM      9  N   UNL     1      -4.222   0.976  24.999  0.00  0.00    -0.305 N 
ATOM     21  C   UNL     1      -3.290  -0.052  24.984  0.00  0.00    +0.231 C 
ATOM     30  H   UNL     1      -5.131   0.810  25.426  0.00  0.00    +0.149 HD
BRANCH  21  19
ATOM     19  C   UNL     1      -3.792  -1.307  25.696  0.00  0.00    +0.140 C 
BRANCH  19  11
ATOM     11  N   UNL     1      -3.042  -1.415  26.950  0.00  0.00    -0.320 NA
ATOM     34  H   UNL     1      -3.676  -1.661  27.708  0.00  0.00    +0.119 HD
ATOM     35  H   UNL     1      -2.362  -2.172  26.893  0.00  0.00    +0.119 HD
ENDBRANCH  19  11
BRANCH  19  22
ATOM     22  C   UNL     1      -3.650  -2.589  24.841  0.00  0.00    +0.009 C 
ATOM     26  C   UNL     1      -2.200  -2.957  24.505  0.00  0.00    +0.009 C 
ATOM     27  C   UNL     1      -4.475  -2.508  23.553  0.00  0.00    +0.009 C 
ENDBRANCH  19  22
ENDBRANCH  21  19
ENDBRANCH  14   9
BRANCH  13   2
ATOM      2  O   UNL     1      -5.397   3.235  26.083  0.00  0.00    -0.387 OA
ATOM     31  H   UNL     1      -6.022   2.800  25.478  0.00  0.00    +0.210 HD
ENDBRANCH  13   2
BRANCH  15   3
ATOM      3  O   UNL     1      -3.172   4.678  27.185  0.00  0.00    -0.389 OA
ATOM     32  H   UNL     1      -2.393   4.735  27.765  0.00  0.00    +0.210 HD
ENDBRANCH  15   3
TORSDOF 12
ENDMDL
MODEL 3
REMARK VINA RESULT:       0.1      2.249      3.343
REMARK  Name = 11882003
REMARK  15 active torsions:
REMARK  status: ('A' for Active; 'I' for Inactive)
REMARK    1  A    between atoms: S_1  and  C_25
REMARK    2  A    between atoms: S_1  and  C_29
REMARK    3  A    between atoms: O_2  and  C_13
REMARK    4  A    between atoms: O_3  and  C_15
REMARK    5  A    between atoms: N_9  and  C_14
REMARK    6  A    between atoms: N_10  and  C_23
REMARK    7  A    between atoms: N_11  and  C_19
REMARK    8  A    between atoms: C_17  and  C_20
REMARK    9  A    between atoms: C_19  and  C_21
REMARK   10  A    between atoms: C_19  and  C_22
REMARK   11  A    between atoms: C_22  and  C_26
REMARK   12  A    between atoms: C_22  and  C_27
REMARK   13  A    between atoms: C_23  and  C_24
REMARK   14  A    between atoms: C_23  and  C_28
REMARK   15  A    between atoms: C_24  and  C_25
REMARK                            x       y       z     vdW  Elec       q    Type
REMARK                         _______ _______ _______ _____ _____    ______ ____
ROOT
ATOM     13  C   UNL     1      -2.136  -2.042  24.000  0.00  0.00    +0.167 C 
ATOM     14  C   UNL     1      -1.591  -0.761  23.343  0.00  0.00    +0.127 C 
ATOM     15  C   UNL     1      -2.547  -1.798  25.457  0.00  0.00    +0.149 C 
ATOM     16  C   UNL     1      -3.592  -0.677  25.558  0.00  0.00    +0.074 C 
ATOM     17  C   UNL     1      -3.344   0.466  24.624  0.00  0.00    +0.015 C 
ATOM     18  C   UNL     1      -2.442   0.444  23.631  0.00  0.00    +0.006 C 
ENDROOT
BRANCH  17  20
ATOM      4  O   UNL     1      -5.052   1.972  24.049  0.00  0.00    -0.271 OA
ATOM     10  N   UNL     1      -3.691   2.452  25.880  0.00  0.00    -0.300 N 
ATOM     20  C   UNL     1      -4.123   1.694  24.805  0.00  0.00    +0.241 C 
ATOM     33  H   UNL     1      -2.900   2.159  26.439  0.00  0.00    +0.150 HD
BRANCH  10  23
ATOM     23  C   UNL     1      -4.302   3.707  26.255  0.00  0.00    +0.160 C 
BRANCH  23  28
ATOM      8  O   UNL     1      -6.530   4.390  25.566  0.00  0.00    -0.274 OA
ATOM     12  N   UNL     1      -6.272   2.338  26.565  0.00  0.00    -0.328 N 
ATOM     28  C   UNL     1      -5.808   3.549  26.096  0.00  0.00    +0.231 C 
ATOM     36  H   UNL     1      -5.663   1.651  26.997  0.00  0.00    +0.145 HD
ATOM     37  H   UNL     1      -7.256   2.099  26.504  0.00  0.00    +0.145 HD
ENDBRANCH  23  28
BRANCH  23  24
ATOM     24  C   UNL     1      -3.792   4.872  25.404  0.00  0.00    +0.054 C 
BRANCH  24  25
ATOM     25  C   UNL     1      -2.797   4.422  24.342  0.00  0.00    +0.168 C 
BRANCH  25   1
ATOM      1  S   UNL     1      -1.158   4.339  24.994  0.00  0.00    -0.034 S 
ATOM      6  O   UNL     1      -0.544   5.647  24.846  0.00  0.00    -0.175 OA
ATOM      7  O   UNL     1      -1.218   3.693  26.294  0.00  0.00    -0.175 OA
ATOM     29  C   UNL     1      -0.329   3.228  23.880  0.00  0.00    +0.194 C 
ENDBRANCH  25   1
ENDBRANCH  24  25
ENDBRANCH  23  24
ENDBRANCH  10  23
ENDBRANCH  17  20
BRANCH  14   9
ATOM      5  O   UNL     1       0.728  -0.371  21.684  0.00  0.00    -0.274 OA
ATOM      9  N   UNL     1      -0.249  -0.454  23.786  0.00  0.00    -0.305 N 
ATOM     21  C   UNL     1       0.812  -0.282  22.908  0.00  0.00    +0.231 C 
ATOM     30  H   UNL     1      -0.073  -0.403  24.786  0.00  0.00    +0.149 HD
BRANCH  21  19
ATOM     19  C   UNL     1       2.124   0.024  23.629  0.00  0.00    +0.140 C 
BRANCH  19  11
ATOM     11  N   UNL     1       2.207   1.481  23.763  0.00  0.00    -0.320 NA
ATOM     34  H   UNL     1       2.083   1.916  22.850  0.00  0.00    +0.119 HD
ATOM     35  H   UNL     1       1.448   1.828  24.347  0.00  0.00    +0.119 HD
ENDBRANCH  19  11
BRANCH  19  22
ATOM     22  C   UNL     1       3.365  -0.548  22.903  0.00  0.00    +0.009 C 
ATOM     26  C   UNL     1       4.252  -1.433  23.786  0.00  0.00    +0.009 C 
ATOM     27  C   UNL     1       4.211   0.559  22.266  0.00  0.00    +0.009 C 
ENDBRANCH  19  22
ENDBRANCH  21  19
ENDBRANCH  14   9
BRANCH  13   2
ATOM      2  O   UNL     1      -1.149  -3.067  23.919  0.00  0.00    -0.387 OA
ATOM     31  H   UNL     1      -1.351  -3.603  23.134  0.00  0.00    +0.210 HD
ENDBRANCH  13   2
BRANCH  15   3
ATOM      3  O   UNL     1      -3.126  -2.983  26.001  0.00  0.00    -0.389 OA
ATOM     32  H   UNL     1      -2.420  -3.648  26.070  0.00  0.00    +0.210 HD
ENDBRANCH  15   3
TORSDOF 12
ENDMDL
MODEL 4
REMARK VINA RESULT:       1.1      2.380      7.360
REMARK  Name = 11882003
REMARK  15 active torsions:
REMARK  status: ('A' for Active; 'I' for Inactive)
REMARK    1  A    between atoms: S_1  and  C_25
REMARK    2  A    between atoms: S_1  and  C_29
REMARK    3  A    between atoms: O_2  and  C_13
REMARK    4  A    between atoms: O_3  and  C_15
REMARK    5  A    between atoms: N_9  and  C_14
REMARK    6  A    between atoms: N_10  and  C_23
REMARK    7  A    between atoms: N_11  and  C_19
REMARK    8  A    between atoms: C_17  and  C_20
REMARK    9  A    between atoms: C_19  and  C_21
REMARK   10  A    between atoms: C_19  and  C_22
REMARK   11  A    between atoms: C_22  and  C_26
REMARK   12  A    between atoms: C_22  and  C_27
REMARK   13  A    between atoms: C_23  and  C_24
REMARK   14  A    between atoms: C_23  and  C_28
REMARK   15  A    between atoms: C_24  and  C_25
REMARK                            x       y       z     vdW  Elec       q    Type
REMARK                         _______ _______ _______ _____ _____    ______ ____
ROOT
ATOM     13  C   UNL     1      -2.922   4.794  23.722  0.00  0.00    +0.167 C 
ATOM     14  C   UNL     1      -3.193   3.310  23.421  0.00  0.00    +0.127 C 
ATOM     15  C   UNL     1      -2.221   4.978  25.074  0.00  0.00    +0.149 C 
ATOM     16  C   UNL     1      -0.905   4.188  25.127  0.00  0.00    +0.074 C 
ATOM     17  C   UNL     1      -0.979   2.845  24.471  0.00  0.00    +0.015 C 
ATOM     18  C   UNL     1      -2.004   2.435  23.709  0.00  0.00    +0.006 C 
ENDROOT
BRANCH  17  20
ATOM      4  O   UNL     1       0.879   2.018  25.646  0.00  0.00    -0.271 OA
ATOM     10  N   UNL     1       0.212   0.945  23.687  0.00  0.00    -0.300 N 
ATOM     20  C   UNL     1       0.129   1.909  24.677  0.00  0.00    +0.241 C 
ATOM     33  H   UNL     1      -0.435   0.941  22.909  0.00  0.00    +0.150 HD
BRANCH  10  23
ATOM     23  C   UNL     1       1.225  -0.086  23.673  0.00  0.00    +0.160 C 
BRANCH  23  28
ATOM      8  O   UNL     1       1.927  -0.249  21.353  0.00  0.00    -0.274 OA
ATOM     12  N   UNL     1       3.195   1.009  22.796  0.00  0.00    -0.328 N 
ATOM     28  C   UNL     1       2.136   0.184  22.483  0.00  0.00    +0.231 C 
ATOM     36  H   UNL     1       3.353   1.363  23.734  0.00  0.00    +0.145 HD
ATOM     37  H   UNL     1       3.870   1.281  22.089  0.00  0.00    +0.145 HD
ENDBRANCH  23  28
BRANCH  23  24
ATOM     24  C   UNL     1       0.618  -1.488  23.576  0.00  0.00    +0.054 C 
BRANCH  24  25
ATOM     25  C   UNL     1      -0.904  -1.457  23.516  0.00  0.00    +0.168 C 
BRANCH  25   1
ATOM      1  S   UNL     1      -1.617  -1.881  25.074  0.00  0.00    -0.034 S 
ATOM      6  O   UNL     1      -0.841  -2.966  25.649  0.00  0.00    -0.175 OA
ATOM      7  O   UNL     1      -1.838  -0.654  25.821  0.00  0.00    -0.175 OA
ATOM     29  C   UNL     1      -3.210  -2.535  24.633  0.00  0.00    +0.194 C 
ENDBRANCH  25   1
ENDBRANCH  24  25
ENDBRANCH  23  24
ENDBRANCH  10  23
ENDBRANCH  17  20
BRANCH  14   9
ATOM      5  O   UNL     1      -3.974   0.553  23.689  0.00  0.00    -0.274 OA
ATOM      9  N   UNL     1      -4.303   2.793  24.191  0.00  0.00    -0.305 N 
ATOM     21  C   UNL     1      -4.605   1.441  24.261  0.00  0.00    +0.231 C 
ATOM     30  H   UNL     1      -4.908   3.458  24.665  0.00  0.00    +0.149 HD
BRANCH  21  19
ATOM     19  C   UNL     1      -5.830   1.160  25.130  0.00  0.00    +0.140 C 
BRANCH  19  11
ATOM     11  N   UNL     1      -7.002   1.594  24.366  0.00  0.00    -0.320 NA
ATOM     34  H   UNL     1      -7.008   1.135  23.457  0.00  0.00    +0.119 HD
ATOM     35  H   UNL     1      -7.860   1.304  24.835  0.00  0.00    +0.119 HD
ENDBRANCH  19  11
BRANCH  19  22
ATOM     22  C   UNL     1      -5.768   1.852  26.512  0.00  0.00    +0.009 C 
ATOM     26  C   UNL     1      -6.907   1.454  27.460  0.00  0.00    +0.009 C 
ATOM     27  C   UNL     1      -5.712   3.377  26.383  0.00  0.00    +0.009 C 
ENDBRANCH  19  22
ENDBRANCH  21  19
ENDBRANCH  14   9
BRANCH  13   2
ATOM      2  O   UNL     1      -4.154   5.511  23.692  0.00  0.00    -0.387 OA
ATOM     31  H   UNL     1      -4.773   5.048  24.281  0.00  0.00    +0.210 HD
ENDBRANCH  13   2
BRANCH  15   3
ATOM      3  O   UNL     1      -1.911   6.355  25.276  0.00  0.00    -0.389 OA
ATOM     32  H   UNL     1      -2.577   6.878  24.797  0.00  0.00    +0.210 HD
ENDBRANCH  15   3
TORSDOF 12
ENDMDL
MODEL 5
REMARK VINA RESULT:       1.4      3.032      7.225
REMARK  Name = 11882003
REMARK  15 active torsions:
REMARK  status: ('A' for Active; 'I' for Inactive)
REMARK    1  A    between atoms: S_1  and  C_25
REMARK    2  A    between atoms: S_1  and  C_29
REMARK    3  A    between atoms: O_2  and  C_13
REMARK    4  A    between atoms: O_3  and  C_15
REMARK    5  A    between atoms: N_9  and  C_14
REMARK    6  A    between atoms: N_10  and  C_23
REMARK    7  A    between atoms: N_11  and  C_19
REMARK    8  A    between atoms: C_17  and  C_20
REMARK    9  A    between atoms: C_19  and  C_21
REMARK   10  A    between atoms: C_19  and  C_22
REMARK   11  A    between atoms: C_22  and  C_26
REMARK   12  A    between atoms: C_22  and  C_27
REMARK   13  A    between atoms: C_23  and  C_24
REMARK   14  A    between atoms: C_23  and  C_28
REMARK   15  A    between atoms: C_24  and  C_25
REMARK                            x       y       z     vdW  Elec       q    Type
REMARK                         _______ _______ _______ _____ _____    ______ ____
ROOT
ATOM     13  C   UNL     1      -5.730   2.512  25.924  0.00  0.00    +0.167 C 
ATOM     14  C   UNL     1      -4.228   2.523  26.261  0.00  0.00    +0.127 C 
ATOM     15  C   UNL     1      -5.985   1.997  24.502  0.00  0.00    +0.149 C 
ATOM     16  C   UNL     1      -5.398   0.592  24.307  0.00  0.00    +0.074 C 
ATOM     17  C   UNL     1      -4.073   0.392  24.974  0.00  0.00    +0.015 C 
ATOM     18  C   UNL     1      -3.533   1.256  25.847  0.00  0.00    +0.006 C 
ENDROOT
BRANCH  17  20
ATOM      4  O   UNL     1      -3.862  -1.906  24.538  0.00  0.00    -0.271 OA
ATOM     10  N   UNL     1      -1.952  -0.569  24.505  0.00  0.00    -0.300 N 
ATOM     20  C   UNL     1      -3.307  -0.814  24.651  0.00  0.00    +0.241 C 
ATOM     33  H   UNL     1      -1.573   0.360  24.640  0.00  0.00    +0.150 HD
BRANCH  10  23
ATOM     23  C   UNL     1      -0.993  -1.604  24.189  0.00  0.00    +0.160 C 
BRANCH  23  28
ATOM      8  O   UNL     1       0.550  -2.877  25.568  0.00  0.00    -0.274 OA
ATOM     12  N   UNL     1      -0.580  -1.120  26.523  0.00  0.00    -0.328 N 
ATOM     28  C   UNL     1      -0.265  -1.962  25.478  0.00  0.00    +0.231 C 
ATOM     36  H   UNL     1      -1.253  -0.366  26.432  0.00  0.00    +0.145 HD
ATOM     37  H   UNL     1      -0.151  -1.239  27.434  0.00  0.00    +0.145 HD
ENDBRANCH  23  28
BRANCH  23  24
ATOM     24  C   UNL     1       0.002  -1.156  23.117  0.00  0.00    +0.054 C 
BRANCH  24  25
ATOM     25  C   UNL     1       0.829   0.045  23.558  0.00  0.00    +0.168 C 
BRANCH  25   1
ATOM      1  S   UNL     1       2.357   0.130  22.679  0.00  0.00    -0.034 S 
ATOM      6  O   UNL     1       2.109  -0.249  21.298  0.00  0.00    -0.175 OA
ATOM      7  O   UNL     1       2.993   1.398  22.994  0.00  0.00    -0.175 OA
ATOM     29  C   UNL     1       3.331  -1.158  23.423  0.00  0.00    +0.194 C 
ENDBRANCH  25   1
ENDBRANCH  24  25
ENDBRANCH  23  24
ENDBRANCH  10  23
ENDBRANCH  17  20
BRANCH  14   9
ATOM      5  O   UNL     1      -1.575   3.468  26.848  0.00  0.00    -0.274 OA
ATOM      9  N   UNL     1      -3.537   3.620  25.622  0.00  0.00    -0.305 N 
ATOM     21  C   UNL     1      -2.252   4.006  25.973  0.00  0.00    +0.231 C 
ATOM     30  H   UNL     1      -4.035   4.154  24.914  0.00  0.00    +0.149 HD
BRANCH  21  19
ATOM     19  C   UNL     1      -1.754   5.198  25.156  0.00  0.00    +0.140 C 
BRANCH  19  11
ATOM     11  N   UNL     1      -2.788   5.493  24.161  0.00  0.00    -0.320 NA
ATOM     34  H   UNL     1      -2.749   6.480  23.909  0.00  0.00    +0.119 HD
ATOM     35  H   UNL     1      -2.612   4.974  23.301  0.00  0.00    +0.119 HD
ENDBRANCH  19  11
BRANCH  19  22
ATOM     22  C   UNL     1      -0.382   4.948  24.488  0.00  0.00    +0.009 C 
ATOM     26  C   UNL     1      -0.220   5.628  23.123  0.00  0.00    +0.009 C 
ATOM     27  C   UNL     1      -0.077   3.452  24.359  0.00  0.00    +0.009 C 
ENDBRANCH  19  22
ENDBRANCH  21  19
ENDBRANCH  14   9
BRANCH  13   2
ATOM      2  O   UNL     1      -6.257   3.825  26.087  0.00  0.00    -0.387 OA
ATOM     31  H   UNL     1      -6.289   4.236  25.206  0.00  0.00    +0.210 HD
ENDBRANCH  13   2
BRANCH  15   3
ATOM      3  O   UNL     1      -7.389   1.920  24.260  0.00  0.00    -0.389 OA
ATOM     32  H   UNL     1      -7.538   1.188  23.638  0.00  0.00    +0.210 HD
ENDBRANCH  15   3
TORSDOF 12
ENDMDL
MODEL 6
REMARK VINA RESULT:       1.5      2.456      4.681
REMARK  Name = 11882003
REMARK  15 active torsions:
REMARK  status: ('A' for Active; 'I' for Inactive)
REMARK    1  A    between atoms: S_1  and  C_25
REMARK    2  A    between atoms: S_1  and  C_29
REMARK    3  A    between atoms: O_2  and  C_13
REMARK    4  A    between atoms: O_3  and  C_15
REMARK    5  A    between atoms: N_9  and  C_14
REMARK    6  A    between atoms: N_10  and  C_23
REMARK    7  A    between atoms: N_11  and  C_19
REMARK    8  A    between atoms: C_17  and  C_20
REMARK    9  A    between atoms: C_19  and  C_21
REMARK   10  A    between atoms: C_19  and  C_22
REMARK   11  A    between atoms: C_22  and  C_26
REMARK   12  A    between atoms: C_22  and  C_27
REMARK   13  A    between atoms: C_23  and  C_24
REMARK   14  A    between atoms: C_23  and  C_28
REMARK   15  A    between atoms: C_24  and  C_25
REMARK                            x       y       z     vdW  Elec       q    Type
REMARK                         _______ _______ _______ _____ _____    ______ ____
ROOT
ATOM     13  C   UNL     1       0.947  -1.082  24.952  0.00  0.00    +0.167 C 
ATOM     14  C   UNL     1      -0.439  -0.727  25.518  0.00  0.00    +0.127 C 
ATOM     15  C   UNL     1       1.115  -0.578  23.513  0.00  0.00    +0.149 C 
ATOM     16  C   UNL     1       0.890   0.939  23.426  0.00  0.00    +0.074 C 
ATOM     17  C   UNL     1      -0.225   1.435  24.294  0.00  0.00    +0.015 C 
ATOM     18  C   UNL     1      -0.835   0.694  25.231  0.00  0.00    +0.006 C 
ENDROOT
BRANCH  17  20
ATOM      4  O   UNL     1       0.098   3.717  23.842  0.00  0.00    -0.271 OA
ATOM     10  N   UNL     1      -2.060   2.942  24.265  0.00  0.00    -0.300 N 
ATOM     20  C   UNL     1      -0.691   2.811  24.107  0.00  0.00    +0.241 C 
ATOM     33  H   UNL     1      -2.635   2.145  24.507  0.00  0.00    +0.150 HD
BRANCH  10  23
ATOM     23  C   UNL     1      -2.752   4.205  24.131  0.00  0.00    +0.160 C 
BRANCH  23  28
ATOM      8  O   UNL     1      -1.777   6.032  25.402  0.00  0.00    -0.274 OA
ATOM     12  N   UNL     1      -3.111   4.521  26.502  0.00  0.00    -0.328 N 
ATOM     28  C   UNL     1      -2.468   5.017  25.388  0.00  0.00    +0.231 C 
ATOM     36  H   UNL     1      -3.682   3.683  26.475  0.00  0.00    +0.145 HD
ATOM     37  H   UNL     1      -3.018   4.979  27.403  0.00  0.00    +0.145 HD
ENDBRANCH  23  28
BRANCH  23  24
ATOM     24  C   UNL     1      -4.259   4.017  23.942  0.00  0.00    +0.054 C 
BRANCH  24  25
ATOM     25  C   UNL     1      -4.664   2.548  23.942  0.00  0.00    +0.168 C 
BRANCH  25   1
ATOM      1  S   UNL     1      -5.846   2.209  25.208  0.00  0.00    -0.034 S 
ATOM      6  O   UNL     1      -5.844   3.322  26.143  0.00  0.00    -0.175 OA
ATOM      7  O   UNL     1      -7.081   1.779  24.574  0.00  0.00    -0.175 OA
ATOM     29  C   UNL     1      -5.156   0.802  26.048  0.00  0.00    +0.194 C 
ENDBRANCH  25   1
ENDBRANCH  24  25
ENDBRANCH  23  24
ENDBRANCH  10  23
ENDBRANCH  17  20
BRANCH  14   9
ATOM      5  O   UNL     1      -2.957  -1.367  26.755  0.00  0.00    -0.274 OA
ATOM      9  N   UNL     1      -1.477  -1.579  24.983  0.00  0.00    -0.305 N 
ATOM     21  C   UNL     1      -2.665  -1.831  25.654  0.00  0.00    +0.231 C 
ATOM     30  H   UNL     1      -1.307  -2.044  24.094  0.00  0.00    +0.149 HD
BRANCH  21  19
ATOM     19  C   UNL     1      -3.588  -2.771  24.879  0.00  0.00    +0.140 C 
BRANCH  19  11
ATOM     11  N   UNL     1      -2.729  -3.723  24.171  0.00  0.00    -0.320 NA
ATOM     34  H   UNL     1      -2.447  -4.468  24.807  0.00  0.00    +0.119 HD
ATOM     35  H   UNL     1      -3.245  -4.175  23.417  0.00  0.00    +0.119 HD
ENDBRANCH  19  11
BRANCH  19  22
ATOM     22  C   UNL     1      -4.532  -2.029  23.904  0.00  0.00    +0.009 C 
ATOM     26  C   UNL     1      -5.076  -2.909  22.773  0.00  0.00    +0.009 C 
ATOM     27  C   UNL     1      -3.872  -0.779  23.314  0.00  0.00    +0.009 C 
ENDBRANCH  19  22
ENDBRANCH  21  19
ENDBRANCH  14   9
BRANCH  13   2
ATOM      2  O   UNL     1       1.135  -2.493  25.016  0.00  0.00    -0.387 OA
ATOM     31  H   UNL     1       0.544  -2.894  24.356  0.00  0.00    +0.210 HD
ENDBRANCH  13   2
BRANCH  15   3
ATOM      3  O   UNL     1       2.439  -0.848  23.056  0.00  0.00    -0.389 OA
ATOM     32  H   UNL     1       2.396  -1.633  22.483  0.00  0.00    +0.210 HD
ENDBRANCH  15   3
TORSDOF 12
ENDMDL
MODEL 7
REMARK VINA RESULT:       2.1      3.574      6.935
REMARK  Name = 11882003
REMARK  15 active torsions:
REMARK  status: ('A' for Active; 'I' for Inactive)
REMARK    1  A    between atoms: S_1  and  C_25
REMARK    2  A    between atoms: S_1  and  C_29
REMARK    3  A    between atoms: O_2  and  C_13
REMARK    4  A    between atoms: O_3  and  C_15
REMARK    5  A    between atoms: N_9  and  C_14
REMARK    6  A    between atoms: N_10  and  C_23
REMARK    7  A    between atoms: N_11  and  C_19
REMARK    8  A    between atoms: C_17  and  C_20
REMARK    9  A    between atoms: C_19  and  C_21
REMARK   10  A    between atoms: C_19  and  C_22
REMARK   11  A    between atoms: C_22  and  C_26
REMARK   12  A    between atoms: C_22  and  C_27
REMARK   13  A    between atoms: C_23  and  C_24
REMARK   14  A    between atoms: C_23  and  C_28
REMARK   15  A    between atoms: C_24  and  C_25
REMARK                            x       y       z     vdW  Elec       q    Type
REMARK                         _______ _______ _______ _____ _____    ______ ____
ROOT
ATOM     13  C   UNL     1      -5.716   2.609  24.529  0.00  0.00    +0.167 C 
ATOM     14  C   UNL     1      -4.698   1.629  23.921  0.00  0.00    +0.127 C 
ATOM     15  C   UNL     1      -5.272   3.099  25.913  0.00  0.00    +0.149 C 
ATOM     16  C   UNL     1      -3.888   3.761  25.849  0.00  0.00    +0.074 C 
ATOM     17  C   UNL     1      -2.930   3.071  24.929  0.00  0.00    +0.015 C 
ATOM     18  C   UNL     1      -3.279   2.107  24.065  0.00  0.00    +0.006 C 
ENDROOT
BRANCH  17  20
ATOM      4  O   UNL     1      -1.187   4.645  24.978  0.00  0.00    -0.271 OA
ATOM     10  N   UNL     1      -0.660   2.374  25.012  0.00  0.00    -0.300 N 
ATOM     20  C   UNL     1      -1.518   3.460  24.976  0.00  0.00    +0.241 C 
ATOM     33  H   UNL     1      -1.018   1.427  24.984  0.00  0.00    +0.150 HD
BRANCH  10  23
ATOM     23  C   UNL     1       0.778   2.507  25.059  0.00  0.00    +0.160 C 
BRANCH  23  28
ATOM      8  O   UNL     1       2.478   1.794  23.475  0.00  0.00    -0.274 OA
ATOM     12  N   UNL     1       0.501   0.628  23.561  0.00  0.00    -0.328 N 
ATOM     28  C   UNL     1       1.354   1.639  23.948  0.00  0.00    +0.231 C 
ATOM     36  H   UNL     1      -0.423   0.510  23.964  0.00  0.00    +0.145 HD
ATOM     37  H   UNL     1       0.770  -0.032  22.840  0.00  0.00    +0.145 HD
ENDBRANCH  23  28
BRANCH  23  24
ATOM     24  C   UNL     1       1.350   2.090  26.417  0.00  0.00    +0.054 C 
BRANCH  24  25
ATOM     25  C   UNL     1       1.067   3.118  27.505  0.00  0.00    +0.168 C 
BRANCH  25   1
ATOM      1  S   UNL     1       2.256   3.018  28.806  0.00  0.00    -0.034 S 
ATOM      6  O   UNL     1       3.295   2.085  28.402  0.00  0.00    -0.175 OA
ATOM      7  O   UNL     1       2.595   4.370  29.216  0.00  0.00    -0.175 OA
ATOM     29  C   UNL     1       1.347   2.266  30.136  0.00  0.00    +0.194 C 
ENDBRANCH  25   1
ENDBRANCH  24  25
ENDBRANCH  23  24
ENDBRANCH  10  23
ENDBRANCH  17  20
BRANCH  14   9
ATOM      5  O   UNL     1      -2.497   0.034  24.867  0.00  0.00    -0.274 OA
ATOM      9  N   UNL     1      -4.774   0.320  24.530  0.00  0.00    -0.305 N 
ATOM     21  C   UNL     1      -3.653  -0.377  24.958  0.00  0.00    +0.231 C 
ATOM     30  H   UNL     1      -5.687  -0.121  24.608  0.00  0.00    +0.149 HD
BRANCH  21  19
ATOM     19  C   UNL     1      -4.004  -1.740  25.554  0.00  0.00    +0.140 C 
BRANCH  19  11
ATOM     11  N   UNL     1      -3.342  -1.817  26.859  0.00  0.00    -0.320 NA
ATOM     34  H   UNL     1      -2.345  -1.638  26.748  0.00  0.00    +0.119 HD
ATOM     35  H   UNL     1      -3.694  -1.088  27.479  0.00  0.00    +0.119 HD
ENDBRANCH  19  11
BRANCH  19  22
ATOM     22  C   UNL     1      -3.600  -2.925  24.645  0.00  0.00    +0.009 C 
ATOM     26  C   UNL     1      -2.103  -2.977  24.318  0.00  0.00    +0.009 C 
ATOM     27  C   UNL     1      -4.414  -2.950  23.348  0.00  0.00    +0.009 C 
ENDBRANCH  19  22
ENDBRANCH  21  19
ENDBRANCH  14   9
BRANCH  13   2
ATOM      2  O   UNL     1      -6.990   1.975  24.605  0.00  0.00    -0.387 OA
ATOM     31  H   UNL     1      -6.836   1.039  24.819  0.00  0.00    +0.210 HD
ENDBRANCH  13   2
BRANCH  15   3
ATOM      3  O   UNL     1      -6.196   4.068  26.404  0.00  0.00    -0.389 OA
ATOM     32  H   UNL     1      -6.776   3.621  27.044  0.00  0.00    +0.210 HD
ENDBRANCH  15   3
TORSDOF 12
ENDMDL
MODEL 8
REMARK VINA RESULT:       2.8      1.750      2.123
REMARK  Name = 11882003
REMARK  15 active torsions:
REMARK  status: ('A' for Active; 'I' for Inactive)
REMARK    1  A    between atoms: S_1  and  C_25
REMARK    2  A    between atoms: S_1  and  C_29
REMARK    3  A    between atoms: O_2  and  C_13
REMARK    4  A    between atoms: O_3  and  C_15
REMARK    5  A    between atoms: N_9  and  C_14
REMARK    6  A    between atoms: N_10  and  C_23
REMARK    7  A    between atoms: N_11  and  C_19
REMARK    8  A    between atoms: C_17  and  C_20
REMARK    9  A    between atoms: C_19  and  C_21
REMARK   10  A    between atoms: C_19  and  C_22
REMARK   11  A    between atoms: C_22  and  C_26
REMARK   12  A    between atoms: C_22  and  C_27
REMARK   13  A    between atoms: C_23  and  C_24
REMARK   14  A    between atoms: C_23  and  C_28
REMARK   15  A    between atoms: C_24  and  C_25
REMARK                            x       y       z     vdW  Elec       q    Type
REMARK                         _______ _______ _______ _____ _____    ______ ____
ROOT
ATOM     13  C   UNL     1      -0.819  -1.720  23.551  0.00  0.00    +0.167 C 
ATOM     14  C   UNL     1       0.126  -0.603  23.077  0.00  0.00    +0.127 C 
ATOM     15  C   UNL     1      -1.030  -1.675  25.070  0.00  0.00    +0.149 C 
ATOM     16  C   UNL     1      -1.576  -0.310  25.513  0.00  0.00    +0.074 C 
ATOM     17  C   UNL     1      -0.972   0.849  24.782  0.00  0.00    +0.015 C 
ATOM     18  C   UNL     1      -0.199   0.730  23.692  0.00  0.00    +0.006 C 
ENDROOT
BRANCH  17  20
ATOM      4  O   UNL     1      -0.689   2.603  26.319  0.00  0.00    -0.271 OA
ATOM     10  N   UNL     1      -2.110   2.914  24.497  0.00  0.00    -0.300 N 
ATOM     20  C   UNL     1      -1.227   2.199  25.289  0.00  0.00    +0.241 C 
ATOM     33  H   UNL     1      -2.527   2.496  23.675  0.00  0.00    +0.150 HD
BRANCH  10  23
ATOM     23  C   UNL     1      -2.518   4.268  24.795  0.00  0.00    +0.160 C 
BRANCH  23  28
ATOM      8  O   UNL     1      -1.230   6.254  25.345  0.00  0.00    -0.274 OA
ATOM     12  N   UNL     1      -0.139   4.464  24.408  0.00  0.00    -0.328 N 
ATOM     28  C   UNL     1      -1.258   5.119  24.874  0.00  0.00    +0.231 C 
ATOM     36  H   UNL     1      -0.176   3.524  24.026  0.00  0.00    +0.145 HD
ATOM     37  H   UNL     1       0.771   4.913  24.420  0.00  0.00    +0.145 HD
ENDBRANCH  23  28
BRANCH  23  24
ATOM     24  C   UNL     1      -3.308   4.355  26.104  0.00  0.00    +0.054 C 
BRANCH  24  25
ATOM     25  C   UNL     1      -4.778   4.004  25.917  0.00  0.00    +0.168 C 
BRANCH  25   1
ATOM      1  S   UNL     1      -4.969   2.502  25.008  0.00  0.00    -0.034 S 
ATOM      6  O   UNL     1      -4.754   2.793  23.601  0.00  0.00    -0.175 OA
ATOM      7  O   UNL     1      -4.198   1.467  25.675  0.00  0.00    -0.175 OA
ATOM     29  C   UNL     1      -6.690   2.110  25.220  0.00  0.00    +0.194 C 
ENDBRANCH  25   1
ENDBRANCH  24  25
ENDBRANCH  23  24
ENDBRANCH  10  23
ENDBRANCH  17  20
BRANCH  14   9
ATOM      5  O   UNL     1       2.427   0.022  21.466  0.00  0.00    -0.274 OA
ATOM      9  N   UNL     1       1.508  -0.893  23.388  0.00  0.00    -0.305 N 
ATOM     21  C   UNL     1       2.557  -0.552  22.546  0.00  0.00    +0.231 C 
ATOM     30  H   UNL     1       1.711  -1.405  24.243  0.00  0.00    +0.149 HD
BRANCH  21  19
ATOM     19  C   UNL     1       3.915  -0.979  23.100  0.00  0.00    +0.140 C 
BRANCH  19  11
ATOM     11  N   UNL     1       3.658  -1.712  24.342  0.00  0.00    -0.320 NA
ATOM     34  H   UNL     1       4.462  -1.629  24.961  0.00  0.00    +0.119 HD
ATOM     35  H   UNL     1       2.871  -1.300  24.841  0.00  0.00    +0.119 HD
ENDBRANCH  19  11
BRANCH  19  22
ATOM     22  C   UNL     1       4.878   0.209  23.336  0.00  0.00    +0.009 C 
ATOM     26  C   UNL     1       6.237   0.057  22.644  0.00  0.00    +0.009 C 
ATOM     27  C   UNL     1       5.085   0.486  24.828  0.00  0.00    +0.009 C 
ENDBRANCH  19  22
ENDBRANCH  21  19
ENDBRANCH  14   9
BRANCH  13   2
ATOM      2  O   UNL     1      -0.290  -2.982  23.154  0.00  0.00    -0.387 OA
ATOM     31  H   UNL     1      -0.255  -2.989  22.182  0.00  0.00    +0.210 HD
ENDBRANCH  13   2
BRANCH  15   3
ATOM      3  O   UNL     1      -1.977  -2.669  25.457  0.00  0.00    -0.389 OA
ATOM     32  H   UNL     1      -2.593  -2.791  24.713  0.00  0.00    +0.210 HD
ENDBRANCH  15   3
TORSDOF 12
ENDMDL
MODEL 9
REMARK VINA RESULT:       3.0      1.857      3.309
REMARK  Name = 11882003
REMARK  15 active torsions:
REMARK  status: ('A' for Active; 'I' for Inactive)
REMARK    1  A    between atoms: S_1  and  C_25
REMARK    2  A    between atoms: S_1  and  C_29
REMARK    3  A    between atoms: O_2  and  C_13
REMARK    4  A    between atoms: O_3  and  C_15
REMARK    5  A    between atoms: N_9  and  C_14
REMARK    6  A    between atoms: N_10  and  C_23
REMARK    7  A    between atoms: N_11  and  C_19
REMARK    8  A    between atoms: C_17  and  C_20
REMARK    9  A    between atoms: C_19  and  C_21
REMARK   10  A    between atoms: C_19  and  C_22
REMARK   11  A    between atoms: C_22  and  C_26
REMARK   12  A    between atoms: C_22  and  C_27
REMARK   13  A    between atoms: C_23  and  C_24
REMARK   14  A    between atoms: C_23  and  C_28
REMARK   15  A    between atoms: C_24  and  C_25
REMARK                            x       y       z     vdW  Elec       q    Type
REMARK                         _______ _______ _______ _____ _____    ______ ____
ROOT
ATOM     13  C   UNL     1      -0.332  -1.215  23.665  0.00  0.00    +0.167 C 
ATOM     14  C   UNL     1      -0.078   0.242  23.240  0.00  0.00    +0.127 C 
ATOM     15  C   UNL     1      -0.396  -1.356  25.191  0.00  0.00    +0.149 C 
ATOM     16  C   UNL     1      -1.479  -0.444  25.786  0.00  0.00    +0.074 C 
ATOM     17  C   UNL     1      -1.568   0.898  25.129  0.00  0.00    +0.015 C 
ATOM     18  C   UNL     1      -0.937   1.221  23.990  0.00  0.00    +0.006 C 
ENDROOT
BRANCH  17  20
ATOM      4  O   UNL     1      -1.909   2.675  26.627  0.00  0.00    -0.271 OA
ATOM     10  N   UNL     1      -3.688   1.955  25.304  0.00  0.00    -0.300 N 
ATOM     20  C   UNL     1      -2.384   1.933  25.769  0.00  0.00    +0.241 C 
ATOM     33  H   UNL     1      -4.004   1.289  24.609  0.00  0.00    +0.150 HD
BRANCH  10  23
ATOM     23  C   UNL     1      -4.682   2.886  25.788  0.00  0.00    +0.160 C 
BRANCH  23  28
ATOM      8  O   UNL     1      -6.568   1.826  24.681  0.00  0.00    -0.274 OA
ATOM     12  N   UNL     1      -6.571   1.950  26.974  0.00  0.00    -0.328 N 
ATOM     28  C   UNL     1      -6.033   2.185  25.727  0.00  0.00    +0.231 C 
ATOM     36  H   UNL     1      -6.116   2.250  27.831  0.00  0.00    +0.145 HD
ATOM     37  H   UNL     1      -7.462   1.476  27.076  0.00  0.00    +0.145 HD
ENDBRANCH  23  28
BRANCH  23  24
ATOM     24  C   UNL     1      -4.709   4.176  24.966  0.00  0.00    +0.054 C 
BRANCH  24  25
ATOM     25  C   UNL     1      -3.541   4.268  23.993  0.00  0.00    +0.168 C 
BRANCH  25   1
ATOM      1  S   UNL     1      -2.213   5.211  24.673  0.00  0.00    -0.034 S 
ATOM      6  O   UNL     1      -2.508   5.469  26.072  0.00  0.00    -0.175 OA
ATOM      7  O   UNL     1      -0.963   4.580  24.286  0.00  0.00    -0.175 OA
ATOM     29  C   UNL     1      -2.323   6.760  23.806  0.00  0.00    +0.194 C 
ENDBRANCH  25   1
ENDBRANCH  24  25
ENDBRANCH  23  24
ENDBRANCH  10  23
ENDBRANCH  17  20
BRANCH  14   9
ATOM      5  O   UNL     1       2.139  -0.255  21.474  0.00  0.00    -0.274 OA
ATOM      9  N   UNL     1       1.299   0.634  23.444  0.00  0.00    -0.305 N 
ATOM     21  C   UNL     1       2.305   0.350  22.532  0.00  0.00    +0.231 C 
ATOM     30  H   UNL     1       1.541   1.103  24.313  0.00  0.00    +0.149 HD
BRANCH  21  19
ATOM     19  C   UNL     1       3.670   0.863  22.988  0.00  0.00    +0.140 C 
BRANCH  19  11
ATOM     11  N   UNL     1       4.426   1.197  21.778  0.00  0.00    -0.320 NA
ATOM     34  H   UNL     1       5.424   1.110  21.963  0.00  0.00    +0.119 HD
ATOM     35  H   UNL     1       4.216   0.534  21.033  0.00  0.00    +0.119 HD
ENDBRANCH  19  11
BRANCH  19  22
ATOM     22  C   UNL     1       4.438  -0.150  23.871  0.00  0.00    +0.009 C 
ATOM     26  C   UNL     1       5.960  -0.100  23.696  0.00  0.00    +0.009 C 
ATOM     27  C   UNL     1       3.939  -1.582  23.657  0.00  0.00    +0.009 C 
ENDBRANCH  19  22
ENDBRANCH  21  19
ENDBRANCH  14   9
BRANCH  13   2
ATOM      2  O   UNL     1       0.692  -2.047  23.125  0.00  0.00    -0.387 OA
ATOM     31  H   UNL     1       1.190  -2.417  23.874  0.00  0.00    +0.210 HD
ENDBRANCH  13   2
BRANCH  15   3
ATOM      3  O   UNL     1      -0.718  -2.701  25.540  0.00  0.00    -0.389 OA
ATOM     32  H   UNL     1      -0.889  -3.184  24.714  0.00  0.00    +0.210 HD
ENDBRANCH  15   3
TORSDOF 12
ENDMDL
