MODEL 1
REMARK VINA RESULT:       4.0      0.000      0.000
REMARK  Name = 11885117
REMARK  4 active torsions:
REMARK  status: ('A' for Active; 'I' for Inactive)
REMARK    1  A    between atoms: O_4  and  C_28
REMARK    2  A    between atoms: O_4  and  C_29
REMARK    3  A    between atoms: C_16  and  C_19
REMARK    4  A    between atoms: C_17  and  C_20
REMARK                            x       y       z     vdW  Elec       q    Type
REMARK                         _______ _______ _______ _____ _____    ______ ____
ROOT
ATOM      2  O   UNL     1       0.476   2.175  25.409  0.00  0.00    -0.267 OA
ATOM      3  O   UNL     1      -3.486  -0.630  26.990  0.00  0.00    -0.269 OA
ATOM      5  N   UNL     1      -4.293   0.777  25.302  0.00  0.00    -0.296 N 
ATOM      6  N   UNL     1      -1.632   2.227  24.412  0.00  0.00    -0.311 N 
ATOM      7  C   UNL     1      -3.696   3.171  25.601  0.00  0.00    +0.027 C 
ATOM      8  C   UNL     1      -3.907   2.238  23.332  0.00  0.00    +0.054 C 
ATOM      9  C   UNL     1      -4.199   3.467  24.191  0.00  0.00    +0.018 C 
ATOM     10  C   UNL     1      -4.416   1.939  26.179  0.00  0.00    +0.113 C 
ATOM     11  C   UNL     1      -2.175   2.981  25.551  0.00  0.00    +0.130 C 
ATOM     12  C   UNL     1      -4.665   1.019  23.899  0.00  0.00    +0.117 C 
ATOM     13  C   UNL     1      -2.421   1.937  23.296  0.00  0.00    +0.027 A 
ATOM     14  C   UNL     1      -1.874   1.357  22.216  0.00  0.00    +0.022 A 
ATOM     15  C   UNL     1      -0.261   1.907  24.458  0.00  0.00    +0.259 A 
ATOM     16  C   UNL     1      -3.798  -0.424  25.818  0.00  0.00    +0.253 C 
ATOM     17  C   UNL     1       0.312   1.214  23.252  0.00  0.00    +0.047 A 
ATOM     18  C   UNL     1      -0.488   0.986  22.199  0.00  0.00    +0.015 A 
ENDROOT
BRANCH  17  20
ATOM     20  C   UNL     1       1.717   0.774  23.221  0.00  0.00    -0.012 A 
ATOM     22  C   UNL     1       2.731   1.693  22.947  0.00  0.00    +0.012 A 
ATOM     23  C   UNL     1       2.035  -0.563  23.464  0.00  0.00    +0.012 A 
ATOM     26  C   UNL     1       4.061   1.276  22.917  0.00  0.00    +0.046 A 
ATOM     27  C   UNL     1       3.365  -0.980  23.434  0.00  0.00    +0.046 A 
ATOM     28  C   UNL     1       4.378  -0.060  23.160  0.00  0.00    +0.120 A 
BRANCH  28   4
ATOM      4  O   UNL     1       5.677  -0.467  23.131  0.00  0.00    -0.495 OA
ATOM     29  C   UNL     1       6.212  -1.016  24.334  0.00  0.00    +0.277 C 
ENDBRANCH  28   4
ENDBRANCH  17  20
BRANCH  16  19
ATOM      1  S   UNL     1      -2.034  -2.191  24.694  0.00  0.00    -0.092 S 
ATOM     19  C   UNL     1      -3.604  -1.544  24.891  0.00  0.00    +0.074 A 
ATOM     21  C   UNL     1      -4.537  -2.188  24.115  0.00  0.00    +0.021 A 
ATOM     24  C   UNL     1      -3.954  -3.234  23.344  0.00  0.00    +0.008 A 
ATOM     25  C   UNL     1      -2.599  -3.345  23.562  0.00  0.00    +0.046 A 
ENDBRANCH  16  19
TORSDOF 3
ENDMDL
