MODEL 1
REMARK VINA RESULT:      -1.2      0.000      0.000
REMARK  Name = 38026794
REMARK  9 active torsions:
REMARK  status: ('A' for Active; 'I' for Inactive)
REMARK    1  A    between atoms: O_5  and  C_12
REMARK    2  A    between atoms: O_6  and  C_20
REMARK    3  A    between atoms: N_8  and  C_10
REMARK    4  A    between atoms: N_9  and  C_19
REMARK    5  A    between atoms: C_11  and  C_19
REMARK    6  A    between atoms: C_13  and  C_20
REMARK    7  A    between atoms: C_16  and  C_21
REMARK    8  A    between atoms: C_22  and  C_23
REMARK    9  A    between atoms: C_28  and  C_29
REMARK                            x       y       z     vdW  Elec       q    Type
REMARK                         _______ _______ _______ _____ _____    ______ ____
ROOT
ATOM      4  O   UNL     1      -2.983   4.088  25.579  0.00  0.00    -0.365 OA
ATOM     10  C   UNL     1      -3.306   1.730  25.650  0.00  0.00    +0.118 C 
ATOM     11  C   UNL     1      -2.290   2.841  25.350  0.00  0.00    +0.155 C 
ATOM     12  C   UNL     1      -4.642   2.409  25.392  0.00  0.00    +0.165 C 
ATOM     13  C   UNL     1      -4.354   3.807  25.923  0.00  0.00    +0.174 C 
ENDROOT
BRANCH  10   8
ATOM      8  N   UNL     1      -3.104   0.472  24.953  0.00  0.00    -0.295 NA
ATOM     14  C   UNL     1      -4.390  -0.200  24.724  0.00  0.00    +0.085 C 
ATOM     15  C   UNL     1      -2.183  -0.391  25.705  0.00  0.00    +0.085 C 
ATOM     16  C   UNL     1      -3.224  -2.442  24.655  0.00  0.00    -0.012 C 
ATOM     17  C   UNL     1      -4.202  -1.502  23.943  0.00  0.00    +0.018 C 
ATOM     18  C   UNL     1      -1.918  -1.700  24.957  0.00  0.00    +0.018 C 
ATOM     21  C   UNL     1      -2.963  -3.695  23.824  0.00  0.00    +0.007 C 
ENDBRANCH  10   8
BRANCH  12   5
ATOM      5  O   UNL     1      -4.941   2.458  24.003  0.00  0.00    -0.388 OA
ATOM     30  H   UNL     1      -5.771   1.971  23.864  0.00  0.00    +0.210 HD
ENDBRANCH  12   5
BRANCH  11  19
ATOM     19  C   UNL     1      -1.728   2.889  23.934  0.00  0.00    +0.137 C 
BRANCH  19   9
ATOM      7  O   UNL     1      -0.910   0.505  22.560  0.00  0.00    -0.270 OA
ATOM      9  N   UNL     1      -0.406   2.342  23.885  0.00  0.00    -0.309 N 
ATOM     22  C   UNL     1      -0.096   1.174  23.191  0.00  0.00    +0.244 C 
ATOM     31  H   UNL     1       0.300   2.808  24.445  0.00  0.00    +0.149 HD
BRANCH  22  23
ATOM     23  C   UNL     1       1.318   0.724  23.259  0.00  0.00    +0.037 A 
ATOM     24  C   UNL     1       2.352   1.646  23.095  0.00  0.00    +0.013 A 
ATOM     25  C   UNL     1       1.612  -0.621  23.486  0.00  0.00    +0.013 A 
ATOM     26  C   UNL     1       3.680   1.223  23.158  0.00  0.00    +0.013 A 
ATOM     27  C   UNL     1       2.940  -1.044  23.549  0.00  0.00    +0.013 A 
ATOM     28  C   UNL     1       3.974  -0.121  23.385  0.00  0.00    +0.055 A 
BRANCH  28  29
ATOM      1  F   UNL     1       6.117  -0.278  22.334  0.00  0.00    -0.166 F 
ATOM      2  F   UNL     1       5.507  -1.922  23.620  0.00  0.00    -0.166 F 
ATOM      3  F   UNL     1       6.095  -0.016  24.486  0.00  0.00    -0.166 F 
ATOM     29  C   UNL     1       5.394  -0.573  23.454  0.00  0.00    +0.417 C 
ENDBRANCH  28  29
ENDBRANCH  22  23
ENDBRANCH  19   9
ENDBRANCH  11  19
BRANCH  13  20
ATOM     20  C   UNL     1      -5.244   4.910  25.377  0.00  0.00    +0.190 C 
BRANCH  20   6
ATOM      6  O   UNL     1      -6.583   4.656  25.769  0.00  0.00    -0.392 OA
ATOM     32  H   UNL     1      -7.148   4.859  25.006  0.00  0.00    +0.210 HD
ENDBRANCH  20   6
ENDBRANCH  13  20
TORSDOF 8
ENDMDL
MODEL 2
REMARK VINA RESULT:       0.2      4.845      7.786
REMARK  Name = 38026794
REMARK  9 active torsions:
REMARK  status: ('A' for Active; 'I' for Inactive)
REMARK    1  A    between atoms: O_5  and  C_12
REMARK    2  A    between atoms: O_6  and  C_20
REMARK    3  A    between atoms: N_8  and  C_10
REMARK    4  A    between atoms: N_9  and  C_19
REMARK    5  A    between atoms: C_11  and  C_19
REMARK    6  A    between atoms: C_13  and  C_20
REMARK    7  A    between atoms: C_16  and  C_21
REMARK    8  A    between atoms: C_22  and  C_23
REMARK    9  A    between atoms: C_28  and  C_29
REMARK                            x       y       z     vdW  Elec       q    Type
REMARK                         _______ _______ _______ _____ _____    ______ ____
ROOT
ATOM      4  O   UNL     1       3.218   1.595  23.004  0.00  0.00    -0.365 OA
ATOM     10  C   UNL     1       1.499   0.005  22.574  0.00  0.00    +0.118 C 
ATOM     11  C   UNL     1       1.798   1.388  23.168  0.00  0.00    +0.155 C 
ATOM     12  C   UNL     1       2.828  -0.723  22.715  0.00  0.00    +0.165 C 
ATOM     13  C   UNL     1       3.802   0.412  22.423  0.00  0.00    +0.174 C 
ENDROOT
BRANCH  10   8
ATOM      8  N   UNL     1       0.349  -0.693  23.121  0.00  0.00    -0.295 NA
ATOM     14  C   UNL     1      -0.879   0.078  22.886  0.00  0.00    +0.085 C 
ATOM     15  C   UNL     1       0.542  -0.961  24.552  0.00  0.00    +0.085 C 
ATOM     16  C   UNL     1      -1.963  -1.009  24.895  0.00  0.00    -0.012 C 
ATOM     17  C   UNL     1      -2.108  -0.668  23.409  0.00  0.00    +0.018 C 
ATOM     18  C   UNL     1      -0.638  -1.743  25.131  0.00  0.00    +0.018 C 
ATOM     21  C   UNL     1      -3.145  -1.840  25.386  0.00  0.00    +0.007 C 
ENDBRANCH  10   8
BRANCH  12   5
ATOM      5  O   UNL     1       3.016  -1.209  24.038  0.00  0.00    -0.388 OA
ATOM     30  H   UNL     1       3.927  -0.994  24.302  0.00  0.00    +0.210 HD
ENDBRANCH  12   5
BRANCH  11  19
ATOM     19  C   UNL     1       1.480   1.580  24.646  0.00  0.00    +0.137 C 
BRANCH  19   9
ATOM      7  O   UNL     1      -0.009   3.985  24.156  0.00  0.00    -0.270 OA
ATOM      9  N   UNL     1       0.076   1.773  24.852  0.00  0.00    -0.309 N 
ATOM     22  C   UNL     1      -0.568   2.980  24.587  0.00  0.00    +0.244 C 
ATOM     31  H   UNL     1      -0.431   1.003  25.274  0.00  0.00    +0.149 HD
BRANCH  22  23
ATOM     23  C   UNL     1      -2.024   3.026  24.878  0.00  0.00    +0.037 A 
ATOM     24  C   UNL     1      -2.492   3.743  25.979  0.00  0.00    +0.013 A 
ATOM     25  C   UNL     1      -2.922   2.351  24.052  0.00  0.00    +0.013 A 
ATOM     26  C   UNL     1      -3.859   3.787  26.253  0.00  0.00    +0.013 A 
ATOM     27  C   UNL     1      -4.290   2.394  24.326  0.00  0.00    +0.013 A 
ATOM     28  C   UNL     1      -4.758   3.112  25.427  0.00  0.00    +0.055 A 
BRANCH  28  29
ATOM      1  F   UNL     1      -6.979   2.457  24.828  0.00  0.00    -0.166 F 
ATOM      2  F   UNL     1      -6.717   4.429  25.705  0.00  0.00    -0.166 F 
ATOM      3  F   UNL     1      -6.549   2.651  26.944  0.00  0.00    -0.166 F 
ATOM     29  C   UNL     1      -6.220   3.159  25.720  0.00  0.00    +0.417 C 
ENDBRANCH  28  29
ENDBRANCH  22  23
ENDBRANCH  19   9
ENDBRANCH  11  19
BRANCH  13  20
ATOM     20  C   UNL     1       5.206   0.226  22.970  0.00  0.00    +0.190 C 
BRANCH  20   6
ATOM      6  O   UNL     1       5.199   0.513  24.359  0.00  0.00    -0.392 OA
ATOM     32  H   UNL     1       4.559   1.230  24.500  0.00  0.00    +0.210 HD
ENDBRANCH  20   6
ENDBRANCH  13  20
TORSDOF 8
ENDMDL
MODEL 3
REMARK VINA RESULT:       0.3      1.406      1.704
REMARK  Name = 38026794
REMARK  9 active torsions:
REMARK  status: ('A' for Active; 'I' for Inactive)
REMARK    1  A    between atoms: O_5  and  C_12
REMARK    2  A    between atoms: O_6  and  C_20
REMARK    3  A    between atoms: N_8  and  C_10
REMARK    4  A    between atoms: N_9  and  C_19
REMARK    5  A    between atoms: C_11  and  C_19
REMARK    6  A    between atoms: C_13  and  C_20
REMARK    7  A    between atoms: C_16  and  C_21
REMARK    8  A    between atoms: C_22  and  C_23
REMARK    9  A    between atoms: C_28  and  C_29
REMARK                            x       y       z     vdW  Elec       q    Type
REMARK                         _______ _______ _______ _____ _____    ______ ____
ROOT
ATOM      4  O   UNL     1      -1.177   3.604  25.568  0.00  0.00    -0.365 OA
ATOM     10  C   UNL     1      -2.427   1.578  25.572  0.00  0.00    +0.118 C 
ATOM     11  C   UNL     1      -1.058   2.197  25.262  0.00  0.00    +0.155 C 
ATOM     12  C   UNL     1      -3.380   2.752  25.403  0.00  0.00    +0.165 C 
ATOM     13  C   UNL     1      -2.533   3.885  25.969  0.00  0.00    +0.174 C 
ENDROOT
BRANCH  10   8
ATOM      8  N   UNL     1      -2.776   0.384  24.822  0.00  0.00    -0.295 NA
ATOM     14  C   UNL     1      -4.201   0.071  24.989  0.00  0.00    +0.085 C 
ATOM     15  C   UNL     1      -1.933  -0.746  25.233  0.00  0.00    +0.085 C 
ATOM     16  C   UNL     1      -3.735  -2.369  24.517  0.00  0.00    -0.012 C 
ATOM     17  C   UNL     1      -4.597  -1.154  24.162  0.00  0.00    +0.018 C 
ATOM     18  C   UNL     1      -2.251  -1.999  24.415  0.00  0.00    +0.018 C 
ATOM     21  C   UNL     1      -4.066  -3.559  23.621  0.00  0.00    +0.007 C 
ENDBRANCH  10   8
BRANCH  12   5
ATOM      5  O   UNL     1      -3.674   2.990  24.033  0.00  0.00    -0.388 OA
ATOM     30  H   UNL     1      -3.016   3.621  23.697  0.00  0.00    +0.210 HD
ENDBRANCH  12   5
BRANCH  11  19
ATOM     19  C   UNL     1      -0.567   2.088  23.823  0.00  0.00    +0.137 C 
BRANCH  19   9
ATOM      7  O   UNL     1       0.495  -0.296  22.628  0.00  0.00    -0.270 OA
ATOM      9  N   UNL     1       0.809   1.696  23.775  0.00  0.00    -0.309 N 
ATOM     22  C   UNL     1       1.238   0.516  23.172  0.00  0.00    +0.244 C 
ATOM     31  H   UNL     1       1.468   2.288  24.269  0.00  0.00    +0.149 HD
BRANCH  22  23
ATOM     23  C   UNL     1       2.697   0.240  23.230  0.00  0.00    +0.037 A 
ATOM     24  C   UNL     1       3.609   1.229  22.859  0.00  0.00    +0.013 A 
ATOM     25  C   UNL     1       3.156  -1.007  23.653  0.00  0.00    +0.013 A 
ATOM     26  C   UNL     1       4.978   0.971  22.913  0.00  0.00    +0.013 A 
ATOM     27  C   UNL     1       4.526  -1.266  23.707  0.00  0.00    +0.013 A 
ATOM     28  C   UNL     1       5.437  -0.276  23.336  0.00  0.00    +0.055 A 
BRANCH  28  29
ATOM      1  F   UNL     1       7.671   0.577  23.420  0.00  0.00    -0.166 F 
ATOM      2  F   UNL     1       7.343  -1.272  22.324  0.00  0.00    -0.166 F 
ATOM      3  F   UNL     1       7.280  -1.264  24.498  0.00  0.00    -0.166 F 
ATOM     29  C   UNL     1       6.902  -0.552  23.395  0.00  0.00    +0.417 C 
ENDBRANCH  28  29
ENDBRANCH  22  23
ENDBRANCH  19   9
ENDBRANCH  11  19
BRANCH  13  20
ATOM     20  C   UNL     1      -2.913   5.280  25.506  0.00  0.00    +0.190 C 
BRANCH  20   6
ATOM      6  O   UNL     1      -1.752   5.936  25.024  0.00  0.00    -0.392 OA
ATOM     32  H   UNL     1      -1.468   5.464  24.224  0.00  0.00    +0.210 HD
ENDBRANCH  20   6
ENDBRANCH  13  20
TORSDOF 8
ENDMDL
MODEL 4
REMARK VINA RESULT:       0.8      2.088      4.470
REMARK  Name = 38026794
REMARK  9 active torsions:
REMARK  status: ('A' for Active; 'I' for Inactive)
REMARK    1  A    between atoms: O_5  and  C_12
REMARK    2  A    between atoms: O_6  and  C_20
REMARK    3  A    between atoms: N_8  and  C_10
REMARK    4  A    between atoms: N_9  and  C_19
REMARK    5  A    between atoms: C_11  and  C_19
REMARK    6  A    between atoms: C_13  and  C_20
REMARK    7  A    between atoms: C_16  and  C_21
REMARK    8  A    between atoms: C_22  and  C_23
REMARK    9  A    between atoms: C_28  and  C_29
REMARK                            x       y       z     vdW  Elec       q    Type
REMARK                         _______ _______ _______ _____ _____    ______ ____
ROOT
ATOM      4  O   UNL     1      -4.273  -1.507  24.595  0.00  0.00    -0.365 OA
ATOM     10  C   UNL     1      -3.559   0.619  25.393  0.00  0.00    +0.118 C 
ATOM     11  C   UNL     1      -4.252  -0.109  24.233  0.00  0.00    +0.155 C 
ATOM     12  C   UNL     1      -2.677  -0.463  25.999  0.00  0.00    +0.165 C 
ATOM     13  C   UNL     1      -3.582  -1.680  25.849  0.00  0.00    +0.174 C 
ENDROOT
BRANCH  10   8
ATOM      8  N   UNL     1      -2.878   1.858  25.058  0.00  0.00    -0.295 NA
ATOM     14  C   UNL     1      -1.829   2.150  26.043  0.00  0.00    +0.085 C 
ATOM     15  C   UNL     1      -3.840   2.964  24.964  0.00  0.00    +0.085 C 
ATOM     16  C   UNL     1      -2.014   4.619  25.529  0.00  0.00    -0.012 C 
ATOM     17  C   UNL     1      -1.066   3.424  25.676  0.00  0.00    +0.018 C 
ATOM     18  C   UNL     1      -3.146   4.266  24.559  0.00  0.00    +0.018 C 
ATOM     21  C   UNL     1      -1.262   5.863  25.066  0.00  0.00    +0.007 C 
ENDBRANCH  10   8
BRANCH  12   5
ATOM      5  O   UNL     1      -1.482  -0.639  25.250  0.00  0.00    -0.388 OA
ATOM     30  H   UNL     1      -1.608  -0.204  24.389  0.00  0.00    +0.210 HD
ENDBRANCH  12   5
BRANCH  11  19
ATOM     19  C   UNL     1      -3.586  -0.006  22.866  0.00  0.00    +0.137 C 
BRANCH  19   9
ATOM      7  O   UNL     1      -1.731   2.106  22.285  0.00  0.00    -0.270 OA
ATOM      9  N   UNL     1      -2.160  -0.065  22.980  0.00  0.00    -0.309 N 
ATOM     22  C   UNL     1      -1.332   1.013  22.675  0.00  0.00    +0.244 C 
ATOM     31  H   UNL     1      -1.762  -0.964  23.229  0.00  0.00    +0.149 HD
BRANCH  22  23
ATOM     23  C   UNL     1       0.128   0.781  22.821  0.00  0.00    +0.037 A 
ATOM     24  C   UNL     1       0.892   1.629  23.623  0.00  0.00    +0.013 A 
ATOM     25  C   UNL     1       0.736  -0.282  22.154  0.00  0.00    +0.013 A 
ATOM     26  C   UNL     1       2.264   1.413  23.760  0.00  0.00    +0.013 A 
ATOM     27  C   UNL     1       2.108  -0.499  22.290  0.00  0.00    +0.013 A 
ATOM     28  C   UNL     1       2.871   0.349  23.093  0.00  0.00    +0.055 A 
BRANCH  28  29
ATOM      1  F   UNL     1       4.932   0.934  24.159  0.00  0.00    -0.166 F 
ATOM      2  F   UNL     1       5.019   0.318  22.075  0.00  0.00    -0.166 F 
ATOM      3  F   UNL     1       4.653  -1.152  23.635  0.00  0.00    -0.166 F 
ATOM     29  C   UNL     1       4.338   0.117  23.240  0.00  0.00    +0.417 C 
ENDBRANCH  28  29
ENDBRANCH  22  23
ENDBRANCH  19   9
ENDBRANCH  11  19
BRANCH  13  20
ATOM     20  C   UNL     1      -2.876  -3.023  25.852  0.00  0.00    +0.190 C 
BRANCH  20   6
ATOM      6  O   UNL     1      -2.177  -3.178  24.627  0.00  0.00    -0.392 OA
ATOM     32  H   UNL     1      -2.615  -3.892  24.136  0.00  0.00    +0.210 HD
ENDBRANCH  20   6
ENDBRANCH  13  20
TORSDOF 8
ENDMDL
MODEL 5
REMARK VINA RESULT:       1.2      1.885      4.220
REMARK  Name = 38026794
REMARK  9 active torsions:
REMARK  status: ('A' for Active; 'I' for Inactive)
REMARK    1  A    between atoms: O_5  and  C_12
REMARK    2  A    between atoms: O_6  and  C_20
REMARK    3  A    between atoms: N_8  and  C_10
REMARK    4  A    between atoms: N_9  and  C_19
REMARK    5  A    between atoms: C_11  and  C_19
REMARK    6  A    between atoms: C_13  and  C_20
REMARK    7  A    between atoms: C_16  and  C_21
REMARK    8  A    between atoms: C_22  and  C_23
REMARK    9  A    between atoms: C_28  and  C_29
REMARK                            x       y       z     vdW  Elec       q    Type
REMARK                         _______ _______ _______ _____ _____    ______ ____
ROOT
ATOM      4  O   UNL     1      -3.001  -1.765  23.780  0.00  0.00    -0.365 OA
ATOM     10  C   UNL     1      -4.322  -0.457  25.267  0.00  0.00    +0.118 C 
ATOM     11  C   UNL     1      -3.921  -0.651  23.798  0.00  0.00    +0.155 C 
ATOM     12  C   UNL     1      -3.132  -1.025  26.025  0.00  0.00    +0.165 C 
ATOM     13  C   UNL     1      -2.768  -2.205  25.132  0.00  0.00    +0.174 C 
ENDROOT
BRANCH  10   8
ATOM      8  N   UNL     1      -4.717   0.887  25.651  0.00  0.00    -0.295 NA
ATOM     14  C   UNL     1      -6.037   1.213  25.093  0.00  0.00    +0.085 C 
ATOM     15  C   UNL     1      -3.706   1.863  25.224  0.00  0.00    +0.085 C 
ATOM     16  C   UNL     1      -5.466   3.676  25.146  0.00  0.00    -0.012 C 
ATOM     17  C   UNL     1      -6.493   2.606  25.533  0.00  0.00    +0.018 C 
ATOM     18  C   UNL     1      -4.082   3.278  25.668  0.00  0.00    +0.018 C 
ATOM     21  C   UNL     1      -5.878   5.047  25.674  0.00  0.00    +0.007 C 
ENDBRANCH  10   8
BRANCH  12   5
ATOM      5  O   UNL     1      -2.058  -0.096  26.081  0.00  0.00    -0.388 OA
ATOM     30  H   UNL     1      -1.463  -0.377  26.797  0.00  0.00    +0.210 HD
ENDBRANCH  12   5
BRANCH  11  19
ATOM     19  C   UNL     1      -3.223   0.522  23.118  0.00  0.00    +0.137 C 
BRANCH  19   9
ATOM      7  O   UNL     1      -1.248   2.567  23.511  0.00  0.00    -0.270 OA
ATOM      9  N   UNL     1      -1.802   0.349  23.120  0.00  0.00    -0.309 N 
ATOM     22  C   UNL     1      -0.913   1.402  23.319  0.00  0.00    +0.244 C 
ATOM     31  H   UNL     1      -1.457  -0.579  22.896  0.00  0.00    +0.149 HD
BRANCH  22  23
ATOM     23  C   UNL     1       0.533   1.061  23.266  0.00  0.00    +0.037 A 
ATOM     24  C   UNL     1       1.487   2.017  23.613  0.00  0.00    +0.013 A 
ATOM     25  C   UNL     1       0.935  -0.213  22.868  0.00  0.00    +0.013 A 
ATOM     26  C   UNL     1       2.845   1.698  23.562  0.00  0.00    +0.013 A 
ATOM     27  C   UNL     1       2.292  -0.532  22.816  0.00  0.00    +0.013 A 
ATOM     28  C   UNL     1       3.247   0.424  23.164  0.00  0.00    +0.055 A 
BRANCH  28  29
ATOM      1  F   UNL     1       5.242   0.195  21.863  0.00  0.00    -0.166 F 
ATOM      2  F   UNL     1       4.950  -1.199  23.506  0.00  0.00    -0.166 F 
ATOM      3  F   UNL     1       5.475   0.872  23.910  0.00  0.00    -0.166 F 
ATOM     29  C   UNL     1       4.698   0.082  23.111  0.00  0.00    +0.417 C 
ENDBRANCH  28  29
ENDBRANCH  22  23
ENDBRANCH  19   9
ENDBRANCH  11  19
BRANCH  13  20
ATOM     20  C   UNL     1      -1.340  -2.703  25.258  0.00  0.00    +0.190 C 
BRANCH  20   6
ATOM      6  O   UNL     1      -0.474  -1.587  25.393  0.00  0.00    -0.392 OA
ATOM     32  H   UNL     1      -0.805  -1.057  26.137  0.00  0.00    +0.210 HD
ENDBRANCH  20   6
ENDBRANCH  13  20
TORSDOF 8
ENDMDL
MODEL 6
REMARK VINA RESULT:       1.7     14.408     16.596
REMARK  Name = 38026794
REMARK  9 active torsions:
REMARK  status: ('A' for Active; 'I' for Inactive)
REMARK    1  A    between atoms: O_5  and  C_12
REMARK    2  A    between atoms: O_6  and  C_20
REMARK    3  A    between atoms: N_8  and  C_10
REMARK    4  A    between atoms: N_9  and  C_19
REMARK    5  A    between atoms: C_11  and  C_19
REMARK    6  A    between atoms: C_13  and  C_20
REMARK    7  A    between atoms: C_16  and  C_21
REMARK    8  A    between atoms: C_22  and  C_23
REMARK    9  A    between atoms: C_28  and  C_29
REMARK                            x       y       z     vdW  Elec       q    Type
REMARK                         _______ _______ _______ _____ _____    ______ ____
ROOT
ATOM      4  O   UNL     1      -4.227 -10.194  12.919  0.00  0.00    -0.365 OA
ATOM     10  C   UNL     1      -6.202 -10.781  11.727  0.00  0.00    +0.118 C 
ATOM     11  C   UNL     1      -4.746 -10.322  11.577  0.00  0.00    +0.155 C 
ATOM     12  C   UNL     1      -6.587 -10.257  13.103  0.00  0.00    +0.165 C 
ATOM     13  C   UNL     1      -5.282 -10.473  13.860  0.00  0.00    +0.174 C 
ENDROOT
BRANCH  10   8
ATOM      8  N   UNL     1      -7.105 -10.415  10.650  0.00  0.00    -0.295 NA
ATOM     14  C   UNL     1      -6.848  -9.037  10.211  0.00  0.00    +0.085 C 
ATOM     15  C   UNL     1      -8.502 -10.586  11.069  0.00  0.00    +0.085 C 
ATOM     16  C   UNL     1      -9.233  -8.836   9.396  0.00  0.00    -0.012 C 
ATOM     17  C   UNL     1      -7.754  -8.652   9.040  0.00  0.00    +0.018 C 
ATOM     18  C   UNL     1      -9.465 -10.255   9.927  0.00  0.00    +0.018 C 
ATOM     21  C   UNL     1     -10.127  -8.547   8.194  0.00  0.00    +0.007 C 
ENDBRANCH  10   8
BRANCH  12   5
ATOM      5  O   UNL     1      -6.912  -8.874  13.060  0.00  0.00    -0.388 OA
ATOM     30  H   UNL     1      -6.666  -8.542  12.180  0.00  0.00    +0.210 HD
ENDBRANCH  12   5
BRANCH  11  19
ATOM     19  C   UNL     1      -4.518  -8.988  10.875  0.00  0.00    +0.137 C 
BRANCH  19   9
ATOM      7  O   UNL     1      -2.130 -10.575  11.008  0.00  0.00    -0.270 OA
ATOM      9  N   UNL     1      -3.186  -8.511  11.093  0.00  0.00    -0.309 N 
ATOM     22  C   UNL     1      -2.080  -9.356  11.143  0.00  0.00    +0.244 C 
ATOM     31  H   UNL     1      -3.083  -7.520  11.283  0.00  0.00    +0.149 HD
BRANCH  22  23
ATOM     23  C   UNL     1      -0.768  -8.708  11.402  0.00  0.00    +0.037 A 
ATOM     24  C   UNL     1      -0.627  -7.824  12.472  0.00  0.00    +0.013 A 
ATOM     25  C   UNL     1       0.322  -8.982  10.577  0.00  0.00    +0.013 A 
ATOM     26  C   UNL     1       0.604  -7.215  12.716  0.00  0.00    +0.013 A 
ATOM     27  C   UNL     1       1.553  -8.373  10.820  0.00  0.00    +0.013 A 
ATOM     28  C   UNL     1       1.693  -7.489  11.890  0.00  0.00    +0.055 A 
BRANCH  28  29
ATOM      1  F   UNL     1       3.529  -7.128  13.382  0.00  0.00    -0.166 F 
ATOM      2  F   UNL     1       2.943  -5.477  12.093  0.00  0.00    -0.166 F 
ATOM      3  F   UNL     1       3.983  -7.197  11.262  0.00  0.00    -0.166 F 
ATOM     29  C   UNL     1       3.010  -6.838  12.152  0.00  0.00    +0.417 C 
ENDBRANCH  28  29
ENDBRANCH  22  23
ENDBRANCH  19   9
ENDBRANCH  11  19
BRANCH  13  20
ATOM     20  C   UNL     1      -5.093  -9.612  15.095  0.00  0.00    +0.190 C 
BRANCH  20   6
ATOM      6  O   UNL     1      -6.361  -9.368  15.684  0.00  0.00    -0.392 OA
ATOM     32  H   UNL     1      -6.624  -8.468  15.434  0.00  0.00    +0.210 HD
ENDBRANCH  20   6
ENDBRANCH  13  20
TORSDOF 8
ENDMDL
MODEL 7
REMARK VINA RESULT:       2.3      2.187      4.282
REMARK  Name = 38026794
REMARK  9 active torsions:
REMARK  status: ('A' for Active; 'I' for Inactive)
REMARK    1  A    between atoms: O_5  and  C_12
REMARK    2  A    between atoms: O_6  and  C_20
REMARK    3  A    between atoms: N_8  and  C_10
REMARK    4  A    between atoms: N_9  and  C_19
REMARK    5  A    between atoms: C_11  and  C_19
REMARK    6  A    between atoms: C_13  and  C_20
REMARK    7  A    between atoms: C_16  and  C_21
REMARK    8  A    between atoms: C_22  and  C_23
REMARK    9  A    between atoms: C_28  and  C_29
REMARK                            x       y       z     vdW  Elec       q    Type
REMARK                         _______ _______ _______ _____ _____    ______ ____
ROOT
ATOM      4  O   UNL     1      -1.089  -0.972  23.772  0.00  0.00    -0.365 OA
ATOM     10  C   UNL     1      -3.181  -0.131  24.535  0.00  0.00    +0.118 C 
ATOM     11  C   UNL     1      -1.938   0.195  23.697  0.00  0.00    +0.155 C 
ATOM     12  C   UNL     1      -2.665  -1.160  25.529  0.00  0.00    +0.165 C 
ATOM     13  C   UNL     1      -1.697  -1.941  24.648  0.00  0.00    +0.174 C 
ENDROOT
BRANCH  10   8
ATOM      8  N   UNL     1      -3.876   1.003  25.120  0.00  0.00    -0.295 NA
ATOM     14  C   UNL     1      -5.329   0.848  24.971  0.00  0.00    +0.085 C 
ATOM     15  C   UNL     1      -3.411   2.258  24.515  0.00  0.00    +0.085 C 
ATOM     16  C   UNL     1      -5.621   3.357  25.067  0.00  0.00    -0.012 C 
ATOM     17  C   UNL     1      -6.078   2.007  25.630  0.00  0.00    +0.018 C 
ATOM     18  C   UNL     1      -4.095   3.466  25.159  0.00  0.00    +0.018 C 
ATOM     21  C   UNL     1      -6.298   4.513  25.797  0.00  0.00    +0.007 C 
ENDBRANCH  10   8
BRANCH  12   5
ATOM      5  O   UNL     1      -1.968  -0.542  26.603  0.00  0.00    -0.388 OA
ATOM     30  H   UNL     1      -1.864  -1.205  27.306  0.00  0.00    +0.210 HD
ENDBRANCH  12   5
BRANCH  11  19
ATOM     19  C   UNL     1      -1.105   1.390  24.146  0.00  0.00    +0.137 C 
BRANCH  19   9
ATOM      7  O   UNL     1       0.330   0.234  21.944  0.00  0.00    -0.270 OA
ATOM      9  N   UNL     1       0.294   1.090  24.101  0.00  0.00    -0.309 N 
ATOM     22  C   UNL     1       0.911   0.526  22.986  0.00  0.00    +0.244 C 
ATOM     31  H   UNL     1       0.820   1.241  24.956  0.00  0.00    +0.149 HD
BRANCH  22  23
ATOM     23  C   UNL     1       2.366   0.251  23.108  0.00  0.00    +0.037 A 
ATOM     24  C   UNL     1       2.805  -0.998  23.547  0.00  0.00    +0.013 A 
ATOM     25  C   UNL     1       3.293   1.242  22.785  0.00  0.00    +0.013 A 
ATOM     26  C   UNL     1       4.171  -1.257  23.662  0.00  0.00    +0.013 A 
ATOM     27  C   UNL     1       4.659   0.984  22.900  0.00  0.00    +0.013 A 
ATOM     28  C   UNL     1       5.098  -0.266  23.339  0.00  0.00    +0.055 A 
BRANCH  28  29
ATOM      1  F   UNL     1       7.122  -1.023  22.314  0.00  0.00    -0.166 F 
ATOM      2  F   UNL     1       6.838  -1.469  24.423  0.00  0.00    -0.166 F 
ATOM      3  F   UNL     1       7.298   0.559  23.787  0.00  0.00    -0.166 F 
ATOM     29  C   UNL     1       6.559  -0.543  23.461  0.00  0.00    +0.417 C 
ENDBRANCH  28  29
ENDBRANCH  22  23
ENDBRANCH  19   9
ENDBRANCH  11  19
BRANCH  13  20
ATOM     20  C   UNL     1      -0.611  -2.702  25.386  0.00  0.00    +0.190 C 
BRANCH  20   6
ATOM      6  O   UNL     1       0.399  -1.789  25.785  0.00  0.00    -0.392 OA
ATOM     32  H   UNL     1       0.093  -0.900  25.542  0.00  0.00    +0.210 HD
ENDBRANCH  20   6
ENDBRANCH  13  20
TORSDOF 8
ENDMDL
