MODEL 1
REMARK VINA RESULT:       1.2      0.000      0.000
REMARK  Name = 51136972
REMARK  8 active torsions:
REMARK  status: ('A' for Active; 'I' for Inactive)
REMARK    1  A    between atoms: O_3  and  C_11
REMARK    2  A    between atoms: O_4  and  C_18
REMARK    3  A    between atoms: N_6  and  C_9
REMARK    4  A    between atoms: N_7  and  C_19
REMARK    5  A    between atoms: N_8  and  C_15
REMARK    6  A    between atoms: C_10  and  C_15
REMARK    7  A    between atoms: C_12  and  C_18
REMARK    8  A    between atoms: C_20  and  C_23
REMARK                            x       y       z     vdW  Elec       q    Type
REMARK                         _______ _______ _______ _____ _____    ______ ____
ROOT
ATOM      2  O   UNL     1      -4.131  -0.364  25.897  0.00  0.00    -0.365 OA
ATOM      9  C   UNL     1      -2.679  -1.278  24.246  0.00  0.00    +0.118 C 
ATOM     10  C   UNL     1      -2.853  -1.022  25.749  0.00  0.00    +0.155 C 
ATOM     11  C   UNL     1      -3.535  -0.193  23.612  0.00  0.00    +0.165 C 
ATOM     12  C   UNL     1      -4.702  -0.146  24.592  0.00  0.00    +0.174 C 
ENDROOT
BRANCH   9   6
ATOM      6  N   UNL     1      -1.313  -1.353  23.760  0.00  0.00    -0.292 NA
ATOM      7  N   UNL     1       1.451  -0.646  23.631  0.00  0.00    -0.327 N 
ATOM     13  C   UNL     1      -0.399  -1.725  24.847  0.00  0.00    +0.104 C 
ATOM     14  C   UNL     1      -0.902  -0.070  23.178  0.00  0.00    +0.104 C 
ATOM     16  C   UNL     1       1.037  -1.864  24.335  0.00  0.00    +0.120 C 
ATOM     17  C   UNL     1       0.517  -0.153  22.611  0.00  0.00    +0.120 C 
BRANCH   7  19
ATOM     19  C   UNL     1       2.813  -0.372  23.463  0.00  0.00    +0.030 A 
ATOM     21  C   UNL     1       3.769  -1.291  23.896  0.00  0.00    +0.023 A 
ATOM     22  C   UNL     1       3.214   0.822  22.863  0.00  0.00    +0.023 A 
ATOM     24  C   UNL     1       5.126  -1.016  23.728  0.00  0.00    +0.002 A 
ATOM     25  C   UNL     1       4.573   1.097  22.697  0.00  0.00    +0.002 A 
ATOM     26  C   UNL     1       5.528   0.177  23.129  0.00  0.00    +0.000 A 
ENDBRANCH   7  19
ENDBRANCH   9   6
BRANCH  11   3
ATOM      3  O   UNL     1      -2.858   1.057  23.588  0.00  0.00    -0.388 OA
ATOM     32  H   UNL     1      -3.531   1.756  23.547  0.00  0.00    +0.210 HD
ENDBRANCH  11   3
BRANCH  10  15
ATOM     15  C   UNL     1      -1.808  -0.134  26.415  0.00  0.00    +0.137 C 
BRANCH  15   8
ATOM      5  O   UNL     1       0.150   1.922  26.843  0.00  0.00    -0.270 OA
ATOM      8  N   UNL     1      -1.808   1.179  25.843  0.00  0.00    -0.309 N 
ATOM     20  C   UNL     1      -0.814   2.117  26.106  0.00  0.00    +0.246 C 
ATOM     33  H   UNL     1      -2.567   1.423  25.213  0.00  0.00    +0.149 HD
BRANCH  20  23
ATOM      1 CL   UNL     1      -3.093   3.953  27.095  0.00  0.00    -0.083 Cl
ATOM     23  C   UNL     1      -0.972   3.444  25.456  0.00  0.00    +0.055 A 
ATOM     27  C   UNL     1      -1.973   4.337  25.839  0.00  0.00    +0.053 A 
ATOM     28  C   UNL     1      -0.083   3.786  24.438  0.00  0.00    +0.014 A 
ATOM     29  C   UNL     1      -2.084   5.573  25.202  0.00  0.00    +0.021 A 
ATOM     30  C   UNL     1      -0.195   5.022  23.801  0.00  0.00    +0.001 A 
ATOM     31  C   UNL     1      -1.195   5.916  24.184  0.00  0.00    +0.001 A 
ENDBRANCH  20  23
ENDBRANCH  15   8
ENDBRANCH  10  15
BRANCH  12  18
ATOM     18  C   UNL     1      -5.494   1.149  24.603  0.00  0.00    +0.190 C 
BRANCH  18   4
ATOM      4  O   UNL     1      -4.751   2.135  25.301  0.00  0.00    -0.392 OA
ATOM     34  H   UNL     1      -3.831   2.071  24.993  0.00  0.00    +0.210 HD
ENDBRANCH  18   4
ENDBRANCH  12  18
TORSDOF 8
ENDMDL
MODEL 2
REMARK VINA RESULT:       1.9      2.280      4.650
REMARK  Name = 51136972
REMARK  8 active torsions:
REMARK  status: ('A' for Active; 'I' for Inactive)
REMARK    1  A    between atoms: O_3  and  C_11
REMARK    2  A    between atoms: O_4  and  C_18
REMARK    3  A    between atoms: N_6  and  C_9
REMARK    4  A    between atoms: N_7  and  C_19
REMARK    5  A    between atoms: N_8  and  C_15
REMARK    6  A    between atoms: C_10  and  C_15
REMARK    7  A    between atoms: C_12  and  C_18
REMARK    8  A    between atoms: C_20  and  C_23
REMARK                            x       y       z     vdW  Elec       q    Type
REMARK                         _______ _______ _______ _____ _____    ______ ____
ROOT
ATOM      2  O   UNL     1      -5.570   3.477  24.494  0.00  0.00    -0.365 OA
ATOM      9  C   UNL     1      -3.286   3.133  23.917  0.00  0.00    +0.118 C 
ATOM     10  C   UNL     1      -4.658   2.455  24.033  0.00  0.00    +0.155 C 
ATOM     11  C   UNL     1      -3.382   4.274  24.918  0.00  0.00    +0.165 C 
ATOM     12  C   UNL     1      -4.835   4.694  24.728  0.00  0.00    +0.174 C 
ENDROOT
BRANCH   9   6
ATOM      6  N   UNL     1      -2.128   2.271  24.070  0.00  0.00    -0.292 NA
ATOM      7  N   UNL     1       0.520   1.341  23.540  0.00  0.00    -0.327 N 
ATOM     13  C   UNL     1      -0.964   3.044  24.522  0.00  0.00    +0.104 C 
ATOM     14  C   UNL     1      -1.818   1.595  22.804  0.00  0.00    +0.104 C 
ATOM     16  C   UNL     1       0.248   2.136  24.742  0.00  0.00    +0.120 C 
ATOM     17  C   UNL     1      -0.635   0.638  22.968  0.00  0.00    +0.120 C 
BRANCH   7  19
ATOM     19  C   UNL     1       1.790   0.784  23.350  0.00  0.00    +0.030 A 
ATOM     21  C   UNL     1       1.971  -0.594  23.468  0.00  0.00    +0.023 A 
ATOM     22  C   UNL     1       2.874   1.607  23.044  0.00  0.00    +0.023 A 
ATOM     24  C   UNL     1       3.237  -1.149  23.278  0.00  0.00    +0.002 A 
ATOM     25  C   UNL     1       4.140   1.051  22.855  0.00  0.00    +0.002 A 
ATOM     26  C   UNL     1       4.321  -0.327  22.972  0.00  0.00    +0.000 A 
ENDBRANCH   7  19
ENDBRANCH   9   6
BRANCH  11   3
ATOM      3  O   UNL     1      -3.167   3.821  26.248  0.00  0.00    -0.388 OA
ATOM     32  H   UNL     1      -2.473   3.142  26.220  0.00  0.00    +0.210 HD
ENDBRANCH  11   3
BRANCH  10  15
ATOM     15  C   UNL     1      -4.761   1.286  25.005  0.00  0.00    +0.137 C 
BRANCH  15   8
ATOM      5  O   UNL     1      -4.067  -0.911  26.718  0.00  0.00    -0.270 OA
ATOM      8  N   UNL     1      -3.684   0.362  24.815  0.00  0.00    -0.309 N 
ATOM     20  C   UNL     1      -3.418  -0.680  25.700  0.00  0.00    +0.246 C 
ATOM     33  H   UNL     1      -3.099   0.475  23.992  0.00  0.00    +0.149 HD
BRANCH  20  23
ATOM      1 CL   UNL     1      -3.838  -3.034  23.744  0.00  0.00    -0.083 Cl
ATOM     23  C   UNL     1      -2.247  -1.536  25.376  0.00  0.00    +0.055 A 
ATOM     27  C   UNL     1      -2.344  -2.619  24.504  0.00  0.00    +0.053 A 
ATOM     28  C   UNL     1      -1.024  -1.228  25.973  0.00  0.00    +0.014 A 
ATOM     29  C   UNL     1      -1.218  -3.395  24.228  0.00  0.00    +0.021 A 
ATOM     30  C   UNL     1       0.101  -2.004  25.697  0.00  0.00    +0.001 A 
ATOM     31  C   UNL     1       0.005  -3.088  24.823  0.00  0.00    +0.001 A 
ENDBRANCH  20  23
ENDBRANCH  15   8
ENDBRANCH  10  15
BRANCH  12  18
ATOM     18  C   UNL     1      -5.458   5.438  25.895  0.00  0.00    +0.190 C 
BRANCH  18   4
ATOM      4  O   UNL     1      -6.840   5.122  25.955  0.00  0.00    -0.392 OA
ATOM     34  H   UNL     1      -7.294   5.706  25.323  0.00  0.00    +0.210 HD
ENDBRANCH  18   4
ENDBRANCH  12  18
TORSDOF 8
ENDMDL
MODEL 3
REMARK VINA RESULT:       2.0      2.129      4.815
REMARK  Name = 51136972
REMARK  8 active torsions:
REMARK  status: ('A' for Active; 'I' for Inactive)
REMARK    1  A    between atoms: O_3  and  C_11
REMARK    2  A    between atoms: O_4  and  C_18
REMARK    3  A    between atoms: N_6  and  C_9
REMARK    4  A    between atoms: N_7  and  C_19
REMARK    5  A    between atoms: N_8  and  C_15
REMARK    6  A    between atoms: C_10  and  C_15
REMARK    7  A    between atoms: C_12  and  C_18
REMARK    8  A    between atoms: C_20  and  C_23
REMARK                            x       y       z     vdW  Elec       q    Type
REMARK                         _______ _______ _______ _____ _____    ______ ____
ROOT
ATOM      2  O   UNL     1      -4.999   3.868  24.690  0.00  0.00    -0.365 OA
ATOM      9  C   UNL     1      -2.738   4.017  25.421  0.00  0.00    +0.118 C 
ATOM     10  C   UNL     1      -3.661   4.103  24.198  0.00  0.00    +0.155 C 
ATOM     11  C   UNL     1      -3.510   3.116  26.371  0.00  0.00    +0.165 C 
ATOM     12  C   UNL     1      -4.938   3.580  26.101  0.00  0.00    +0.174 C 
ENDROOT
BRANCH   9   6
ATOM      6  N   UNL     1      -1.366   3.615  25.164  0.00  0.00    -0.292 NA
ATOM      7  N   UNL     1       0.718   2.055  23.990  0.00  0.00    -0.327 N 
ATOM     13  C   UNL     1      -1.047   3.754  23.738  0.00  0.00    +0.104 C 
ATOM     14  C   UNL     1      -1.146   2.228  25.593  0.00  0.00    +0.104 C 
ATOM     16  C   UNL     1       0.413   3.388  23.463  0.00  0.00    +0.120 C 
ATOM     17  C   UNL     1       0.311   1.812  25.380  0.00  0.00    +0.120 C 
BRANCH   7  19
ATOM     19  C   UNL     1       1.819   1.347  23.495  0.00  0.00    +0.030 A 
ATOM     21  C   UNL     1       3.016   2.014  23.234  0.00  0.00    +0.023 A 
ATOM     22  C   UNL     1       1.718  -0.024  23.260  0.00  0.00    +0.023 A 
ATOM     24  C   UNL     1       4.114   1.308  22.740  0.00  0.00    +0.002 A 
ATOM     25  C   UNL     1       2.816  -0.729  22.765  0.00  0.00    +0.002 A 
ATOM     26  C   UNL     1       4.013  -0.063  22.506  0.00  0.00    +0.000 A 
ENDBRANCH   7  19
ENDBRANCH   9   6
BRANCH  11   3
ATOM      3  O   UNL     1      -3.362   1.745  26.026  0.00  0.00    -0.388 OA
ATOM     32  H   UNL     1      -2.636   1.383  26.560  0.00  0.00    +0.210 HD
ENDBRANCH  11   3
BRANCH  10  15
ATOM     15  C   UNL     1      -3.408   3.099  23.080  0.00  0.00    +0.137 C 
BRANCH  15   8
ATOM      5  O   UNL     1      -1.737   0.833  22.513  0.00  0.00    -0.270 OA
ATOM      8  N   UNL     1      -3.603   1.756  23.540  0.00  0.00    -0.309 N 
ATOM     20  C   UNL     1      -2.739   0.714  23.215  0.00  0.00    +0.246 C 
ATOM     33  H   UNL     1      -4.406   1.569  24.135  0.00  0.00    +0.149 HD
BRANCH  20  23
ATOM      1 CL   UNL     1      -0.669  -0.735  24.993  0.00  0.00    -0.083 Cl
ATOM     23  C   UNL     1      -3.095  -0.627  23.749  0.00  0.00    +0.055 A 
ATOM     27  C   UNL     1      -2.222  -1.352  24.559  0.00  0.00    +0.053 A 
ATOM     28  C   UNL     1      -4.343  -1.154  23.418  0.00  0.00    +0.014 A 
ATOM     29  C   UNL     1      -2.599  -2.607  25.040  0.00  0.00    +0.021 A 
ATOM     30  C   UNL     1      -4.718  -2.409  23.899  0.00  0.00    +0.001 A 
ATOM     31  C   UNL     1      -3.846  -3.135  24.710  0.00  0.00    +0.001 A 
ENDBRANCH  20  23
ENDBRANCH  15   8
ENDBRANCH  10  15
BRANCH  12  18
ATOM     18  C   UNL     1      -6.026   2.584  26.456  0.00  0.00    +0.190 C 
BRANCH  18   4
ATOM      4  O   UNL     1      -6.397   1.873  25.285  0.00  0.00    -0.392 OA
ATOM     34  H   UNL     1      -7.268   2.208  25.011  0.00  0.00    +0.210 HD
ENDBRANCH  18   4
ENDBRANCH  12  18
TORSDOF 8
ENDMDL
MODEL 4
REMARK VINA RESULT:       3.7      2.313      6.237
REMARK  Name = 51136972
REMARK  8 active torsions:
REMARK  status: ('A' for Active; 'I' for Inactive)
REMARK    1  A    between atoms: O_3  and  C_11
REMARK    2  A    between atoms: O_4  and  C_18
REMARK    3  A    between atoms: N_6  and  C_9
REMARK    4  A    between atoms: N_7  and  C_19
REMARK    5  A    between atoms: N_8  and  C_15
REMARK    6  A    between atoms: C_10  and  C_15
REMARK    7  A    between atoms: C_12  and  C_18
REMARK    8  A    between atoms: C_20  and  C_23
REMARK                            x       y       z     vdW  Elec       q    Type
REMARK                         _______ _______ _______ _____ _____    ______ ____
ROOT
ATOM      2  O   UNL     1       3.503   0.911  23.495  0.00  0.00    -0.365 OA
ATOM      9  C   UNL     1       1.388   0.353  22.555  0.00  0.00    +0.118 C 
ATOM     10  C   UNL     1       2.142   1.388  23.402  0.00  0.00    +0.155 C 
ATOM     11  C   UNL     1       2.185  -0.922  22.781  0.00  0.00    +0.165 C 
ATOM     12  C   UNL     1       3.603  -0.362  22.828  0.00  0.00    +0.174 C 
ENDROOT
BRANCH   9   6
ATOM      6  N   UNL     1      -0.040   0.242  22.798  0.00  0.00    -0.292 NA
ATOM      7  N   UNL     1      -2.534   0.889  24.030  0.00  0.00    -0.327 N 
ATOM     13  C   UNL     1      -0.716   1.507  22.487  0.00  0.00    +0.104 C 
ATOM     14  C   UNL     1      -0.297  -0.134  24.194  0.00  0.00    +0.104 C 
ATOM     16  C   UNL     1      -2.228   1.386  22.684  0.00  0.00    +0.120 C 
ATOM     17  C   UNL     1      -1.796  -0.310  24.447  0.00  0.00    +0.120 C 
BRANCH   7  19
ATOM     19  C   UNL     1      -3.804   1.104  24.577  0.00  0.00    +0.030 A 
ATOM     21  C   UNL     1      -4.292   0.246  25.563  0.00  0.00    +0.023 A 
ATOM     22  C   UNL     1      -4.581   2.174  24.135  0.00  0.00    +0.023 A 
ATOM     24  C   UNL     1      -5.558   0.460  26.108  0.00  0.00    +0.002 A 
ATOM     25  C   UNL     1      -5.848   2.387  24.680  0.00  0.00    +0.002 A 
ATOM     26  C   UNL     1      -6.336   1.531  25.666  0.00  0.00    +0.000 A 
ENDBRANCH   7  19
ENDBRANCH   9   6
BRANCH  11   3
ATOM      3  O   UNL     1       1.853  -1.532  24.021  0.00  0.00    -0.388 OA
ATOM     32  H   UNL     1       1.991  -2.489  23.924  0.00  0.00    +0.210 HD
ENDBRANCH  11   3
BRANCH  10  15
ATOM     15  C   UNL     1       1.640   1.602  24.825  0.00  0.00    +0.137 C 
BRANCH  15   8
ATOM      5  O   UNL     1       0.147   2.417  27.138  0.00  0.00    -0.270 OA
ATOM      8  N   UNL     1       0.490   2.456  24.843  0.00  0.00    -0.309 N 
ATOM     20  C   UNL     1      -0.176   2.801  26.016  0.00  0.00    +0.246 C 
ATOM     33  H   UNL     1       0.159   2.827  23.956  0.00  0.00    +0.149 HD
BRANCH  20  23
ATOM      1 CL   UNL     1      -0.118   4.959  23.806  0.00  0.00    -0.083 Cl
ATOM     23  C   UNL     1      -1.368   3.675  25.863  0.00  0.00    +0.055 A 
ATOM     27  C   UNL     1      -1.430   4.674  24.893  0.00  0.00    +0.053 A 
ATOM     28  C   UNL     1      -2.446   3.471  26.725  0.00  0.00    +0.014 A 
ATOM     29  C   UNL     1      -2.570   5.470  24.784  0.00  0.00    +0.021 A 
ATOM     30  C   UNL     1      -3.585   4.267  26.615  0.00  0.00    +0.001 A 
ATOM     31  C   UNL     1      -3.648   5.267  25.644  0.00  0.00    +0.001 A 
ENDBRANCH  20  23
ENDBRANCH  15   8
ENDBRANCH  10  15
BRANCH  12  18
ATOM     18  C   UNL     1       4.623  -1.226  23.548  0.00  0.00    +0.190 C 
BRANCH  18   4
ATOM      4  O   UNL     1       5.315  -0.425  24.493  0.00  0.00    -0.392 OA
ATOM     34  H   UNL     1       5.454   0.445  24.083  0.00  0.00    +0.210 HD
ENDBRANCH  18   4
ENDBRANCH  12  18
TORSDOF 8
ENDMDL
