MODEL 1
REMARK VINA RESULT:      -0.3      0.000      0.000
REMARK  Name = 11879670
REMARK  13 active torsions:
REMARK  status: ('A' for Active; 'I' for Inactive)
REMARK    1  A    between atoms: O_4  and  C_28
REMARK    2  A    between atoms: N_6  and  C_14
REMARK    3  A    between atoms: N_7  and  C_15
REMARK    4  A    between atoms: N_11  and  C_31
REMARK    5  A    between atoms: N_11  and  C_32
REMARK    6  A    between atoms: N_11  and  C_33
REMARK    7  A    between atoms: C_18  and  C_20
REMARK    8  A    between atoms: C_19  and  C_23
REMARK    9  A    between atoms: C_20  and  C_21
REMARK   10  A    between atoms: C_21  and  C_22
REMARK   11  A    between atoms: C_21  and  C_24
REMARK   12  A    between atoms: C_21  and  C_25
REMARK   13  A    between atoms: C_22  and  C_28
REMARK                            x       y       z     vdW  Elec       q    Type
REMARK                         _______ _______ _______ _____ _____    ______ ____
ROOT
ATOM      1  O   UNL     1      -2.122   3.462  26.954  0.00  0.00    -0.370 OA
ATOM      2  O   UNL     1      -1.515   3.687  23.876  0.00  0.00    -0.370 OA
ATOM     12  C   UNL     1      -2.486   2.960  24.652  0.00  0.00    +0.176 C 
ATOM     13  C   UNL     1      -1.797   2.513  25.926  0.00  0.00    +0.171 C 
ATOM     14  C   UNL     1      -3.583   3.900  25.116  0.00  0.00    +0.168 C 
ATOM     15  C   UNL     1      -0.322   2.581  25.597  0.00  0.00    +0.130 C 
ATOM     16  C   UNL     1      -3.039   4.436  26.436  0.00  0.00    +0.190 C 
ATOM     17  C   UNL     1      -0.269   3.710  24.584  0.00  0.00    +0.185 C 
ENDROOT
BRANCH  14   6
ATOM      6  N   UNL     1      -4.887   3.240  25.206  0.00  0.00    -0.217 N 
ATOM      8  N   UNL     1      -6.009   3.956  25.364  0.00  0.00    -0.043 NA
ATOM      9  N   UNL     1      -6.490   1.780  25.276  0.00  0.00    -0.108 NA
ATOM     10  N   UNL     1      -6.987   3.058  25.406  0.00  0.00    -0.023 NA
ATOM     19  C   UNL     1      -5.190   1.916  25.153  0.00  0.00    +0.182 A 
BRANCH  19  23
ATOM     23  C   UNL     1      -4.221   0.863  24.990  0.00  0.00    +0.021 A 
ATOM     26  C   UNL     1      -3.584   0.685  23.762  0.00  0.00    +0.013 A 
ATOM     27  C   UNL     1      -3.921   0.019  26.060  0.00  0.00    +0.013 A 
ATOM     29  C   UNL     1      -2.648  -0.337  23.604  0.00  0.00    +0.024 A 
ATOM     30  C   UNL     1      -2.985  -1.002  25.901  0.00  0.00    +0.024 A 
ATOM     31  C   UNL     1      -2.348  -1.180  24.674  0.00  0.00    +0.029 A 
BRANCH  31  11
ATOM     11  N   UNL     1      -1.402  -2.214  24.513  0.00  0.00    -0.336 N 
ATOM     32  C   UNL     1      -0.223  -2.267  25.354  0.00  0.00    +0.129 C 
ATOM     33  C   UNL     1      -1.603  -3.245  23.514  0.00  0.00    +0.129 C 
ENDBRANCH  31  11
ENDBRANCH  19  23
ENDBRANCH  14   6
BRANCH  15   7
ATOM      3  O   UNL     1       1.571   2.278  23.451  0.00  0.00    -0.276 OA
ATOM      7  N   UNL     1       0.143   1.342  25.023  0.00  0.00    -0.308 N 
ATOM     18  C   UNL     1       1.061   1.296  23.987  0.00  0.00    +0.214 C 
ATOM     34  H   UNL     1      -0.182   0.473  25.437  0.00  0.00    +0.149 HD
BRANCH  18  20
ATOM     20  C   UNL     1       1.401  -0.121  23.553  0.00  0.00    +0.102 C 
BRANCH  20  21
ATOM     21  C   UNL     1       2.765  -0.271  22.832  0.00  0.00    -0.017 C 
ATOM     24  C   UNL     1       2.493  -0.365  21.316  0.00  0.00    +0.012 C 
ATOM     25  C   UNL     1       3.459  -1.581  23.259  0.00  0.00    +0.012 C 
BRANCH  21  22
ATOM     22  C   UNL     1       3.733   0.901  23.128  0.00  0.00    +0.127 C 
BRANCH  22  28
ATOM      5  O   UNL     1       5.983   0.036  22.904  0.00  0.00    -0.251 OA
ATOM     28  C   UNL     1       5.100   0.486  23.623  0.00  0.00    +0.305 C 
BRANCH  28   4
ATOM      4  O   UNL     1       5.251   0.656  24.960  0.00  0.00    -0.481 OA
ATOM     35  H   UNL     1       5.018   1.566  25.242  0.00  0.00    +0.295 HD
ENDBRANCH  28   4
ENDBRANCH  22  28
ENDBRANCH  21  22
ENDBRANCH  20  21
ENDBRANCH  18  20
ENDBRANCH  15   7
TORSDOF 9
ENDMDL
MODEL 2
REMARK VINA RESULT:       2.5      2.152      4.221
REMARK  Name = 11879670
REMARK  13 active torsions:
REMARK  status: ('A' for Active; 'I' for Inactive)
REMARK    1  A    between atoms: O_4  and  C_28
REMARK    2  A    between atoms: N_6  and  C_14
REMARK    3  A    between atoms: N_7  and  C_15
REMARK    4  A    between atoms: N_11  and  C_31
REMARK    5  A    between atoms: N_11  and  C_32
REMARK    6  A    between atoms: N_11  and  C_33
REMARK    7  A    between atoms: C_18  and  C_20
REMARK    8  A    between atoms: C_19  and  C_23
REMARK    9  A    between atoms: C_20  and  C_21
REMARK   10  A    between atoms: C_21  and  C_22
REMARK   11  A    between atoms: C_21  and  C_24
REMARK   12  A    between atoms: C_21  and  C_25
REMARK   13  A    between atoms: C_22  and  C_28
REMARK                            x       y       z     vdW  Elec       q    Type
REMARK                         _______ _______ _______ _____ _____    ______ ____
ROOT
ATOM      1  O   UNL     1      -3.781  -0.626  23.497  0.00  0.00    -0.370 OA
ATOM      2  O   UNL     1      -2.381  -0.674  26.314  0.00  0.00    -0.370 OA
ATOM     12  C   UNL     1      -2.455   0.295  25.252  0.00  0.00    +0.176 C 
ATOM     13  C   UNL     1      -2.425  -0.471  23.943  0.00  0.00    +0.171 C 
ATOM     14  C   UNL     1      -3.811   0.976  25.268  0.00  0.00    +0.168 C 
ATOM     15  C   UNL     1      -1.836  -1.814  24.311  0.00  0.00    +0.130 C 
ATOM     16  C   UNL     1      -4.663   0.062  24.394  0.00  0.00    +0.190 C 
ATOM     17  C   UNL     1      -2.298  -1.988  25.745  0.00  0.00    +0.185 C 
ENDROOT
BRANCH  14   6
ATOM      6  N   UNL     1      -3.745   2.371  24.828  0.00  0.00    -0.217 N 
ATOM      8  N   UNL     1      -4.655   2.866  23.977  0.00  0.00    -0.043 NA
ATOM      9  N   UNL     1      -3.174   4.441  24.523  0.00  0.00    -0.108 NA
ATOM     10  N   UNL     1      -4.301   4.133  23.795  0.00  0.00    -0.023 NA
ATOM     19  C   UNL     1      -2.847   3.337  25.155  0.00  0.00    +0.182 A 
BRANCH  19  23
ATOM     23  C   UNL     1      -1.734   3.148  26.048  0.00  0.00    +0.021 A 
ATOM     26  C   UNL     1      -1.908   3.303  27.424  0.00  0.00    +0.013 A 
ATOM     27  C   UNL     1      -0.479   2.813  25.538  0.00  0.00    +0.013 A 
ATOM     29  C   UNL     1      -0.828   3.123  28.287  0.00  0.00    +0.024 A 
ATOM     30  C   UNL     1       0.600   2.633  26.402  0.00  0.00    +0.024 A 
ATOM     31  C   UNL     1       0.426   2.787  27.777  0.00  0.00    +0.029 A 
BRANCH  31  11
ATOM     11  N   UNL     1       1.518   2.606  28.652  0.00  0.00    -0.336 N 
ATOM     32  C   UNL     1       1.315   2.041  29.971  0.00  0.00    +0.129 C 
ATOM     33  C   UNL     1       2.858   2.969  28.237  0.00  0.00    +0.129 C 
ENDBRANCH  31  11
ENDBRANCH  19  23
ENDBRANCH  14   6
BRANCH  15   7
ATOM      3  O   UNL     1      -0.191   0.374  23.425  0.00  0.00    -0.276 OA
ATOM      7  N   UNL     1      -0.396  -1.796  24.224  0.00  0.00    -0.308 N 
ATOM     18  C   UNL     1       0.312  -0.689  23.783  0.00  0.00    +0.214 C 
ATOM     34  H   UNL     1       0.112  -2.612  24.550  0.00  0.00    +0.149 HD
BRANCH  18  20
ATOM     20  C   UNL     1       1.817  -0.905  23.782  0.00  0.00    +0.102 C 
BRANCH  20  21
ATOM     21  C   UNL     1       2.590  -0.088  22.715  0.00  0.00    -0.017 C 
ATOM     24  C   UNL     1       2.516   1.401  23.112  0.00  0.00    +0.012 C 
ATOM     25  C   UNL     1       1.916  -0.233  21.334  0.00  0.00    +0.012 C 
BRANCH  21  22
ATOM     22  C   UNL     1       4.067  -0.529  22.575  0.00  0.00    +0.127 C 
BRANCH  22  28
ATOM      5  O   UNL     1       5.371   1.004  23.922  0.00  0.00    -0.251 OA
ATOM     28  C   UNL     1       4.960  -0.134  23.729  0.00  0.00    +0.305 C 
BRANCH  28   4
ATOM      4  O   UNL     1       5.272  -1.178  24.536  0.00  0.00    -0.481 OA
ATOM     35  H   UNL     1       5.528  -1.974  24.023  0.00  0.00    +0.295 HD
ENDBRANCH  28   4
ENDBRANCH  22  28
ENDBRANCH  21  22
ENDBRANCH  20  21
ENDBRANCH  18  20
ENDBRANCH  15   7
TORSDOF 9
ENDMDL
MODEL 3
REMARK VINA RESULT:       3.3      1.859      3.910
REMARK  Name = 11879670
REMARK  13 active torsions:
REMARK  status: ('A' for Active; 'I' for Inactive)
REMARK    1  A    between atoms: O_4  and  C_28
REMARK    2  A    between atoms: N_6  and  C_14
REMARK    3  A    between atoms: N_7  and  C_15
REMARK    4  A    between atoms: N_11  and  C_31
REMARK    5  A    between atoms: N_11  and  C_32
REMARK    6  A    between atoms: N_11  and  C_33
REMARK    7  A    between atoms: C_18  and  C_20
REMARK    8  A    between atoms: C_19  and  C_23
REMARK    9  A    between atoms: C_20  and  C_21
REMARK   10  A    between atoms: C_21  and  C_22
REMARK   11  A    between atoms: C_21  and  C_24
REMARK   12  A    between atoms: C_21  and  C_25
REMARK   13  A    between atoms: C_22  and  C_28
REMARK                            x       y       z     vdW  Elec       q    Type
REMARK                         _______ _______ _______ _____ _____    ______ ____
ROOT
ATOM      1  O   UNL     1      -3.447  -1.623  23.511  0.00  0.00    -0.370 OA
ATOM      2  O   UNL     1      -2.343  -0.842  26.351  0.00  0.00    -0.370 OA
ATOM     12  C   UNL     1      -3.037  -0.121  25.317  0.00  0.00    +0.176 C 
ATOM     13  C   UNL     1      -2.520  -0.635  23.988  0.00  0.00    +0.171 C 
ATOM     14  C   UNL     1      -4.509  -0.494  25.328  0.00  0.00    +0.168 C 
ATOM     15  C   UNL     1      -1.194  -1.279  24.326  0.00  0.00    +0.130 C 
ATOM     16  C   UNL     1      -4.560  -1.711  24.411  0.00  0.00    +0.190 C 
ATOM     17  C   UNL     1      -1.423  -1.762  25.746  0.00  0.00    +0.185 C 
ENDROOT
BRANCH  14   6
ATOM      6  N   UNL     1      -5.373   0.619  24.930  0.00  0.00    -0.217 N 
ATOM      8  N   UNL     1      -6.682   0.428  24.713  0.00  0.00    -0.043 NA
ATOM      9  N   UNL     1      -6.149   2.568  24.376  0.00  0.00    -0.108 NA
ATOM     10  N   UNL     1      -7.152   1.624  24.375  0.00  0.00    -0.023 NA
ATOM     19  C   UNL     1      -5.058   1.924  24.723  0.00  0.00    +0.182 A 
BRANCH  19  23
ATOM     23  C   UNL     1      -3.736   2.478  24.867  0.00  0.00    +0.021 A 
ATOM     26  C   UNL     1      -2.825   2.394  23.814  0.00  0.00    +0.013 A 
ATOM     27  C   UNL     1      -3.366   3.097  26.062  0.00  0.00    +0.013 A 
ATOM     29  C   UNL     1      -1.544   2.929  23.956  0.00  0.00    +0.024 A 
ATOM     30  C   UNL     1      -2.085   3.632  26.203  0.00  0.00    +0.024 A 
ATOM     31  C   UNL     1      -1.175   3.548  25.150  0.00  0.00    +0.029 A 
BRANCH  31  11
ATOM     11  N   UNL     1       0.120   4.088  25.293  0.00  0.00    -0.336 N 
ATOM     32  C   UNL     1       0.500   5.286  24.572  0.00  0.00    +0.129 C 
ATOM     33  C   UNL     1       1.084   3.459  26.174  0.00  0.00    +0.129 C 
ENDBRANCH  31  11
ENDBRANCH  19  23
ENDBRANCH  14   6
BRANCH  15   7
ATOM      3  O   UNL     1       0.517  -0.746  22.076  0.00  0.00    -0.276 OA
ATOM      7  N   UNL     1      -0.118  -0.320  24.267  0.00  0.00    -0.308 N 
ATOM     18  C   UNL     1       0.655  -0.134  23.133  0.00  0.00    +0.214 C 
ATOM     34  H   UNL     1       0.038   0.273  25.077  0.00  0.00    +0.149 HD
BRANCH  18  20
ATOM     20  C   UNL     1       1.725   0.932  23.308  0.00  0.00    +0.102 C 
BRANCH  20  21
ATOM     21  C   UNL     1       3.105   0.576  22.698  0.00  0.00    -0.017 C 
ATOM     24  C   UNL     1       3.927   1.877  22.592  0.00  0.00    +0.012 C 
ATOM     25  C   UNL     1       2.934   0.019  21.269  0.00  0.00    +0.012 C 
BRANCH  21  22
ATOM     22  C   UNL     1       3.876  -0.476  23.531  0.00  0.00    +0.127 C 
BRANCH  22  28
ATOM      5  O   UNL     1       6.262  -0.337  23.138  0.00  0.00    -0.251 OA
ATOM     28  C   UNL     1       5.303  -0.101  23.863  0.00  0.00    +0.305 C 
BRANCH  28   4
ATOM      4  O   UNL     1       5.420   0.524  25.061  0.00  0.00    -0.481 OA
ATOM     35  H   UNL     1       4.752   1.234  25.170  0.00  0.00    +0.295 HD
ENDBRANCH  28   4
ENDBRANCH  22  28
ENDBRANCH  21  22
ENDBRANCH  20  21
ENDBRANCH  18  20
ENDBRANCH  15   7
TORSDOF 9
ENDMDL
