MODEL 1
REMARK VINA RESULT:       3.6      0.000      0.000
REMARK  Name = 40777440
REMARK  9 active torsions:
REMARK  status: ('A' for Active; 'I' for Inactive)
REMARK    1  A    between atoms: O_3  and  C_35
REMARK    2  A    between atoms: O_3  and  C_36
REMARK    3  A    between atoms: C_7  and  C_10
REMARK    4  A    between atoms: C_8  and  C_14
REMARK    5  A    between atoms: C_10  and  C_19
REMARK    6  A    between atoms: C_12  and  C_20
REMARK    7  A    between atoms: C_14  and  C_21
REMARK    8  A    between atoms: C_20  and  C_22
REMARK    9  A    between atoms: C_24  and  C_29
REMARK                            x       y       z     vdW  Elec       q    Type
REMARK                         _______ _______ _______ _____ _____    ______ ____
ROOT
ATOM      5  N   UNL     1      -0.217   5.560  24.264  0.00  0.00    -0.316 NA
ATOM      7  C   UNL     1      -2.538   4.258  25.538  0.00  0.00    +0.004 C 
ATOM      8  C   UNL     1      -1.304   3.468  25.042  0.00  0.00    +0.012 C 
ATOM      9  C   UNL     1      -2.120   5.708  25.831  0.00  0.00    +0.019 C 
ATOM     11  C   UNL     1      -0.587   4.195  23.892  0.00  0.00    +0.085 C 
ATOM     13  C   UNL     1      -1.380   6.351  24.659  0.00  0.00    +0.081 C 
ATOM     37  H   UNL     1       0.247   6.011  23.476  0.00  0.00    +0.122 HD
ENDROOT
BRANCH   7  10
ATOM     10  C   UNL     1      -3.732   4.218  24.575  0.00  0.00    +0.100 C 
BRANCH  10  19
ATOM      1  O   UNL     1      -5.435   3.696  26.138  0.00  0.00    -0.276 OA
ATOM      4  N   UNL     1      -5.046   2.129  24.468  0.00  0.00    -0.301 N 
ATOM     12  C   UNL     1      -4.827  -0.717  23.954  0.00  0.00    -0.004 C 
ATOM     15  C   UNL     1      -3.745   0.273  23.499  0.00  0.00    +0.023 C 
ATOM     16  C   UNL     1      -5.562  -0.170  25.187  0.00  0.00    +0.023 C 
ATOM     17  C   UNL     1      -4.326   1.668  23.275  0.00  0.00    +0.108 C 
ATOM     18  C   UNL     1      -6.107   1.232  24.926  0.00  0.00    +0.108 C 
ATOM     19  C   UNL     1      -4.815   3.331  25.135  0.00  0.00    +0.216 C 
BRANCH  12  20
ATOM     20  C   UNL     1      -4.221  -2.089  24.247  0.00  0.00    +0.038 C 
BRANCH  20  22
ATOM     22  C   UNL     1      -2.833  -1.971  24.813  0.00  0.00    -0.047 A 
ATOM     25  C   UNL     1      -2.600  -1.160  25.925  0.00  0.00    +0.003 A 
ATOM     26  C   UNL     1      -1.778  -2.670  24.227  0.00  0.00    +0.003 A 
ATOM     27  C   UNL     1      -1.312  -1.050  26.449  0.00  0.00    +0.000 A 
ATOM     28  C   UNL     1      -0.491  -2.561  24.753  0.00  0.00    +0.000 A 
ATOM     30  C   UNL     1      -0.257  -1.750  25.864  0.00  0.00    +0.000 A 
ENDBRANCH  20  22
ENDBRANCH  12  20
ENDBRANCH  10  19
ENDBRANCH   7  10
BRANCH   8  14
ATOM     14  C   UNL     1      -1.633   2.028  24.646  0.00  0.00    +0.064 C 
BRANCH  14  21
ATOM      2  O   UNL     1       0.683   0.032  22.745  0.00  0.00    -0.354 OA
ATOM      6  N   UNL     1      -0.598   0.485  23.038  0.00  0.00    -0.083 NA
ATOM     21  C   UNL     1      -0.439   1.335  24.057  0.00  0.00    +0.085 A 
ATOM     23  C   UNL     1       0.906   1.458  24.445  0.00  0.00    +0.076 A 
ATOM     24  C   UNL     1       1.570   0.619  23.589  0.00  0.00    +0.167 A 
BRANCH  24  29
ATOM     29  C   UNL     1       2.943   0.246  23.406  0.00  0.00    +0.020 A 
ATOM     31  C   UNL     1       3.364  -1.045  23.723  0.00  0.00    +0.015 A 
ATOM     32  C   UNL     1       3.857   1.177  22.911  0.00  0.00    +0.015 A 
ATOM     33  C   UNL     1       4.700  -1.407  23.544  0.00  0.00    +0.046 A 
ATOM     34  C   UNL     1       5.192   0.816  22.731  0.00  0.00    +0.046 A 
ATOM     35  C   UNL     1       5.614  -0.476  23.049  0.00  0.00    +0.120 A 
BRANCH  35   3
ATOM      3  O   UNL     1       6.916  -0.830  22.872  0.00  0.00    -0.495 OA
ATOM     36  C   UNL     1       7.906   0.056  23.391  0.00  0.00    +0.277 C 
ENDBRANCH  35   3
ENDBRANCH  24  29
ENDBRANCH  14  21
ENDBRANCH   8  14
TORSDOF 8
ENDMDL
MODEL 2
REMARK VINA RESULT:       7.2      2.455      4.680
REMARK  Name = 40777440
REMARK  9 active torsions:
REMARK  status: ('A' for Active; 'I' for Inactive)
REMARK    1  A    between atoms: O_3  and  C_35
REMARK    2  A    between atoms: O_3  and  C_36
REMARK    3  A    between atoms: C_7  and  C_10
REMARK    4  A    between atoms: C_8  and  C_14
REMARK    5  A    between atoms: C_10  and  C_19
REMARK    6  A    between atoms: C_12  and  C_20
REMARK    7  A    between atoms: C_14  and  C_21
REMARK    8  A    between atoms: C_20  and  C_22
REMARK    9  A    between atoms: C_24  and  C_29
REMARK                            x       y       z     vdW  Elec       q    Type
REMARK                         _______ _______ _______ _____ _____    ______ ____
ROOT
ATOM      5  N   UNL     1      -4.907   0.093  25.987  0.00  0.00    -0.316 NA
ATOM      7  C   UNL     1      -5.563   2.365  24.222  0.00  0.00    +0.004 C 
ATOM      8  C   UNL     1      -4.326   1.463  24.000  0.00  0.00    +0.012 C 
ATOM      9  C   UNL     1      -6.623   1.577  25.009  0.00  0.00    +0.019 C 
ATOM     11  C   UNL     1      -3.838   0.832  25.315  0.00  0.00    +0.085 C 
ATOM     13  C   UNL     1      -6.057   0.946  26.281  0.00  0.00    +0.081 C 
ATOM     37  H   UNL     1      -4.549  -0.302  26.856  0.00  0.00    +0.122 HD
ENDROOT
BRANCH   7  10
ATOM     10  C   UNL     1      -5.248   3.697  24.914  0.00  0.00    +0.100 C 
BRANCH  10  19
ATOM      1  O   UNL     1      -4.088   4.702  23.110  0.00  0.00    -0.276 OA
ATOM      4  N   UNL     1      -2.902   4.451  25.092  0.00  0.00    -0.301 N 
ATOM     12  C   UNL     1      -0.315   3.720  26.179  0.00  0.00    -0.004 C 
ATOM     15  C   UNL     1      -1.616   3.083  26.689  0.00  0.00    +0.023 C 
ATOM     16  C   UNL     1      -0.482   4.176  24.722  0.00  0.00    +0.023 C 
ATOM     17  C   UNL     1      -2.808   4.018  26.491  0.00  0.00    +0.108 C 
ATOM     18  C   UNL     1      -1.696   5.090  24.567  0.00  0.00    +0.108 C 
ATOM     19  C   UNL     1      -4.033   4.330  24.285  0.00  0.00    +0.216 C 
BRANCH  12  20
ATOM     20  C   UNL     1       0.856   2.748  26.313  0.00  0.00    +0.038 C 
BRANCH  20  22
ATOM     22  C   UNL     1       1.325   2.638  27.737  0.00  0.00    -0.047 A 
ATOM     25  C   UNL     1       2.664   2.877  28.050  0.00  0.00    +0.003 A 
ATOM     26  C   UNL     1       0.424   2.297  28.745  0.00  0.00    +0.003 A 
ATOM     27  C   UNL     1       3.100   2.774  29.371  0.00  0.00    +0.000 A 
ATOM     28  C   UNL     1       0.860   2.196  30.066  0.00  0.00    +0.000 A 
ATOM     30  C   UNL     1       2.198   2.434  30.379  0.00  0.00    +0.000 A 
ENDBRANCH  20  22
ENDBRANCH  12  20
ENDBRANCH  10  19
ENDBRANCH   7  10
BRANCH   8  14
ATOM     14  C   UNL     1      -3.178   2.185  23.292  0.00  0.00    +0.064 C 
BRANCH  14  21
ATOM      2  O   UNL     1      -0.580  -0.246  23.846  0.00  0.00    -0.354 OA
ATOM      6  N   UNL     1      -1.908   0.164  23.876  0.00  0.00    -0.083 NA
ATOM     21  C   UNL     1      -1.895   1.414  23.403  0.00  0.00    +0.085 A 
ATOM     23  C   UNL     1      -0.601   1.841  23.061  0.00  0.00    +0.076 A 
ATOM     24  C   UNL     1       0.188   0.761  23.358  0.00  0.00    +0.167 A 
BRANCH  24  29
ATOM     29  C   UNL     1       1.592   0.483  23.266  0.00  0.00    +0.020 A 
ATOM     31  C   UNL     1       2.489   1.509  22.970  0.00  0.00    +0.015 A 
ATOM     32  C   UNL     1       2.060  -0.815  23.474  0.00  0.00    +0.015 A 
ATOM     33  C   UNL     1       3.855   1.238  22.881  0.00  0.00    +0.046 A 
ATOM     34  C   UNL     1       3.426  -1.086  23.386  0.00  0.00    +0.046 A 
ATOM     35  C   UNL     1       4.323  -0.060  23.089  0.00  0.00    +0.120 A 
BRANCH  35   3
ATOM      3  O   UNL     1       5.655  -0.323  23.006  0.00  0.00    -0.495 OA
ATOM     36  C   UNL     1       6.304  -0.770  24.196  0.00  0.00    +0.277 C 
ENDBRANCH  35   3
ENDBRANCH  24  29
ENDBRANCH  14  21
ENDBRANCH   8  14
TORSDOF 8
ENDMDL
