MODEL 1
REMARK VINA RESULT:       1.1      0.000      0.000
REMARK  Name = 51138057
REMARK  8 active torsions:
REMARK  status: ('A' for Active; 'I' for Inactive)
REMARK    1  A    between atoms: N_2  and  C_6
REMARK    2  A    between atoms: N_4  and  C_22
REMARK    3  A    between atoms: C_9  and  C_16
REMARK    4  A    between atoms: C_10  and  C_15
REMARK    5  A    between atoms: C_15  and  C_18
REMARK    6  A    between atoms: C_18  and  C_24
REMARK    7  A    between atoms: C_18  and  C_25
REMARK    8  A    between atoms: C_22  and  C_26
REMARK                            x       y       z     vdW  Elec       q    Type
REMARK                         _______ _______ _______ _____ _____    ______ ____
ROOT
ATOM      3  N   UNL     1      -3.054   1.422  25.298  0.00  0.00    -0.299 NA
ATOM      4  N   UNL     1       1.197   0.132  22.895  0.00  0.00    -0.341 N 
ATOM      9  C   UNL     1      -2.037   2.461  25.399  0.00  0.00    +0.145 C 
ATOM     10  C   UNL     1      -2.659   0.122  25.857  0.00  0.00    +0.085 C 
ATOM     11  C   UNL     1      -1.236   2.590  24.105  0.00  0.00    +0.065 C 
ATOM     12  C   UNL     1      -1.489  -0.580  25.160  0.00  0.00    -0.021 A 
ATOM     13  C   UNL     1      -0.565   0.050  24.275  0.00  0.00    +0.008 A 
ATOM     14  C   UNL     1      -0.405   1.392  23.785  0.00  0.00    -0.020 A 
ATOM     17  C   UNL     1       0.472  -0.703  23.713  0.00  0.00    +0.050 A 
ATOM     19  C   UNL     1       0.683   1.394  22.936  0.00  0.00    +0.091 A 
ATOM     20  C   UNL     1      -1.236  -1.941  25.462  0.00  0.00    +0.006 A 
ATOM     21  C   UNL     1       0.676  -2.056  23.986  0.00  0.00    +0.026 A 
ATOM     23  C   UNL     1      -0.192  -2.662  24.885  0.00  0.00    +0.002 A 
ATOM     32  H   UNL     1      -3.384   1.321  24.339  0.00  0.00    +0.123 HD
ENDROOT
BRANCH   9  16
ATOM      1  O   UNL     1      -2.231   4.817  25.727  0.00  0.00    -0.274 OA
ATOM      2  N   UNL     1      -4.158   3.519  25.761  0.00  0.00    -0.311 N 
ATOM     16  C   UNL     1      -2.795   3.731  25.635  0.00  0.00    +0.231 C 
ATOM     31  H   UNL     1      -4.538   2.581  25.671  0.00  0.00    +0.149 HD
BRANCH   2   6
ATOM      6  C   UNL     1      -5.083   4.586  26.020  0.00  0.00    +0.073 C 
ATOM      7  C   UNL     1      -6.555   4.415  25.785  0.00  0.00    +0.024 C 
ATOM      8  C   UNL     1      -5.754   5.320  24.897  0.00  0.00    +0.024 C 
ENDBRANCH   2   6
ENDBRANCH   9  16
BRANCH  10  15
ATOM     15  C   UNL     1      -3.949  -0.719  25.832  0.00  0.00    +0.026 C 
BRANCH  15  18
ATOM     18  C   UNL     1      -4.471  -0.972  24.414  0.00  0.00    -0.015 C 
ATOM     24  C   UNL     1      -3.834  -0.046  23.378  0.00  0.00    +0.007 C 
ATOM     25  C   UNL     1      -4.211  -2.431  24.033  0.00  0.00    +0.007 C 
ENDBRANCH  15  18
ENDBRANCH  10  15
BRANCH   4  22
ATOM     22  C   UNL     1       2.353  -0.250  22.112  0.00  0.00    +0.177 C 
BRANCH  22  26
ATOM      5  N   UNL     1       3.968  -1.436  23.497  0.00  0.00    -0.258 NA
ATOM     26  C   UNL     1       3.635  -0.266  22.907  0.00  0.00    +0.061 A 
ATOM     27  C   UNL     1       4.394   0.890  22.992  0.00  0.00    +0.025 A 
ATOM     28  C   UNL     1       5.571   0.842  23.732  0.00  0.00    +0.003 A 
ATOM     29  C   UNL     1       5.118  -1.444  24.207  0.00  0.00    +0.111 A 
ATOM     30  C   UNL     1       5.947  -0.344  24.353  0.00  0.00    +0.020 A 
ENDBRANCH  22  26
ENDBRANCH   4  22
TORSDOF 6
ENDMDL
MODEL 2
REMARK VINA RESULT:       3.0      2.065      7.561
REMARK  Name = 51138057
REMARK  8 active torsions:
REMARK  status: ('A' for Active; 'I' for Inactive)
REMARK    1  A    between atoms: N_2  and  C_6
REMARK    2  A    between atoms: N_4  and  C_22
REMARK    3  A    between atoms: C_9  and  C_16
REMARK    4  A    between atoms: C_10  and  C_15
REMARK    5  A    between atoms: C_15  and  C_18
REMARK    6  A    between atoms: C_18  and  C_24
REMARK    7  A    between atoms: C_18  and  C_25
REMARK    8  A    between atoms: C_22  and  C_26
REMARK                            x       y       z     vdW  Elec       q    Type
REMARK                         _______ _______ _______ _____ _____    ______ ____
ROOT
ATOM      3  N   UNL     1       0.498  -0.968  23.957  0.00  0.00    -0.299 NA
ATOM      4  N   UNL     1      -1.806   3.478  24.609  0.00  0.00    -0.341 N 
ATOM      9  C   UNL     1       1.196   0.109  23.269  0.00  0.00    +0.145 C 
ATOM     10  C   UNL     1      -0.891  -1.173  23.526  0.00  0.00    +0.085 C 
ATOM     11  C   UNL     1       1.168   1.404  24.080  0.00  0.00    +0.065 C 
ATOM     12  C   UNL     1      -1.855  -0.013  23.799  0.00  0.00    -0.021 A 
ATOM     13  C   UNL     1      -1.464   1.323  24.105  0.00  0.00    +0.008 A 
ATOM     14  C   UNL     1      -0.196   1.988  24.240  0.00  0.00    -0.020 A 
ATOM     17  C   UNL     1      -2.446   2.296  24.320  0.00  0.00    +0.050 A 
ATOM     19  C   UNL     1      -0.454   3.306  24.558  0.00  0.00    +0.091 A 
ATOM     20  C   UNL     1      -3.247  -0.242  23.667  0.00  0.00    +0.006 A 
ATOM     21  C   UNL     1      -3.815   2.040  24.231  0.00  0.00    +0.026 A 
ATOM     23  C   UNL     1      -4.201   0.751  23.887  0.00  0.00    +0.002 A 
ATOM     32  H   UNL     1       0.553  -0.856  24.968  0.00  0.00    +0.123 HD
ENDROOT
BRANCH   9  16
ATOM      1  O   UNL     1       2.896  -1.546  23.012  0.00  0.00    -0.274 OA
ATOM      2  N   UNL     1       3.524   0.683  23.211  0.00  0.00    -0.311 N 
ATOM     16  C   UNL     1       2.613  -0.358  23.140  0.00  0.00    +0.231 C 
ATOM     31  H   UNL     1       3.195   1.639  23.318  0.00  0.00    +0.149 HD
BRANCH   2   6
ATOM      6  C   UNL     1       4.941   0.473  23.139  0.00  0.00    +0.073 C 
ATOM      7  C   UNL     1       5.602  -0.644  23.892  0.00  0.00    +0.024 C 
ATOM      8  C   UNL     1       5.829   0.779  24.309  0.00  0.00    +0.024 C 
ENDBRANCH   2   6
ENDBRANCH   9  16
BRANCH  10  15
ATOM     15  C   UNL     1      -1.326  -2.476  24.222  0.00  0.00    +0.026 C 
BRANCH  15  18
ATOM     18  C   UNL     1      -2.796  -2.461  24.655  0.00  0.00    -0.015 C 
ATOM     24  C   UNL     1      -3.582  -3.654  24.112  0.00  0.00    +0.007 C 
ATOM     25  C   UNL     1      -2.873  -2.443  26.183  0.00  0.00    +0.007 C 
ENDBRANCH  15  18
ENDBRANCH  10  15
BRANCH   4  22
ATOM     22  C   UNL     1      -2.454   4.737  24.908  0.00  0.00    +0.177 C 
BRANCH  22  26
ATOM      5  N   UNL     1      -4.167   3.702  26.296  0.00  0.00    -0.258 NA
ATOM     26  C   UNL     1      -3.901   4.585  25.308  0.00  0.00    +0.061 A 
ATOM     27  C   UNL     1      -4.866   5.341  24.661  0.00  0.00    +0.025 A 
ATOM     28  C   UNL     1      -6.190   5.178  25.053  0.00  0.00    +0.003 A 
ATOM     29  C   UNL     1      -5.465   3.571  26.650  0.00  0.00    +0.111 A 
ATOM     30  C   UNL     1      -6.503   4.278  26.066  0.00  0.00    +0.020 A 
ENDBRANCH  22  26
ENDBRANCH   4  22
TORSDOF 6
ENDMDL
MODEL 3
REMARK VINA RESULT:       3.2      1.807      2.359
REMARK  Name = 51138057
REMARK  8 active torsions:
REMARK  status: ('A' for Active; 'I' for Inactive)
REMARK    1  A    between atoms: N_2  and  C_6
REMARK    2  A    between atoms: N_4  and  C_22
REMARK    3  A    between atoms: C_9  and  C_16
REMARK    4  A    between atoms: C_10  and  C_15
REMARK    5  A    between atoms: C_15  and  C_18
REMARK    6  A    between atoms: C_18  and  C_24
REMARK    7  A    between atoms: C_18  and  C_25
REMARK    8  A    between atoms: C_22  and  C_26
REMARK                            x       y       z     vdW  Elec       q    Type
REMARK                         _______ _______ _______ _____ _____    ______ ____
ROOT
ATOM      3  N   UNL     1      -3.189   2.102  24.990  0.00  0.00    -0.299 NA
ATOM      4  N   UNL     1       0.748  -0.666  23.460  0.00  0.00    -0.341 N 
ATOM      9  C   UNL     1      -1.926   2.647  25.466  0.00  0.00    +0.145 C 
ATOM     10  C   UNL     1      -3.471   0.729  25.432  0.00  0.00    +0.085 C 
ATOM     11  C   UNL     1      -0.822   2.502  24.421  0.00  0.00    +0.065 C 
ATOM     12  C   UNL     1      -2.506  -0.349  24.927  0.00  0.00    -0.021 A 
ATOM     13  C   UNL     1      -1.216  -0.101  24.375  0.00  0.00    +0.008 A 
ATOM     14  C   UNL     1      -0.443   1.087  24.132  0.00  0.00    -0.020 A 
ATOM     17  C   UNL     1      -0.424  -1.179  23.963  0.00  0.00    +0.050 A 
ATOM     19  C   UNL     1       0.750   0.693  23.562  0.00  0.00    +0.091 A 
ATOM     20  C   UNL     1      -2.869  -1.710  25.082  0.00  0.00    +0.006 A 
ATOM     21  C   UNL     1      -0.819  -2.512  24.080  0.00  0.00    +0.026 A 
ATOM     23  C   UNL     1      -2.056  -2.761  24.661  0.00  0.00    +0.002 A 
ATOM     32  H   UNL     1      -3.265   2.180  23.977  0.00  0.00    +0.123 HD
ENDROOT
BRANCH   9  16
ATOM      1  O   UNL     1      -3.045   4.488  26.494  0.00  0.00    -0.274 OA
ATOM      2  N   UNL     1      -1.391   4.920  24.920  0.00  0.00    -0.311 N 
ATOM     16  C   UNL     1      -2.190   4.102  25.703  0.00  0.00    +0.231 C 
ATOM     31  H   UNL     1      -0.707   4.510  24.290  0.00  0.00    +0.149 HD
BRANCH   2   6
ATOM      6  C   UNL     1      -1.487   6.352  24.955  0.00  0.00    +0.073 C 
ATOM      7  C   UNL     1      -2.807   7.040  25.133  0.00  0.00    +0.024 C 
ATOM      8  C   UNL     1      -2.095   7.115  23.816  0.00  0.00    +0.024 C 
ENDBRANCH   2   6
ENDBRANCH   9  16
BRANCH  10  15
ATOM     15  C   UNL     1      -4.925   0.471  24.995  0.00  0.00    +0.026 C 
BRANCH  15  18
ATOM     18  C   UNL     1      -5.807   1.720  25.083  0.00  0.00    -0.015 C 
ATOM     24  C   UNL     1      -7.072   1.609  24.233  0.00  0.00    +0.007 C 
ATOM     25  C   UNL     1      -6.186   1.969  26.545  0.00  0.00    +0.007 C 
ENDBRANCH  15  18
ENDBRANCH  10  15
BRANCH   4  22
ATOM     22  C   UNL     1       1.842  -1.442  22.915  0.00  0.00    +0.177 C 
BRANCH  22  26
ATOM      5  N   UNL     1       3.396   0.405  22.588  0.00  0.00    -0.258 NA
ATOM     26  C   UNL     1       3.194  -0.812  23.141  0.00  0.00    +0.061 A 
ATOM     27  C   UNL     1       4.142  -1.492  23.890  0.00  0.00    +0.025 A 
ATOM     28  C   UNL     1       5.378  -0.884  24.081  0.00  0.00    +0.003 A 
ATOM     29  C   UNL     1       4.609   0.964  22.795  0.00  0.00    +0.111 A 
ATOM     30  C   UNL     1       5.623   0.368  23.527  0.00  0.00    +0.020 A 
ENDBRANCH  22  26
ENDBRANCH   4  22
TORSDOF 6
ENDMDL
MODEL 4
REMARK VINA RESULT:       4.9      1.990      4.772
REMARK  Name = 51138057
REMARK  8 active torsions:
REMARK  status: ('A' for Active; 'I' for Inactive)
REMARK    1  A    between atoms: N_2  and  C_6
REMARK    2  A    between atoms: N_4  and  C_22
REMARK    3  A    between atoms: C_9  and  C_16
REMARK    4  A    between atoms: C_10  and  C_15
REMARK    5  A    between atoms: C_15  and  C_18
REMARK    6  A    between atoms: C_18  and  C_24
REMARK    7  A    between atoms: C_18  and  C_25
REMARK    8  A    between atoms: C_22  and  C_26
REMARK                            x       y       z     vdW  Elec       q    Type
REMARK                         _______ _______ _______ _____ _____    ______ ____
ROOT
ATOM      3  N   UNL     1      -3.465   1.148  25.234  0.00  0.00    -0.299 NA
ATOM      4  N   UNL     1       1.217   1.929  23.509  0.00  0.00    -0.341 N 
ATOM      9  C   UNL     1      -3.175   0.330  24.065  0.00  0.00    +0.145 C 
ATOM     10  C   UNL     1      -3.360   2.596  25.010  0.00  0.00    +0.085 C 
ATOM     11  C   UNL     1      -1.732  -0.171  24.074  0.00  0.00    +0.065 C 
ATOM     12  C   UNL     1      -1.963   3.119  24.657  0.00  0.00    -0.021 A 
ATOM     13  C   UNL     1      -0.877   2.315  24.204  0.00  0.00    +0.008 A 
ATOM     14  C   UNL     1      -0.714   0.912  23.937  0.00  0.00    -0.020 A 
ATOM     17  C   UNL     1       0.348   2.920  23.900  0.00  0.00    +0.050 A 
ATOM     19  C   UNL     1       0.588   0.720  23.521  0.00  0.00    +0.091 A 
ATOM     20  C   UNL     1      -1.731   4.517  24.700  0.00  0.00    +0.006 A 
ATOM     21  C   UNL     1       0.571   4.295  23.994  0.00  0.00    +0.026 A 
ATOM     23  C   UNL     1      -0.498   5.088  24.389  0.00  0.00    +0.002 A 
ATOM     32  H   UNL     1      -2.902   0.861  26.033  0.00  0.00    +0.123 HD
ENDROOT
BRANCH   9  16
ATOM      1  O   UNL     1      -5.316  -0.703  24.278  0.00  0.00    -0.274 OA
ATOM      2  N   UNL     1      -3.430  -2.054  24.144  0.00  0.00    -0.311 N 
ATOM     16  C   UNL     1      -4.102  -0.842  24.165  0.00  0.00    +0.231 C 
ATOM     31  H   UNL     1      -2.418  -2.072  24.047  0.00  0.00    +0.149 HD
BRANCH   2   6
ATOM      6  C   UNL     1      -4.108  -3.313  24.255  0.00  0.00    +0.073 C 
ATOM      7  C   UNL     1      -3.664  -4.510  23.466  0.00  0.00    +0.024 C 
ATOM      8  C   UNL     1      -4.963  -3.835  23.138  0.00  0.00    +0.024 C 
ENDBRANCH   2   6
ENDBRANCH   9  16
BRANCH  10  15
ATOM     15  C   UNL     1      -3.917   3.230  26.298  0.00  0.00    +0.026 C 
BRANCH  15  18
ATOM     18  C   UNL     1      -5.433   3.449  26.249  0.00  0.00    -0.015 C 
ATOM     24  C   UNL     1      -5.823   4.698  25.458  0.00  0.00    +0.007 C 
ATOM     25  C   UNL     1      -6.101   2.217  25.634  0.00  0.00    +0.007 C 
ENDBRANCH  15  18
ENDBRANCH  10  15
BRANCH   4  22
ATOM     22  C   UNL     1       2.596   2.124  23.117  0.00  0.00    +0.177 C 
BRANCH  22  26
ATOM      5  N   UNL     1       4.766   1.136  23.618  0.00  0.00    -0.258 NA
ATOM     26  C   UNL     1       3.461   0.909  23.347  0.00  0.00    +0.061 A 
ATOM     27  C   UNL     1       2.891  -0.352  23.274  0.00  0.00    +0.025 A 
ATOM     28  C   UNL     1       3.715  -1.451  23.493  0.00  0.00    +0.003 A 
ATOM     29  C   UNL     1       5.535   0.044  23.825  0.00  0.00    +0.111 A 
ATOM     30  C   UNL     1       5.063  -1.258  23.774  0.00  0.00    +0.020 A 
ENDBRANCH  22  26
ENDBRANCH   4  22
TORSDOF 6
ENDMDL
