MODEL 1
REMARK VINA RESULT:      -2.7      0.000      0.000
REMARK  Name = 75368660
REMARK  3 active torsions:
REMARK  status: ('A' for Active; 'I' for Inactive)
REMARK    1  A    between atoms: N_5  and  C_9
REMARK    2  A    between atoms: N_6  and  C_16
REMARK    3  A    between atoms: C_16  and  C_19
REMARK                            x       y       z     vdW  Elec       q    Type
REMARK                         _______ _______ _______ _____ _____    ______ ____
ROOT
ATOM      3  O   UNL     1      -4.644  -8.816   8.934  0.00  0.00    -0.252 OA
ATOM      4  N   UNL     1      -4.644  -8.975  11.278  0.00  0.00    -0.278 N 
ATOM      5  N   UNL     1      -6.621  -8.977  10.212  0.00  0.00    -0.280 N 
ATOM      6  N   UNL     1      -3.892  -9.824  13.852  0.00  0.00    -0.295 NA
ATOM      7  C   UNL     1      -5.629  -8.957  12.339  0.00  0.00    +0.109 C 
ATOM      8  C   UNL     1      -6.951  -9.191  11.610  0.00  0.00    +0.133 C 
ATOM     10  C   UNL     1      -5.287 -10.003  13.399  0.00  0.00    +0.109 C 
ATOM     11  C   UNL     1      -3.236  -8.953  11.617  0.00  0.00    +0.125 C 
ATOM     12  C   UNL     1      -5.228  -8.907  10.006  0.00  0.00    +0.305 C 
ATOM     13  C   UNL     1      -2.950  -9.972  12.723  0.00  0.00    +0.104 C 
ENDROOT
BRANCH   5   9
ATOM      2  O   UNL     1     -10.401  -8.860   8.429  0.00  0.00    -0.380 OA
ATOM      9  C   UNL     1      -7.625  -8.997   9.177  0.00  0.00    +0.082 C 
ATOM     14  C   UNL     1      -8.402  -7.681   9.148  0.00  0.00    +0.050 C 
ATOM     15  C   UNL     1      -8.583 -10.175   9.360  0.00  0.00    +0.050 C 
ATOM     17  C   UNL     1      -9.546  -7.754   8.143  0.00  0.00    +0.161 C 
ATOM     18  C   UNL     1      -9.715 -10.108   8.342  0.00  0.00    +0.161 C 
ENDBRANCH   5   9
BRANCH   6  16
ATOM     16  C   UNL     1      -3.572 -10.781  14.911  0.00  0.00    +0.119 C 
BRANCH  16  19
ATOM      1 CL   UNL     1      -7.597 -10.606  19.379  0.00  0.00    -0.084 Cl
ATOM     19  C   UNL     1      -4.580 -10.738  16.028  0.00  0.00    -0.033 A 
ATOM     20  C   UNL     1      -4.148 -10.721  17.355  0.00  0.00    +0.006 A 
ATOM     21  C   UNL     1      -5.944 -10.714  15.738  0.00  0.00    +0.006 A 
ATOM     22  C   UNL     1      -5.082 -10.682  18.391  0.00  0.00    +0.020 A 
ATOM     23  C   UNL     1      -6.877 -10.675  16.773  0.00  0.00    +0.020 A 
ATOM     24  C   UNL     1      -6.446 -10.658  18.101  0.00  0.00    +0.041 A 
ENDBRANCH  16  19
ENDBRANCH   6  16
TORSDOF 3
ENDMDL
MODEL 2
REMARK VINA RESULT:       0.2     16.526     17.902
REMARK  Name = 75368660
REMARK  3 active torsions:
REMARK  status: ('A' for Active; 'I' for Inactive)
REMARK    1  A    between atoms: N_5  and  C_9
REMARK    2  A    between atoms: N_6  and  C_16
REMARK    3  A    between atoms: C_16  and  C_19
REMARK                            x       y       z     vdW  Elec       q    Type
REMARK                         _______ _______ _______ _____ _____    ______ ____
ROOT
ATOM      3  O   UNL     1      -2.057   3.791  25.660  0.00  0.00    -0.252 OA
ATOM      4  N   UNL     1      -1.048   1.810  24.900  0.00  0.00    -0.278 N 
ATOM      5  N   UNL     1      -3.278   2.008  24.714  0.00  0.00    -0.280 N 
ATOM      6  N   UNL     1       0.807   0.137  23.608  0.00  0.00    -0.295 NA
ATOM      7  C   UNL     1      -1.488   0.520  24.410  0.00  0.00    +0.109 C 
ATOM      8  C   UNL     1      -2.961   0.744  24.072  0.00  0.00    +0.133 C 
ATOM     10  C   UNL     1      -0.620   0.075  23.233  0.00  0.00    +0.109 C 
ATOM     11  C   UNL     1       0.359   2.027  25.160  0.00  0.00    +0.125 C 
ATOM     12  C   UNL     1      -2.119   2.676  25.159  0.00  0.00    +0.305 C 
ATOM     13  C   UNL     1       1.193   1.513  23.983  0.00  0.00    +0.104 C 
ENDROOT
BRANCH   5   9
ATOM      2  O   UNL     1      -6.844   3.572  26.236  0.00  0.00    -0.380 OA
ATOM      9  C   UNL     1      -4.617   2.542  24.732  0.00  0.00    +0.082 C 
ATOM     14  C   UNL     1      -4.632   3.957  25.312  0.00  0.00    +0.050 C 
ATOM     15  C   UNL     1      -5.563   1.636  25.520  0.00  0.00    +0.050 C 
ATOM     17  C   UNL     1      -6.061   4.467  25.449  0.00  0.00    +0.161 C 
ATOM     18  C   UNL     1      -6.940   2.276  25.645  0.00  0.00    +0.161 C 
ENDBRANCH   5   9
BRANCH   6  16
ATOM     16  C   UNL     1       1.644  -0.345  22.510  0.00  0.00    +0.119 C 
BRANCH  16  19
ATOM      1 CL   UNL     1       7.493  -0.165  23.906  0.00  0.00    -0.084 Cl
ATOM     19  C   UNL     1       3.108  -0.300  22.859  0.00  0.00    -0.033 A 
ATOM     20  C   UNL     1       3.681  -1.338  23.593  0.00  0.00    +0.006 A 
ATOM     21  C   UNL     1       3.890   0.780  22.449  0.00  0.00    +0.006 A 
ATOM     22  C   UNL     1       5.038  -1.295  23.918  0.00  0.00    +0.020 A 
ATOM     23  C   UNL     1       5.245   0.823  22.774  0.00  0.00    +0.020 A 
ATOM     24  C   UNL     1       5.820  -0.216  23.508  0.00  0.00    +0.041 A 
ENDBRANCH  16  19
ENDBRANCH   6  16
TORSDOF 3
ENDMDL
