MODEL 1
REMARK VINA RESULT:      -3.0      0.000      0.000
REMARK  Name = 75536991
REMARK  5 active torsions:
REMARK  status: ('A' for Active; 'I' for Inactive)
REMARK    1  A    between atoms: O_4  and  C_18
REMARK    2  A    between atoms: O_4  and  C_24
REMARK    3  A    between atoms: N_7  and  C_15
REMARK    4  A    between atoms: C_15  and  C_17
REMARK    5  A    between atoms: C_16  and  C_18
REMARK                            x       y       z     vdW  Elec       q    Type
REMARK                         _______ _______ _______ _____ _____    ______ ____
ROOT
ATOM      2  O   UNL     1      -0.483  -2.243  24.152  0.00  0.00    -0.252 OA
ATOM      3  O   UNL     1      -5.014   2.708  26.215  0.00  0.00    -0.263 OA
ATOM      6  N   UNL     1      -1.411  -0.116  24.518  0.00  0.00    -0.278 N 
ATOM      7  N   UNL     1       0.333  -0.291  23.111  0.00  0.00    -0.279 N 
ATOM      8  N   UNL     1      -3.415   1.795  24.756  0.00  0.00    -0.289 N 
ATOM      9  C   UNL     1      -1.096   1.255  24.154  0.00  0.00    +0.112 C 
ATOM     10  C   UNL     1      -0.056   1.107  23.046  0.00  0.00    +0.133 C 
ATOM     11  C   UNL     1      -2.362   2.002  23.746  0.00  0.00    +0.132 C 
ATOM     12  C   UNL     1      -2.487  -0.384  25.455  0.00  0.00    +0.128 C 
ATOM     13  C   UNL     1      -3.737   0.391  25.046  0.00  0.00    +0.127 C 
ATOM     14  C   UNL     1      -0.515  -1.036  23.955  0.00  0.00    +0.306 C 
ATOM     16  C   UNL     1      -4.113   2.809  25.394  0.00  0.00    +0.324 C 
ENDROOT
BRANCH  16  18
ATOM      5  O   UNL     1      -4.259   4.793  24.131  0.00  0.00    -0.240 OA
ATOM     18  C   UNL     1      -3.721   4.193  25.040  0.00  0.00    +0.395 C 
BRANCH  18   4
ATOM      4  O   UNL     1      -2.740   4.578  25.878  0.00  0.00    -0.461 OA
ATOM     24  C   UNL     1      -1.515   4.960  25.245  0.00  0.00    +0.280 C 
ENDBRANCH  18   4
ENDBRANCH  16  18
BRANCH   7  15
ATOM     15  C   UNL     1       1.389  -0.832  22.285  0.00  0.00    +0.144 C 
BRANCH  15  17
ATOM      1  F   UNL     1       6.494   0.550  24.219  0.00  0.00    -0.205 F 
ATOM     17  C   UNL     1       2.750  -0.463  22.801  0.00  0.00    -0.030 A 
ATOM     19  C   UNL     1       3.487  -1.385  23.546  0.00  0.00    +0.008 A 
ATOM     20  C   UNL     1       3.279   0.799  22.534  0.00  0.00    +0.008 A 
ATOM     21  C   UNL     1       4.751  -1.042  24.026  0.00  0.00    +0.038 A 
ATOM     22  C   UNL     1       4.543   1.142  23.013  0.00  0.00    +0.038 A 
ATOM     23  C   UNL     1       5.280   0.221  23.760  0.00  0.00    +0.123 A 
ENDBRANCH  15  17
ENDBRANCH   7  15
TORSDOF 4
ENDMDL
MODEL 2
REMARK VINA RESULT:      -0.3      1.634      2.518
REMARK  Name = 75536991
REMARK  5 active torsions:
REMARK  status: ('A' for Active; 'I' for Inactive)
REMARK    1  A    between atoms: O_4  and  C_18
REMARK    2  A    between atoms: O_4  and  C_24
REMARK    3  A    between atoms: N_7  and  C_15
REMARK    4  A    between atoms: C_15  and  C_17
REMARK    5  A    between atoms: C_16  and  C_18
REMARK                            x       y       z     vdW  Elec       q    Type
REMARK                         _______ _______ _______ _____ _____    ______ ____
ROOT
ATOM      2  O   UNL     1       2.035   1.930  23.836  0.00  0.00    -0.252 OA
ATOM      3  O   UNL     1      -3.934   4.644  26.348  0.00  0.00    -0.263 OA
ATOM      6  N   UNL     1      -0.265   2.254  24.187  0.00  0.00    -0.278 N 
ATOM      7  N   UNL     1       0.402   0.366  23.167  0.00  0.00    -0.279 N 
ATOM      8  N   UNL     1      -2.575   2.878  25.602  0.00  0.00    -0.289 N 
ATOM      9  C   UNL     1      -1.499   1.584  23.812  0.00  0.00    +0.112 C 
ATOM     10  C   UNL     1      -1.035   0.218  23.313  0.00  0.00    +0.133 C 
ATOM     11  C   UNL     1      -2.463   1.540  24.995  0.00  0.00    +0.132 C 
ATOM     12  C   UNL     1      -0.318   3.543  24.852  0.00  0.00    +0.128 C 
ATOM     13  C   UNL     1      -1.304   3.487  26.016  0.00  0.00    +0.127 C 
ATOM     14  C   UNL     1       0.871   1.565  23.740  0.00  0.00    +0.306 C 
ATOM     16  C   UNL     1      -3.767   3.550  25.825  0.00  0.00    +0.324 C 
ENDROOT
BRANCH  16  18
ATOM      5  O   UNL     1      -5.129   2.480  24.226  0.00  0.00    -0.240 OA
ATOM     18  C   UNL     1      -4.998   2.861  25.373  0.00  0.00    +0.395 C 
BRANCH  18   4
ATOM      4  O   UNL     1      -5.836   2.767  26.422  0.00  0.00    -0.461 OA
ATOM     24  C   UNL     1      -6.514   1.514  26.550  0.00  0.00    +0.280 C 
ENDBRANCH  18   4
ENDBRANCH  16  18
BRANCH   7  15
ATOM     15  C   UNL     1       1.228  -0.684  22.612  0.00  0.00    +0.144 C 
BRANCH  15  17
ATOM      1  F   UNL     1       6.698   0.177  23.630  0.00  0.00    -0.205 F 
ATOM     17  C   UNL     1       2.687  -0.454  22.884  0.00  0.00    -0.030 A 
ATOM     19  C   UNL     1       3.379  -1.308  23.743  0.00  0.00    +0.008 A 
ATOM     20  C   UNL     1       3.350   0.612  22.276  0.00  0.00    +0.008 A 
ATOM     21  C   UNL     1       4.734  -1.095  23.995  0.00  0.00    +0.038 A 
ATOM     22  C   UNL     1       4.705   0.826  22.529  0.00  0.00    +0.038 A 
ATOM     23  C   UNL     1       5.398  -0.028  23.389  0.00  0.00    +0.123 A 
ENDBRANCH  15  17
ENDBRANCH   7  15
TORSDOF 4
ENDMDL
MODEL 3
REMARK VINA RESULT:       0.7      3.873      7.427
REMARK  Name = 75536991
REMARK  5 active torsions:
REMARK  status: ('A' for Active; 'I' for Inactive)
REMARK    1  A    between atoms: O_4  and  C_18
REMARK    2  A    between atoms: O_4  and  C_24
REMARK    3  A    between atoms: N_7  and  C_15
REMARK    4  A    between atoms: C_15  and  C_17
REMARK    5  A    between atoms: C_16  and  C_18
REMARK                            x       y       z     vdW  Elec       q    Type
REMARK                         _______ _______ _______ _____ _____    ______ ____
ROOT
ATOM      2  O   UNL     1      -3.533  -2.468  25.615  0.00  0.00    -0.252 OA
ATOM      3  O   UNL     1       3.196  -1.678  23.772  0.00  0.00    -0.263 OA
ATOM      6  N   UNL     1      -1.637  -1.693  24.465  0.00  0.00    -0.278 N 
ATOM      7  N   UNL     1      -3.576  -0.591  24.190  0.00  0.00    -0.279 N 
ATOM      8  N   UNL     1       1.006  -0.904  24.128  0.00  0.00    -0.289 N 
ATOM      9  C   UNL     1      -1.346  -0.687  23.457  0.00  0.00    +0.112 C 
ATOM     10  C   UNL     1      -2.603   0.180  23.435  0.00  0.00    +0.133 C 
ATOM     11  C   UNL     1      -0.061   0.059  23.804  0.00  0.00    +0.132 C 
ATOM     12  C   UNL     1      -0.601  -2.623  24.875  0.00  0.00    +0.128 C 
ATOM     13  C   UNL     1       0.684  -1.862  25.193  0.00  0.00    +0.127 C 
ATOM     14  C   UNL     1      -2.985  -1.686  24.851  0.00  0.00    +0.306 C 
ATOM     16  C   UNL     1       2.258  -0.930  23.532  0.00  0.00    +0.324 C 
ENDROOT
BRANCH  16  18
ATOM      5  O   UNL     1       2.072  -0.088  21.338  0.00  0.00    -0.240 OA
ATOM     18  C   UNL     1       2.494   0.072  22.467  0.00  0.00    +0.395 C 
BRANCH  18   4
ATOM      4  O   UNL     1       3.204   1.087  22.995  0.00  0.00    -0.461 OA
ATOM     24  C   UNL     1       4.622   0.901  22.997  0.00  0.00    +0.280 C 
ENDBRANCH  18   4
ENDBRANCH  16  18
BRANCH   7  15
ATOM     15  C   UNL     1      -4.952  -0.166  24.323  0.00  0.00    +0.144 C 
BRANCH  15  17
ATOM      1  F   UNL     1      -5.347   5.237  25.861  0.00  0.00    -0.205 F 
ATOM     17  C   UNL     1      -5.058   1.275  24.734  0.00  0.00    -0.030 A 
ATOM     19  C   UNL     1      -4.235   2.231  24.138  0.00  0.00    +0.008 A 
ATOM     20  C   UNL     1      -5.979   1.657  25.709  0.00  0.00    +0.008 A 
ATOM     21  C   UNL     1      -4.333   3.569  24.519  0.00  0.00    +0.038 A 
ATOM     22  C   UNL     1      -6.076   2.995  26.090  0.00  0.00    +0.038 A 
ATOM     23  C   UNL     1      -5.253   3.952  25.495  0.00  0.00    +0.123 A 
ENDBRANCH  15  17
ENDBRANCH   7  15
TORSDOF 4
ENDMDL
