MODEL 1
REMARK VINA RESULT:      -3.8      0.000      0.000
REMARK  Name = 26744403
REMARK  4 active torsions:
REMARK  status: ('A' for Active; 'I' for Inactive)
REMARK    1  A    between atoms: O_3  and  C_12
REMARK    2  A    between atoms: N_5  and  C_8
REMARK    3  A    between atoms: C_9  and  C_15
REMARK    4  A    between atoms: C_18  and  C_19
REMARK                            x       y       z     vdW  Elec       q    Type
REMARK                         _______ _______ _______ _____ _____    ______ ____
ROOT
ATOM      5  N   UNL     1      -4.214   1.099  25.576  0.00  0.00    -0.286 NA
ATOM      9  C   UNL     1      -3.639   1.834  24.431  0.00  0.00    +0.149 C 
ATOM     10  C   UNL     1      -5.494   1.737  25.877  0.00  0.00    +0.116 C 
ATOM     11  C   UNL     1      -4.222   3.255  24.543  0.00  0.00    +0.061 C 
ATOM     12  C   UNL     1      -5.147   3.208  25.752  0.00  0.00    +0.130 C 
ENDROOT
BRANCH   5   8
ATOM      2  O   UNL     1      -3.279  -2.766  24.229  0.00  0.00    -0.380 OA
ATOM      8  C   UNL     1      -4.358  -0.334  25.327  0.00  0.00    +0.062 C 
ATOM     13  C   UNL     1      -3.249  -1.128  26.024  0.00  0.00    +0.047 C 
ATOM     14  C   UNL     1      -4.340  -0.617  23.823  0.00  0.00    +0.047 C 
ATOM     16  C   UNL     1      -3.336  -2.602  25.646  0.00  0.00    +0.161 C 
ATOM     17  C   UNL     1      -4.367  -2.121  23.567  0.00  0.00    +0.161 C 
ENDBRANCH   5   8
BRANCH   9  15
ATOM      4  O   UNL     1      -1.512   2.503  25.429  0.00  0.00    -0.336 OA
ATOM      6  N   UNL     1      -1.301   1.239  23.593  0.00  0.00    -0.190 NA
ATOM      7  N   UNL     1      -0.136   2.348  25.219  0.00  0.00    -0.056 NA
ATOM     15  C   UNL     1      -2.125   1.820  24.429  0.00  0.00    +0.245 A 
ATOM     18  C   UNL     1      -0.093   1.592  24.119  0.00  0.00    +0.202 A 
BRANCH  18  19
ATOM      1  F   UNL     1       4.691  -0.048  21.800  0.00  0.00    -0.205 F 
ATOM     19  C   UNL     1       1.140   1.169  23.520  0.00  0.00    +0.023 A 
ATOM     20  C   UNL     1       2.250   2.014  23.540  0.00  0.00    +0.014 A 
ATOM     21  C   UNL     1       1.230  -0.088  22.921  0.00  0.00    +0.014 A 
ATOM     22  C   UNL     1       3.450   1.603  22.958  0.00  0.00    +0.039 A 
ATOM     23  C   UNL     1       2.430  -0.498  22.340  0.00  0.00    +0.039 A 
ATOM     24  C   UNL     1       3.540   0.348  22.358  0.00  0.00    +0.123 A 
ENDBRANCH  18  19
ENDBRANCH   9  15
BRANCH  12   3
ATOM      3  O   UNL     1      -6.296   4.003  25.537  0.00  0.00    -0.390 OA
ATOM     25  H   UNL     1      -6.225   4.385  24.645  0.00  0.00    +0.210 HD
ENDBRANCH  12   3
TORSDOF 4
ENDMDL
MODEL 2
REMARK VINA RESULT:      -3.7      1.555      3.795
REMARK  Name = 26744403
REMARK  4 active torsions:
REMARK  status: ('A' for Active; 'I' for Inactive)
REMARK    1  A    between atoms: O_3  and  C_12
REMARK    2  A    between atoms: N_5  and  C_8
REMARK    3  A    between atoms: C_9  and  C_15
REMARK    4  A    between atoms: C_18  and  C_19
REMARK                            x       y       z     vdW  Elec       q    Type
REMARK                         _______ _______ _______ _____ _____    ______ ____
ROOT
ATOM      5  N   UNL     1      -3.313  -0.008  24.154  0.00  0.00    -0.286 NA
ATOM      9  C   UNL     1      -2.138  -0.687  24.739  0.00  0.00    +0.149 C 
ATOM     10  C   UNL     1      -4.407  -0.976  24.181  0.00  0.00    +0.116 C 
ATOM     11  C   UNL     1      -2.364  -2.182  24.450  0.00  0.00    +0.061 C 
ATOM     12  C   UNL     1      -3.710  -2.248  23.740  0.00  0.00    +0.130 C 
ENDROOT
BRANCH   5   8
ATOM      2  O   UNL     1      -5.276   3.614  24.959  0.00  0.00    -0.380 OA
ATOM      8  C   UNL     1      -3.660   1.235  24.838  0.00  0.00    +0.062 C 
ATOM     13  C   UNL     1      -5.117   1.215  25.311  0.00  0.00    +0.047 C 
ATOM     14  C   UNL     1      -3.425   2.434  23.916  0.00  0.00    +0.047 C 
ATOM     16  C   UNL     1      -5.501   2.566  25.903  0.00  0.00    +0.161 C 
ATOM     17  C   UNL     1      -3.902   3.719  24.586  0.00  0.00    +0.161 C 
ENDBRANCH   5   8
BRANCH   9  15
ATOM      4  O   UNL     1      -0.885   0.984  23.472  0.00  0.00    -0.336 OA
ATOM      6  N   UNL     1       0.373  -0.684  24.278  0.00  0.00    -0.190 NA
ATOM      7  N   UNL     1       0.428   1.253  23.064  0.00  0.00    -0.056 NA
ATOM     15  C   UNL     1      -0.829  -0.173  24.181  0.00  0.00    +0.245 A 
ATOM     18  C   UNL     1       1.109   0.225  23.577  0.00  0.00    +0.202 A 
BRANCH  18  19
ATOM      1  F   UNL     1       6.606  -0.344  22.932  0.00  0.00    -0.205 F 
ATOM     19  C   UNL     1       2.526   0.078  23.411  0.00  0.00    +0.023 A 
ATOM     20  C   UNL     1       3.278   1.124  22.875  0.00  0.00    +0.014 A 
ATOM     21  C   UNL     1       3.154  -1.110  23.786  0.00  0.00    +0.014 A 
ATOM     22  C   UNL     1       4.656   0.982  22.713  0.00  0.00    +0.039 A 
ATOM     23  C   UNL     1       4.532  -1.252  23.624  0.00  0.00    +0.039 A 
ATOM     24  C   UNL     1       5.283  -0.206  23.087  0.00  0.00    +0.123 A 
ENDBRANCH  18  19
ENDBRANCH   9  15
BRANCH  12   3
ATOM      3  O   UNL     1      -4.427  -3.403  24.130  0.00  0.00    -0.390 OA
ATOM     25  H   UNL     1      -4.085  -3.681  24.998  0.00  0.00    +0.210 HD
ENDBRANCH  12   3
TORSDOF 4
ENDMDL
MODEL 3
REMARK VINA RESULT:      -3.2      1.937      2.573
REMARK  Name = 26744403
REMARK  4 active torsions:
REMARK  status: ('A' for Active; 'I' for Inactive)
REMARK    1  A    between atoms: O_3  and  C_12
REMARK    2  A    between atoms: N_5  and  C_8
REMARK    3  A    between atoms: C_9  and  C_15
REMARK    4  A    between atoms: C_18  and  C_19
REMARK                            x       y       z     vdW  Elec       q    Type
REMARK                         _______ _______ _______ _____ _____    ______ ____
ROOT
ATOM      5  N   UNL     1      -1.984   1.712  25.312  0.00  0.00    -0.286 NA
ATOM      9  C   UNL     1      -1.468   2.038  23.966  0.00  0.00    +0.149 C 
ATOM     10  C   UNL     1      -2.582   2.938  25.835  0.00  0.00    +0.116 C 
ATOM     11  C   UNL     1      -1.152   3.545  24.022  0.00  0.00    +0.061 C 
ATOM     12  C   UNL     1      -1.566   3.984  25.421  0.00  0.00    +0.130 C 
ENDROOT
BRANCH   5   8
ATOM      2  O   UNL     1      -3.729  -1.953  24.240  0.00  0.00    -0.380 OA
ATOM      8  C   UNL     1      -2.926   0.595  25.311  0.00  0.00    +0.062 C 
ATOM     13  C   UNL     1      -2.229  -0.714  25.696  0.00  0.00    +0.047 C 
ATOM     14  C   UNL     1      -3.584   0.454  23.937  0.00  0.00    +0.047 C 
ATOM     16  C   UNL     1      -3.193  -1.887  25.562  0.00  0.00    +0.161 C 
ATOM     17  C   UNL     1      -4.474  -0.785  23.900  0.00  0.00    +0.161 C 
ENDBRANCH   5   8
BRANCH   9  15
ATOM      4  O   UNL     1      -0.512   0.097  22.831  0.00  0.00    -0.336 OA
ATOM      6  N   UNL     1       0.998   1.383  23.871  0.00  0.00    -0.190 NA
ATOM      7  N   UNL     1       0.733  -0.505  22.607  0.00  0.00    -0.056 NA
ATOM     15  C   UNL     1      -0.267   1.202  23.583  0.00  0.00    +0.245 A 
ATOM     18  C   UNL     1       1.571   0.311  23.252  0.00  0.00    +0.202 A 
BRANCH  18  19
ATOM      1  F   UNL     1       7.063  -0.563  23.417  0.00  0.00    -0.205 F 
ATOM     19  C   UNL     1       2.987   0.086  23.294  0.00  0.00    +0.023 A 
ATOM     20  C   UNL     1       3.866   1.098  22.909  0.00  0.00    +0.014 A 
ATOM     21  C   UNL     1       3.485  -1.146  23.722  0.00  0.00    +0.014 A 
ATOM     22  C   UNL     1       5.244   0.879  22.950  0.00  0.00    +0.039 A 
ATOM     23  C   UNL     1       4.861  -1.364  23.763  0.00  0.00    +0.039 A 
ATOM     24  C   UNL     1       5.741  -0.352  23.377  0.00  0.00    +0.123 A 
ENDBRANCH  18  19
ENDBRANCH   9  15
BRANCH  12   3
ATOM      3  O   UNL     1      -2.127   5.281  25.394  0.00  0.00    -0.390 OA
ATOM     25  H   UNL     1      -2.116   5.624  26.305  0.00  0.00    +0.210 HD
ENDBRANCH  12   3
TORSDOF 4
ENDMDL
MODEL 4
REMARK VINA RESULT:      -0.3      2.022      4.007
REMARK  Name = 26744403
REMARK  4 active torsions:
REMARK  status: ('A' for Active; 'I' for Inactive)
REMARK    1  A    between atoms: O_3  and  C_12
REMARK    2  A    between atoms: N_5  and  C_8
REMARK    3  A    between atoms: C_9  and  C_15
REMARK    4  A    between atoms: C_18  and  C_19
REMARK                            x       y       z     vdW  Elec       q    Type
REMARK                         _______ _______ _______ _____ _____    ______ ____
ROOT
ATOM      5  N   UNL     1      -2.985   2.050  23.982  0.00  0.00    -0.286 NA
ATOM      9  C   UNL     1      -2.377   1.143  24.977  0.00  0.00    +0.149 C 
ATOM     10  C   UNL     1      -4.418   2.079  24.268  0.00  0.00    +0.116 C 
ATOM     11  C   UNL     1      -3.500   0.157  25.349  0.00  0.00    +0.061 C 
ATOM     12  C   UNL     1      -4.711   0.618  24.547  0.00  0.00    +0.130 C 
ENDROOT
BRANCH   5   8
ATOM      2  O   UNL     1      -0.530   5.255  25.130  0.00  0.00    -0.380 OA
ATOM      8  C   UNL     1      -2.396   3.386  23.984  0.00  0.00    +0.062 C 
ATOM     13  C   UNL     1      -0.892   3.325  23.699  0.00  0.00    +0.047 C 
ATOM     14  C   UNL     1      -2.646   4.077  25.328  0.00  0.00    +0.047 C 
ATOM     16  C   UNL     1      -0.269   4.710  23.836  0.00  0.00    +0.161 C 
ATOM     17  C   UNL     1      -1.926   5.421  25.375  0.00  0.00    +0.161 C 
ENDBRANCH   5   8
BRANCH   9  15
ATOM      4  O   UNL     1      -1.300  -0.820  24.000  0.00  0.00    -0.336 OA
ATOM      6  N   UNL     1       0.091   0.894  24.375  0.00  0.00    -0.190 NA
ATOM      7  N   UNL     1      -0.034  -1.245  23.576  0.00  0.00    -0.056 NA
ATOM     15  C   UNL     1      -1.138   0.449  24.455  0.00  0.00    +0.245 A 
ATOM     18  C   UNL     1       0.731  -0.180  23.830  0.00  0.00    +0.202 A 
BRANCH  18  19
ATOM      1  F   UNL     1       6.187  -0.088  22.743  0.00  0.00    -0.205 F 
ATOM     19  C   UNL     1       2.138  -0.156  23.549  0.00  0.00    +0.023 A 
ATOM     20  C   UNL     1       2.712   0.968  22.957  0.00  0.00    +0.014 A 
ATOM     21  C   UNL     1       2.932  -1.258  23.870  0.00  0.00    +0.014 A 
ATOM     22  C   UNL     1       4.080   0.992  22.684  0.00  0.00    +0.039 A 
ATOM     23  C   UNL     1       4.299  -1.234  23.597  0.00  0.00    +0.039 A 
ATOM     24  C   UNL     1       4.873  -0.109  23.004  0.00  0.00    +0.123 A 
ENDBRANCH  18  19
ENDBRANCH   9  15
BRANCH  12   3
ATOM      3  O   UNL     1      -5.900   0.452  25.294  0.00  0.00    -0.390 OA
ATOM     25  H   UNL     1      -5.774  -0.313  25.880  0.00  0.00    +0.210 HD
ENDBRANCH  12   3
TORSDOF 4
ENDMDL
