MODEL 1
REMARK VINA RESULT:      -4.6      0.000      0.000
REMARK  Name = 51136998
REMARK  4 active torsions:
REMARK  status: ('A' for Active; 'I' for Inactive)
REMARK    1  A    between atoms: O_3  and  C_12
REMARK    2  A    between atoms: O_3  and  C_19
REMARK    3  A    between atoms: C_6  and  C_10
REMARK    4  A    between atoms: C_11  and  C_12
REMARK                            x       y       z     vdW  Elec       q    Type
REMARK                         _______ _______ _______ _____ _____    ______ ____
ROOT
ATOM      2  O   UNL     1      -2.679   4.668  26.879  0.00  0.00    -0.272 OA
ATOM      4  N   UNL     1      -1.289   3.609  25.368  0.00  0.00    -0.298 N 
ATOM      6  C   UNL     1       0.106   1.688  25.507  0.00  0.00    +0.063 C 
ATOM      7  C   UNL     1       0.442   2.476  24.232  0.00  0.00    +0.031 C 
ATOM      8  C   UNL     1      -0.642   2.737  26.340  0.00  0.00    +0.118 C 
ATOM      9  C   UNL     1      -0.767   3.379  24.024  0.00  0.00    +0.108 C 
ATOM     11  C   UNL     1      -2.274   4.512  25.726  0.00  0.00    +0.253 C 
ENDROOT
BRANCH   6  10
ATOM      1  S   UNL     1       0.031  -0.706  24.083  0.00  0.00    -0.072 S 
ATOM      5  N   UNL     1      -1.809   0.083  25.711  0.00  0.00    -0.244 NA
ATOM     10  C   UNL     1      -0.648   0.409  25.190  0.00  0.00    +0.084 A 
ATOM     13  C   UNL     1      -1.335  -1.736  24.298  0.00  0.00    +0.039 A 
ATOM     14  C   UNL     1      -2.216  -1.145  25.209  0.00  0.00    +0.078 A 
ATOM     15  C   UNL     1      -1.608  -2.979  23.703  0.00  0.00    +0.017 A 
ATOM     16  C   UNL     1      -3.410  -1.823  25.535  0.00  0.00    +0.029 A 
ATOM     17  C   UNL     1      -2.797  -3.629  24.043  0.00  0.00    +0.001 A 
ATOM     18  C   UNL     1      -3.688  -3.060  24.947  0.00  0.00    +0.002 A 
ENDBRANCH   6  10
BRANCH  11  12
ATOM     12  C   UNL     1      -2.844   5.333  24.598  0.00  0.00    +0.324 C 
BRANCH  12   3
ATOM      3  O   UNL     1      -3.550   4.443  23.769  0.00  0.00    -0.483 OA
BRANCH   3  19
ATOM     19  C   UNL     1      -4.331   3.490  24.384  0.00  0.00    +0.121 A 
ATOM     20  C   UNL     1      -4.175   2.142  24.056  0.00  0.00    +0.045 A 
ATOM     21  C   UNL     1      -5.277   3.871  25.336  0.00  0.00    +0.045 A 
ATOM     22  C   UNL     1      -4.966   1.177  24.679  0.00  0.00    +0.004 A 
ATOM     23  C   UNL     1      -6.068   2.905  25.958  0.00  0.00    +0.004 A 
ATOM     24  C   UNL     1      -5.913   1.559  25.630  0.00  0.00    +0.000 A 
ENDBRANCH   3  19
ENDBRANCH  12   3
ENDBRANCH  11  12
TORSDOF 4
ENDMDL
MODEL 2
REMARK VINA RESULT:      -4.3     19.216     20.659
REMARK  Name = 51136998
REMARK  4 active torsions:
REMARK  status: ('A' for Active; 'I' for Inactive)
REMARK    1  A    between atoms: O_3  and  C_12
REMARK    2  A    between atoms: O_3  and  C_19
REMARK    3  A    between atoms: C_6  and  C_10
REMARK    4  A    between atoms: C_11  and  C_12
REMARK                            x       y       z     vdW  Elec       q    Type
REMARK                         _______ _______ _______ _____ _____    ______ ____
ROOT
ATOM      2  O   UNL     1      11.403  -7.472  31.450  0.00  0.00    -0.272 OA
ATOM      4  N   UNL     1      13.484  -8.475  31.437  0.00  0.00    -0.298 N 
ATOM      6  C   UNL     1      14.479 -10.143  30.065  0.00  0.00    +0.063 C 
ATOM      7  C   UNL     1      15.341  -9.928  31.319  0.00  0.00    +0.031 C 
ATOM      8  C   UNL     1      13.139  -9.529  30.491  0.00  0.00    +0.118 C 
ATOM      9  C   UNL     1      14.877  -8.582  31.861  0.00  0.00    +0.108 C 
ATOM     11  C   UNL     1      12.572  -7.516  31.839  0.00  0.00    +0.253 C 
ENDROOT
BRANCH   6  10
ATOM      1  S   UNL     1      15.840 -10.603  27.678  0.00  0.00    -0.072 S 
ATOM      5  N   UNL     1      15.205  -8.267  28.569  0.00  0.00    -0.244 NA
ATOM     10  C   UNL     1      15.134  -9.552  28.829  0.00  0.00    +0.084 A 
ATOM     13  C   UNL     1      16.293  -9.238  26.725  0.00  0.00    +0.039 A 
ATOM     14  C   UNL     1      15.866  -8.071  27.366  0.00  0.00    +0.078 A 
ATOM     15  C   UNL     1      16.977  -9.203  25.499  0.00  0.00    +0.017 A 
ATOM     16  C   UNL     1      16.133  -6.827  26.756  0.00  0.00    +0.029 A 
ATOM     17  C   UNL     1      17.228  -7.958  24.917  0.00  0.00    +0.001 A 
ATOM     18  C   UNL     1      16.813  -6.785  25.535  0.00  0.00    +0.002 A 
ENDBRANCH   6  10
BRANCH  11  12
ATOM     12  C   UNL     1      13.092  -6.494  32.816  0.00  0.00    +0.324 C 
BRANCH  12   3
ATOM      3  O   UNL     1      13.036  -5.248  32.163  0.00  0.00    -0.483 OA
BRANCH   3  19
ATOM     19  C   UNL     1      14.220  -4.728  31.692  0.00  0.00    +0.121 A 
ATOM     20  C   UNL     1      14.819  -3.651  32.350  0.00  0.00    +0.045 A 
ATOM     21  C   UNL     1      14.822  -5.275  30.560  0.00  0.00    +0.045 A 
ATOM     22  C   UNL     1      16.019  -3.124  31.873  0.00  0.00    +0.004 A 
ATOM     23  C   UNL     1      16.022  -4.747  30.083  0.00  0.00    +0.004 A 
ATOM     24  C   UNL     1      16.620  -3.671  30.739  0.00  0.00    +0.000 A 
ENDBRANCH   3  19
ENDBRANCH  12   3
ENDBRANCH  11  12
TORSDOF 4
ENDMDL
MODEL 3
REMARK VINA RESULT:      -4.2     17.156     19.439
REMARK  Name = 51136998
REMARK  4 active torsions:
REMARK  status: ('A' for Active; 'I' for Inactive)
REMARK    1  A    between atoms: O_3  and  C_12
REMARK    2  A    between atoms: O_3  and  C_19
REMARK    3  A    between atoms: C_6  and  C_10
REMARK    4  A    between atoms: C_11  and  C_12
REMARK                            x       y       z     vdW  Elec       q    Type
REMARK                         _______ _______ _______ _____ _____    ______ ____
ROOT
ATOM      2  O   UNL     1      11.174  -7.259  30.383  0.00  0.00    -0.272 OA
ATOM      4  N   UNL     1      13.128  -7.519  31.587  0.00  0.00    -0.298 N 
ATOM      6  C   UNL     1      15.424  -7.202  31.055  0.00  0.00    +0.063 C 
ATOM      7  C   UNL     1      15.305  -7.978  32.375  0.00  0.00    +0.031 C 
ATOM      8  C   UNL     1      14.028  -7.393  30.447  0.00  0.00    +0.118 C 
ATOM      9  C   UNL     1      13.872  -7.725  32.826  0.00  0.00    +0.108 C 
ATOM     11  C   UNL     1      11.754  -7.434  31.456  0.00  0.00    +0.253 C 
ENDROOT
BRANCH   6  10
ATOM      1  S   UNL     1      16.687  -5.378  32.740  0.00  0.00    -0.072 S 
ATOM      5  N   UNL     1      15.682  -4.786  30.439  0.00  0.00    -0.244 NA
ATOM     10  C   UNL     1      15.874  -5.771  31.286  0.00  0.00    +0.084 A 
ATOM     13  C   UNL     1      16.808  -3.739  32.217  0.00  0.00    +0.039 A 
ATOM     14  C   UNL     1      16.213  -3.614  30.958  0.00  0.00    +0.078 A 
ATOM     15  C   UNL     1      17.390  -2.642  32.873  0.00  0.00    +0.017 A 
ATOM     16  C   UNL     1      16.200  -2.347  30.336  0.00  0.00    +0.029 A 
ATOM     17  C   UNL     1      17.363  -1.399  32.236  0.00  0.00    +0.001 A 
ATOM     18  C   UNL     1      16.777  -1.251  30.984  0.00  0.00    +0.002 A 
ENDBRANCH   6  10
BRANCH  11  12
ATOM     12  C   UNL     1      10.968  -7.578  32.734  0.00  0.00    +0.324 C 
BRANCH  12   3
ATOM      3  O   UNL     1      10.163  -8.723  32.585  0.00  0.00    -0.483 OA
BRANCH   3  19
ATOM     19  C   UNL     1       8.823  -8.526  32.337  0.00  0.00    +0.121 A 
ATOM     20  C   UNL     1       8.171  -7.414  32.873  0.00  0.00    +0.045 A 
ATOM     21  C   UNL     1       8.118  -9.437  31.552  0.00  0.00    +0.045 A 
ATOM     22  C   UNL     1       6.814  -7.215  32.623  0.00  0.00    +0.004 A 
ATOM     23  C   UNL     1       6.760  -9.237  31.302  0.00  0.00    +0.004 A 
ATOM     24  C   UNL     1       6.108  -8.126  31.838  0.00  0.00    +0.000 A 
ENDBRANCH   3  19
ENDBRANCH  12   3
ENDBRANCH  11  12
TORSDOF 4
ENDMDL
MODEL 4
REMARK VINA RESULT:      -3.6     19.163     21.230
REMARK  Name = 51136998
REMARK  4 active torsions:
REMARK  status: ('A' for Active; 'I' for Inactive)
REMARK    1  A    between atoms: O_3  and  C_12
REMARK    2  A    between atoms: O_3  and  C_19
REMARK    3  A    between atoms: C_6  and  C_10
REMARK    4  A    between atoms: C_11  and  C_12
REMARK                            x       y       z     vdW  Elec       q    Type
REMARK                         _______ _______ _______ _____ _____    ______ ____
ROOT
ATOM      2  O   UNL     1      12.587  -9.922  30.275  0.00  0.00    -0.272 OA
ATOM      4  N   UNL     1      14.875  -9.973  29.962  0.00  0.00    -0.298 N 
ATOM      6  C   UNL     1      16.250 -10.322  28.053  0.00  0.00    +0.063 C 
ATOM      7  C   UNL     1      17.104 -10.419  29.327  0.00  0.00    +0.031 C 
ATOM      8  C   UNL     1      14.831 -10.510  28.607  0.00  0.00    +0.118 C 
ATOM      9  C   UNL     1      16.250  -9.752  30.397  0.00  0.00    +0.108 C 
ATOM     11  C   UNL     1      13.728  -9.715  30.691  0.00  0.00    +0.253 C 
ENDROOT
BRANCH   6  10
ATOM      1  S   UNL     1      16.543  -9.062  25.586  0.00  0.00    -0.072 S 
ATOM      5  N   UNL     1      16.739  -7.872  27.866  0.00  0.00    -0.244 NA
ATOM     10  C   UNL     1      16.518  -9.034  27.297  0.00  0.00    +0.084 A 
ATOM     13  C   UNL     1      16.880  -7.370  25.574  0.00  0.00    +0.039 A 
ATOM     14  C   UNL     1      16.948  -6.907  26.891  0.00  0.00    +0.078 A 
ATOM     15  C   UNL     1      17.069  -6.515  24.476  0.00  0.00    +0.017 A 
ATOM     16  C   UNL     1      17.215  -5.540  27.116  0.00  0.00    +0.029 A 
ATOM     17  C   UNL     1      17.333  -5.165  24.727  0.00  0.00    +0.001 A 
ATOM     18  C   UNL     1      17.405  -4.683  26.029  0.00  0.00    +0.002 A 
ENDBRANCH   6  10
BRANCH  11  12
ATOM     12  C   UNL     1      13.949  -9.155  32.073  0.00  0.00    +0.324 C 
BRANCH  12   3
ATOM      3  O   UNL     1      13.087  -8.050  32.201  0.00  0.00    -0.483 OA
BRANCH   3  19
ATOM     19  C   UNL     1      13.661  -6.799  32.221  0.00  0.00    +0.121 A 
ATOM     20  C   UNL     1      15.030  -6.663  32.461  0.00  0.00    +0.045 A 
ATOM     21  C   UNL     1      12.877  -5.667  32.002  0.00  0.00    +0.045 A 
ATOM     22  C   UNL     1      15.612  -5.396  32.482  0.00  0.00    +0.004 A 
ATOM     23  C   UNL     1      13.459  -4.400  32.023  0.00  0.00    +0.004 A 
ATOM     24  C   UNL     1      14.827  -4.264  32.264  0.00  0.00    +0.000 A 
ENDBRANCH   3  19
ENDBRANCH  12   3
ENDBRANCH  11  12
TORSDOF 4
ENDMDL
MODEL 5
REMARK VINA RESULT:      -3.5     17.838     20.121
REMARK  Name = 51136998
REMARK  4 active torsions:
REMARK  status: ('A' for Active; 'I' for Inactive)
REMARK    1  A    between atoms: O_3  and  C_12
REMARK    2  A    between atoms: O_3  and  C_19
REMARK    3  A    between atoms: C_6  and  C_10
REMARK    4  A    between atoms: C_11  and  C_12
REMARK                            x       y       z     vdW  Elec       q    Type
REMARK                         _______ _______ _______ _____ _____    ______ ____
ROOT
ATOM      2  O   UNL     1      12.123  -9.394  30.341  0.00  0.00    -0.272 OA
ATOM      4  N   UNL     1      13.944  -8.788  31.627  0.00  0.00    -0.298 N 
ATOM      6  C   UNL     1      16.207  -8.277  31.105  0.00  0.00    +0.063 C 
ATOM      7  C   UNL     1      16.063  -8.483  32.621  0.00  0.00    +0.031 C 
ATOM      8  C   UNL     1      14.936  -8.950  30.571  0.00  0.00    +0.118 C 
ATOM      9  C   UNL     1      14.566  -8.350  32.872  0.00  0.00    +0.108 C 
ATOM     11  C   UNL     1      12.597  -9.023  31.416  0.00  0.00    +0.253 C 
ENDROOT
BRANCH   6  10
ATOM      1  S   UNL     1      17.168  -6.400  29.284  0.00  0.00    -0.072 S 
ATOM      5  N   UNL     1      16.009  -5.812  31.512  0.00  0.00    -0.244 NA
ATOM     10  C   UNL     1      16.398  -6.812  30.755  0.00  0.00    +0.084 A 
ATOM     13  C   UNL     1      16.980  -4.729  29.665  0.00  0.00    +0.039 A 
ATOM     14  C   UNL     1      16.336  -4.611  30.900  0.00  0.00    +0.078 A 
ATOM     15  C   UNL     1      17.374  -3.603  28.924  0.00  0.00    +0.017 A 
ATOM     16  C   UNL     1      16.077  -3.320  31.409  0.00  0.00    +0.029 A 
ATOM     17  C   UNL     1      17.106  -2.337  29.451  0.00  0.00    +0.001 A 
ATOM     18  C   UNL     1      16.467  -2.195  30.677  0.00  0.00    +0.002 A 
ENDBRANCH   6  10
BRANCH  11  12
ATOM     12  C   UNL     1      11.705  -8.802  32.610  0.00  0.00    +0.324 C 
BRANCH  12   3
ATOM      3  O   UNL     1      10.850  -9.917  32.686  0.00  0.00    -0.483 OA
BRANCH   3  19
ATOM     19  C   UNL     1       9.562  -9.760  32.225  0.00  0.00    +0.121 A 
ATOM     20  C   UNL     1       9.002 -10.718  31.379  0.00  0.00    +0.045 A 
ATOM     21  C   UNL     1       8.817  -8.643  32.603  0.00  0.00    +0.045 A 
ATOM     22  C   UNL     1       7.698 -10.559  30.912  0.00  0.00    +0.004 A 
ATOM     23  C   UNL     1       7.512  -8.484  32.136  0.00  0.00    +0.004 A 
ATOM     24  C   UNL     1       6.953  -9.442  31.290  0.00  0.00    +0.000 A 
ENDBRANCH   3  19
ENDBRANCH  12   3
ENDBRANCH  11  12
TORSDOF 4
ENDMDL
MODEL 6
REMARK VINA RESULT:      -3.5     19.748     20.855
REMARK  Name = 51136998
REMARK  4 active torsions:
REMARK  status: ('A' for Active; 'I' for Inactive)
REMARK    1  A    between atoms: O_3  and  C_12
REMARK    2  A    between atoms: O_3  and  C_19
REMARK    3  A    between atoms: C_6  and  C_10
REMARK    4  A    between atoms: C_11  and  C_12
REMARK                            x       y       z     vdW  Elec       q    Type
REMARK                         _______ _______ _______ _____ _____    ______ ____
ROOT
ATOM      2  O   UNL     1      14.462  -6.069  29.870  0.00  0.00    -0.272 OA
ATOM      4  N   UNL     1      16.041  -6.553  28.255  0.00  0.00    -0.298 N 
ATOM      6  C   UNL     1      15.997  -6.539  25.878  0.00  0.00    +0.063 C 
ATOM      7  C   UNL     1      17.258  -7.270  26.364  0.00  0.00    +0.031 C 
ATOM      8  C   UNL     1      15.113  -6.563  27.132  0.00  0.00    +0.118 C 
ATOM      9  C   UNL     1      17.405  -6.830  27.815  0.00  0.00    +0.108 C 
ATOM     11  C   UNL     1      15.630  -6.297  29.551  0.00  0.00    +0.253 C 
ENDROOT
BRANCH   6  10
ATOM      1  S   UNL     1      16.385  -4.971  23.609  0.00  0.00    -0.072 S 
ATOM      5  N   UNL     1      16.583  -4.107  26.031  0.00  0.00    -0.244 NA
ATOM     10  C   UNL     1      16.329  -5.172  25.307  0.00  0.00    +0.084 A 
ATOM     13  C   UNL     1      16.786  -3.308  23.830  0.00  0.00    +0.039 A 
ATOM     14  C   UNL     1      16.847  -3.030  25.199  0.00  0.00    +0.078 A 
ATOM     15  C   UNL     1      17.029  -2.321  22.861  0.00  0.00    +0.017 A 
ATOM     16  C   UNL     1      17.162  -1.717  25.610  0.00  0.00    +0.029 A 
ATOM     17  C   UNL     1      17.339  -1.029  23.295  0.00  0.00    +0.001 A 
ATOM     18  C   UNL     1      17.405  -0.729  24.651  0.00  0.00    +0.002 A 
ENDBRANCH   6  10
BRANCH  11  12
ATOM     12  C   UNL     1      16.717  -6.318  30.595  0.00  0.00    +0.324 C 
BRANCH  12   3
ATOM      3  O   UNL     1      16.412  -5.296  31.513  0.00  0.00    -0.483 OA
BRANCH   3  19
ATOM     19  C   UNL     1      16.614  -3.997  31.104  0.00  0.00    +0.121 A 
ATOM     20  C   UNL     1      17.184  -3.739  29.856  0.00  0.00    +0.045 A 
ATOM     21  C   UNL     1      16.250  -2.939  31.936  0.00  0.00    +0.045 A 
ATOM     22  C   UNL     1      17.389  -2.423  29.442  0.00  0.00    +0.004 A 
ATOM     23  C   UNL     1      16.455  -1.623  31.522  0.00  0.00    +0.004 A 
ATOM     24  C   UNL     1      17.025  -1.365  30.275  0.00  0.00    +0.000 A 
ENDBRANCH   3  19
ENDBRANCH  12   3
ENDBRANCH  11  12
TORSDOF 4
ENDMDL
MODEL 7
REMARK VINA RESULT:      -3.3      2.564      5.494
REMARK  Name = 51136998
REMARK  4 active torsions:
REMARK  status: ('A' for Active; 'I' for Inactive)
REMARK    1  A    between atoms: O_3  and  C_12
REMARK    2  A    between atoms: O_3  and  C_19
REMARK    3  A    between atoms: C_6  and  C_10
REMARK    4  A    between atoms: C_11  and  C_12
REMARK                            x       y       z     vdW  Elec       q    Type
REMARK                         _______ _______ _______ _____ _____    ______ ____
ROOT
ATOM      2  O   UNL     1       0.457  -0.250  22.316  0.00  0.00    -0.272 OA
ATOM      4  N   UNL     1       0.219   1.013  24.236  0.00  0.00    -0.298 N 
ATOM      6  C   UNL     1      -0.621   3.198  24.654  0.00  0.00    +0.063 C 
ATOM      7  C   UNL     1       0.132   2.691  25.893  0.00  0.00    +0.031 C 
ATOM      8  C   UNL     1      -0.091   2.265  23.557  0.00  0.00    +0.118 C 
ATOM      9  C   UNL     1       0.216   1.184  25.685  0.00  0.00    +0.108 C 
ATOM     11  C   UNL     1       0.466  -0.160  23.545  0.00  0.00    +0.253 C 
ENDROOT
BRANCH   6  10
ATOM      1  S   UNL     1      -2.860   4.582  25.567  0.00  0.00    -0.072 S 
ATOM      5  N   UNL     1      -2.920   2.204  24.570  0.00  0.00    -0.244 NA
ATOM     10  C   UNL     1      -2.123   3.201  24.875  0.00  0.00    +0.084 A 
ATOM     13  C   UNL     1      -4.395   3.802  25.463  0.00  0.00    +0.039 A 
ATOM     14  C   UNL     1      -4.227   2.533  24.901  0.00  0.00    +0.078 A 
ATOM     15  C   UNL     1      -5.657   4.280  25.851  0.00  0.00    +0.017 A 
ATOM     16  C   UNL     1      -5.363   1.716  24.721  0.00  0.00    +0.029 A 
ATOM     17  C   UNL     1      -6.766   3.450  25.662  0.00  0.00    +0.001 A 
ATOM     18  C   UNL     1      -6.622   2.184  25.105  0.00  0.00    +0.002 A 
ENDBRANCH   6  10
BRANCH  11  12
ATOM     12  C   UNL     1       0.764  -1.366  24.398  0.00  0.00    +0.324 C 
BRANCH  12   3
ATOM      3  O   UNL     1      -0.214  -1.395  25.409  0.00  0.00    -0.483 OA
BRANCH   3  19
ATOM     19  C   UNL     1      -1.500  -1.715  25.037  0.00  0.00    +0.121 A 
ATOM     20  C   UNL     1      -2.570  -0.941  25.491  0.00  0.00    +0.045 A 
ATOM     21  C   UNL     1      -1.735  -2.810  24.207  0.00  0.00    +0.045 A 
ATOM     22  C   UNL     1      -3.873  -1.264  25.114  0.00  0.00    +0.004 A 
ATOM     23  C   UNL     1      -3.039  -3.133  23.831  0.00  0.00    +0.004 A 
ATOM     24  C   UNL     1      -4.108  -2.361  24.285  0.00  0.00    +0.000 A 
ENDBRANCH   3  19
ENDBRANCH  12   3
ENDBRANCH  11  12
TORSDOF 4
ENDMDL
MODEL 8
REMARK VINA RESULT:      -2.7      2.090      4.596
REMARK  Name = 51136998
REMARK  4 active torsions:
REMARK  status: ('A' for Active; 'I' for Inactive)
REMARK    1  A    between atoms: O_3  and  C_12
REMARK    2  A    between atoms: O_3  and  C_19
REMARK    3  A    between atoms: C_6  and  C_10
REMARK    4  A    between atoms: C_11  and  C_12
REMARK                            x       y       z     vdW  Elec       q    Type
REMARK                         _______ _______ _______ _____ _____    ______ ____
ROOT
ATOM      2  O   UNL     1      -6.235   1.386  23.997  0.00  0.00    -0.272 OA
ATOM      4  N   UNL     1      -4.699   0.134  25.184  0.00  0.00    -0.298 N 
ATOM      6  C   UNL     1      -3.048  -1.452  24.542  0.00  0.00    +0.063 C 
ATOM      7  C   UNL     1      -3.259  -1.516  26.063  0.00  0.00    +0.031 C 
ATOM      8  C   UNL     1      -4.320  -0.733  24.076  0.00  0.00    +0.118 C 
ATOM      9  C   UNL     1      -3.959  -0.204  26.395  0.00  0.00    +0.108 C 
ATOM     11  C   UNL     1      -5.637   1.142  25.046  0.00  0.00    +0.253 C 
ENDROOT
BRANCH   6  10
ATOM      1  S   UNL     1      -1.401   0.783  24.767  0.00  0.00    -0.072 S 
ATOM      5  N   UNL     1      -0.793  -1.352  23.454  0.00  0.00    -0.244 NA
ATOM     10  C   UNL     1      -1.727  -0.794  24.188  0.00  0.00    +0.084 A 
ATOM     13  C   UNL     1       0.131   0.745  23.977  0.00  0.00    +0.039 A 
ATOM     14  C   UNL     1       0.280  -0.482  23.324  0.00  0.00    +0.078 A 
ATOM     15  C   UNL     1       1.131   1.732  23.938  0.00  0.00    +0.017 A 
ATOM     16  C   UNL     1       1.471  -0.729  22.609  0.00  0.00    +0.029 A 
ATOM     17  C   UNL     1       2.300   1.461  23.222  0.00  0.00    +0.001 A 
ATOM     18  C   UNL     1       2.469   0.248  22.565  0.00  0.00    +0.002 A 
ENDBRANCH   6  10
BRANCH  11  12
ATOM     12  C   UNL     1      -5.908   1.952  26.287  0.00  0.00    +0.324 C 
BRANCH  12   3
ATOM      3  O   UNL     1      -5.660   3.296  25.952  0.00  0.00    -0.483 OA
BRANCH   3  19
ATOM     19  C   UNL     1      -4.370   3.637  25.616  0.00  0.00    +0.121 A 
ATOM     20  C   UNL     1      -3.394   3.741  26.610  0.00  0.00    +0.045 A 
ATOM     21  C   UNL     1      -4.036   3.879  24.284  0.00  0.00    +0.045 A 
ATOM     22  C   UNL     1      -2.087   4.086  26.269  0.00  0.00    +0.004 A 
ATOM     23  C   UNL     1      -2.728   4.225  23.944  0.00  0.00    +0.004 A 
ATOM     24  C   UNL     1      -1.754   4.329  24.937  0.00  0.00    +0.000 A 
ENDBRANCH   3  19
ENDBRANCH  12   3
ENDBRANCH  11  12
TORSDOF 4
ENDMDL
MODEL 9
REMARK VINA RESULT:      -0.6      3.701      7.018
REMARK  Name = 51136998
REMARK  4 active torsions:
REMARK  status: ('A' for Active; 'I' for Inactive)
REMARK    1  A    between atoms: O_3  and  C_12
REMARK    2  A    between atoms: O_3  and  C_19
REMARK    3  A    between atoms: C_6  and  C_10
REMARK    4  A    between atoms: C_11  and  C_12
REMARK                            x       y       z     vdW  Elec       q    Type
REMARK                         _______ _______ _______ _____ _____    ______ ____
ROOT
ATOM      2  O   UNL     1       1.934   1.128  23.857  0.00  0.00    -0.272 OA
ATOM      4  N   UNL     1       0.142  -0.312  24.085  0.00  0.00    -0.298 N 
ATOM      6  C   UNL     1      -1.501  -0.611  25.778  0.00  0.00    +0.063 C 
ATOM      7  C   UNL     1      -1.536  -1.805  24.811  0.00  0.00    +0.031 C 
ATOM      8  C   UNL     1      -0.122  -0.007  25.486  0.00  0.00    +0.118 C 
ATOM      9  C   UNL     1      -0.802  -1.302  23.575  0.00  0.00    +0.108 C 
ATOM     11  C   UNL     1       1.162   0.296  23.376  0.00  0.00    +0.253 C 
ENDROOT
BRANCH   6  10
ATOM      1  S   UNL     1      -4.222  -0.388  25.225  0.00  0.00    -0.072 S 
ATOM      5  N   UNL     1      -2.654   1.611  25.667  0.00  0.00    -0.244 NA
ATOM     10  C   UNL     1      -2.698   0.302  25.583  0.00  0.00    +0.084 A 
ATOM     13  C   UNL     1      -4.913   1.191  25.172  0.00  0.00    +0.039 A 
ATOM     14  C   UNL     1      -3.917   2.136  25.435  0.00  0.00    +0.078 A 
ATOM     15  C   UNL     1      -6.242   1.567  24.917  0.00  0.00    +0.017 A 
ATOM     16  C   UNL     1      -4.265   3.504  25.442  0.00  0.00    +0.029 A 
ATOM     17  C   UNL     1      -6.560   2.928  24.930  0.00  0.00    +0.001 A 
ATOM     18  C   UNL     1      -5.585   3.885  25.189  0.00  0.00    +0.002 A 
ENDBRANCH   6  10
BRANCH  11  12
ATOM     12  C   UNL     1       1.295  -0.127  21.936  0.00  0.00    +0.324 C 
BRANCH  12   3
ATOM      3  O   UNL     1       2.615   0.168  21.550  0.00  0.00    -0.483 OA
BRANCH   3  19
ATOM     19  C   UNL     1       3.614  -0.085  22.463  0.00  0.00    +0.121 A 
ATOM     20  C   UNL     1       4.549   0.905  22.767  0.00  0.00    +0.045 A 
ATOM     21  C   UNL     1       3.690  -1.331  23.085  0.00  0.00    +0.045 A 
ATOM     22  C   UNL     1       5.560   0.648  23.692  0.00  0.00    +0.004 A 
ATOM     23  C   UNL     1       4.702  -1.587  24.010  0.00  0.00    +0.004 A 
ATOM     24  C   UNL     1       5.637  -0.598  24.313  0.00  0.00    +0.000 A 
ENDBRANCH   3  19
ENDBRANCH  12   3
ENDBRANCH  11  12
TORSDOF 4
ENDMDL
