MODEL 1
REMARK VINA RESULT:      -3.9      0.000      0.000
REMARK  Name = 45783361
REMARK  10 active torsions:
REMARK  status: ('A' for Active; 'I' for Inactive)
REMARK    1  A    between atoms: O_2  and  C_25
REMARK    2  A    between atoms: O_2  and  C_27
REMARK    3  A    between atoms: O_3  and  C_28
REMARK    4  A    between atoms: O_3  and  C_29
REMARK    5  A    between atoms: N_4  and  C_12
REMARK    6  A    between atoms: C_8  and  C_13
REMARK    7  A    between atoms: C_12  and  C_14
REMARK    8  A    between atoms: C_17  and  C_21
REMARK    9  A    between atoms: C_20  and  C_22
REMARK   10  A    between atoms: C_27  and  C_28
REMARK                            x       y       z     vdW  Elec       q    Type
REMARK                         _______ _______ _______ _____ _____    ______ ____
ROOT
ATOM      1  O   UNL     1      -2.130   2.819  25.467  0.00  0.00    -0.336 OA
ATOM      5  N   UNL     1      -2.156   1.715  23.518  0.00  0.00    -0.190 NA
ATOM      6  N   UNL     1      -0.826   2.352  25.266  0.00  0.00    -0.056 NA
ATOM     13  C   UNL     1      -2.849   2.401  24.392  0.00  0.00    +0.245 A 
ATOM     17  C   UNL     1      -0.920   1.712  24.097  0.00  0.00    +0.202 A 
ENDROOT
BRANCH  17  21
ATOM      7  N   UNL     1       2.378  -0.216  22.283  0.00  0.00    -0.221 NA
ATOM     21  C   UNL     1       0.198   1.058  23.482  0.00  0.00    +0.029 A 
ATOM     23  C   UNL     1       1.478   1.583  23.624  0.00  0.00    +0.079 A 
ATOM     24  C   UNL     1       0.007  -0.102  22.740  0.00  0.00    +0.031 A 
ATOM     25  C   UNL     1       2.525   0.914  23.010  0.00  0.00    +0.215 A 
ATOM     26  C   UNL     1       1.119  -0.696  22.166  0.00  0.00    +0.115 A 
BRANCH  25   2
ATOM      2  O   UNL     1       3.796   1.411  23.135  0.00  0.00    -0.474 OA
BRANCH   2  27
ATOM     27  C   UNL     1       4.862   0.535  22.789  0.00  0.00    +0.258 C 
BRANCH  27  28
ATOM     28  C   UNL     1       5.807   0.417  23.970  0.00  0.00    +0.200 C 
BRANCH  28   3
ATOM      3  O   UNL     1       5.464  -0.738  24.725  0.00  0.00    -0.380 OA
ATOM     29  C   UNL     1       4.845  -1.727  23.913  0.00  0.00    +0.194 C 
ENDBRANCH  28   3
ENDBRANCH  27  28
ENDBRANCH   2  27
ENDBRANCH  25   2
ENDBRANCH  17  21
BRANCH  13   8
ATOM      4  N   UNL     1      -5.090   2.124  25.437  0.00  0.00    -0.287 NA
ATOM      8  C   UNL     1      -4.313   2.785  24.369  0.00  0.00    +0.146 C 
ATOM      9  C   UNL     1      -4.537   4.290  24.597  0.00  0.00    +0.030 C 
ATOM     10  C   UNL     1      -5.499   4.376  25.774  0.00  0.00    +0.017 C 
ATOM     11  C   UNL     1      -6.191   3.029  25.768  0.00  0.00    +0.085 C 
BRANCH   4  12
ATOM     12  C   UNL     1      -5.563   0.797  25.067  0.00  0.00    +0.120 C 
BRANCH  12  14
ATOM     14  C   UNL     1      -4.435  -0.198  24.984  0.00  0.00    -0.033 A 
ATOM     15  C   UNL     1      -3.489  -0.267  26.006  0.00  0.00    +0.005 A 
ATOM     16  C   UNL     1      -4.335  -1.049  23.883  0.00  0.00    +0.005 A 
ATOM     18  C   UNL     1      -2.443  -1.187  25.928  0.00  0.00    +0.003 A 
ATOM     19  C   UNL     1      -3.289  -1.969  23.805  0.00  0.00    +0.003 A 
ATOM     20  C   UNL     1      -2.344  -2.038  24.827  0.00  0.00    -0.050 A 
ATOM     22  C   UNL     1      -1.224  -3.019  24.743  0.00  0.00    +0.044 C 
ENDBRANCH  12  14
ENDBRANCH   4  12
ENDBRANCH  13   8
TORSDOF 8
ENDMDL
MODEL 2
REMARK VINA RESULT:      -0.7      1.527      3.543
REMARK  Name = 45783361
REMARK  10 active torsions:
REMARK  status: ('A' for Active; 'I' for Inactive)
REMARK    1  A    between atoms: O_2  and  C_25
REMARK    2  A    between atoms: O_2  and  C_27
REMARK    3  A    between atoms: O_3  and  C_28
REMARK    4  A    between atoms: O_3  and  C_29
REMARK    5  A    between atoms: N_4  and  C_12
REMARK    6  A    between atoms: C_8  and  C_13
REMARK    7  A    between atoms: C_12  and  C_14
REMARK    8  A    between atoms: C_17  and  C_21
REMARK    9  A    between atoms: C_20  and  C_22
REMARK   10  A    between atoms: C_27  and  C_28
REMARK                            x       y       z     vdW  Elec       q    Type
REMARK                         _______ _______ _______ _____ _____    ______ ____
ROOT
ATOM      1  O   UNL     1      -1.442   0.476  25.825  0.00  0.00    -0.336 OA
ATOM      5  N   UNL     1      -1.282  -0.551  23.840  0.00  0.00    -0.190 NA
ATOM      6  N   UNL     1      -0.174   0.792  25.323  0.00  0.00    -0.056 NA
ATOM     13  C   UNL     1      -2.029  -0.317  24.890  0.00  0.00    +0.245 A 
ATOM     17  C   UNL     1      -0.154   0.151  24.151  0.00  0.00    +0.202 A 
ENDROOT
BRANCH  17  21
ATOM      7  N   UNL     1       3.178   0.266  21.548  0.00  0.00    -0.221 NA
ATOM     21  C   UNL     1       0.976   0.190  23.268  0.00  0.00    +0.029 A 
ATOM     23  C   UNL     1       2.148   0.824  23.663  0.00  0.00    +0.079 A 
ATOM     24  C   UNL     1       0.902  -0.405  22.014  0.00  0.00    +0.031 A 
ATOM     25  C   UNL     1       3.211   0.834  22.774  0.00  0.00    +0.215 A 
ATOM     26  C   UNL     1       2.020  -0.341  21.198  0.00  0.00    +0.115 A 
BRANCH  25   2
ATOM      2  O   UNL     1       4.378   1.452  23.139  0.00  0.00    -0.474 OA
BRANCH   2  27
ATOM     27  C   UNL     1       5.535   0.630  23.237  0.00  0.00    +0.258 C 
BRANCH  27  28
ATOM     28  C   UNL     1       5.694   0.168  24.672  0.00  0.00    +0.200 C 
BRANCH  28   3
ATOM      3  O   UNL     1       5.700  -1.254  24.704  0.00  0.00    -0.380 OA
ATOM     29  C   UNL     1       4.726  -1.798  23.824  0.00  0.00    +0.194 C 
ENDBRANCH  28   3
ENDBRANCH  27  28
ENDBRANCH   2  27
ENDBRANCH  25   2
ENDBRANCH  17  21
BRANCH  13   8
ATOM      4  N   UNL     1      -4.461  -0.089  24.419  0.00  0.00    -0.287 NA
ATOM      8  C   UNL     1      -3.430  -0.801  25.199  0.00  0.00    +0.146 C 
ATOM      9  C   UNL     1      -3.635  -2.287  24.854  0.00  0.00    +0.030 C 
ATOM     10  C   UNL     1      -4.841  -2.316  23.924  0.00  0.00    +0.017 C 
ATOM     11  C   UNL     1      -5.570  -1.028  24.244  0.00  0.00    +0.085 C 
BRANCH   4  12
ATOM     12  C   UNL     1      -4.892   1.158  25.039  0.00  0.00    +0.120 C 
BRANCH  12  14
ATOM     14  C   UNL     1      -3.826   2.219  24.964  0.00  0.00    -0.033 A 
ATOM     15  C   UNL     1      -3.581   3.040  26.065  0.00  0.00    +0.005 A 
ATOM     16  C   UNL     1      -3.086   2.383  23.793  0.00  0.00    +0.005 A 
ATOM     18  C   UNL     1      -2.596   4.025  25.994  0.00  0.00    +0.003 A 
ATOM     19  C   UNL     1      -2.100   3.368  23.723  0.00  0.00    +0.003 A 
ATOM     20  C   UNL     1      -1.855   4.188  24.823  0.00  0.00    -0.050 A 
ATOM     22  C   UNL     1      -0.803   5.243  24.749  0.00  0.00    +0.044 C 
ENDBRANCH  12  14
ENDBRANCH   4  12
ENDBRANCH  13   8
TORSDOF 8
ENDMDL
