MODEL 1
REMARK VINA RESULT:       2.0      0.000      0.000
REMARK  Name = 40777161
REMARK  10 active torsions:
REMARK  status: ('A' for Active; 'I' for Inactive)
REMARK    1  A    between atoms: N_6  and  C_16
REMARK    2  A    between atoms: C_10  and  C_17
REMARK    3  A    between atoms: C_11  and  C_16
REMARK    4  A    between atoms: C_19  and  C_21
REMARK    5  A    between atoms: C_20  and  C_23
REMARK    6  A    between atoms: C_21  and  C_24
REMARK    7  A    between atoms: C_21  and  C_25
REMARK    8  A    between atoms: C_21  and  C_26
REMARK    9  A    between atoms: C_22  and  C_27
REMARK   10  A    between atoms: C_32  and  C_33
REMARK                            x       y       z     vdW  Elec       q    Type
REMARK                         _______ _______ _______ _____ _____    ______ ____
ROOT
ATOM      5  N   UNL     1      -4.947   3.232  25.965  0.00  0.00    -0.297 NA
ATOM      9  C   UNL     1      -5.880   0.859  25.431  0.00  0.00    +0.002 C 
ATOM     10  C   UNL     1      -4.437   0.762  25.999  0.00  0.00    +0.055 C 
ATOM     11  C   UNL     1      -5.508   3.203  24.588  0.00  0.00    +0.074 C 
ATOM     12  C   UNL     1      -5.876   1.761  24.179  0.00  0.00    +0.024 C 
ATOM     13  C   UNL     1      -6.732   1.575  26.502  0.00  0.00    +0.019 C 
ATOM     14  C   UNL     1      -3.880   2.210  26.100  0.00  0.00    +0.094 C 
ATOM     15  C   UNL     1      -6.039   2.887  26.907  0.00  0.00    +0.085 C 
ENDROOT
BRANCH  10  17
ATOM      7  N   UNL     1      -3.867  -1.462  25.155  0.00  0.00    -0.237 NA
ATOM      8  N   UNL     1      -1.749  -1.934  24.106  0.00  0.00    -0.232 NA
ATOM     17  C   UNL     1      -3.460  -0.187  25.318  0.00  0.00    +0.050 A 
ATOM     18  C   UNL     1      -2.230   0.284  24.907  0.00  0.00    +0.052 A 
ATOM     20  C   UNL     1      -1.408  -0.644  24.301  0.00  0.00    +0.075 A 
ATOM     22  C   UNL     1      -2.975  -2.271  24.551  0.00  0.00    +0.127 A 
ATOM     27  C   UNL     1      -3.389  -3.690  24.355  0.00  0.00    +0.088 C 
BRANCH  20  23
ATOM     23  C   UNL     1      -0.093  -0.279  23.827  0.00  0.00    +0.000 A 
ATOM     28  C   UNL     1       0.534   0.863  24.323  0.00  0.00    +0.010 A 
ATOM     29  C   UNL     1       0.548  -1.070  22.874  0.00  0.00    +0.010 A 
ATOM     30  C   UNL     1       1.805   1.215  23.865  0.00  0.00    +0.013 A 
ATOM     31  C   UNL     1       1.818  -0.718  22.416  0.00  0.00    +0.013 A 
ATOM     32  C   UNL     1       2.446   0.424  22.912  0.00  0.00    +0.055 A 
BRANCH  32  33
ATOM      1  F   UNL     1       4.155   2.087  22.721  0.00  0.00    -0.166 F 
ATOM      2  F   UNL     1       3.920   0.695  21.066  0.00  0.00    -0.166 F 
ATOM      3  F   UNL     1       4.805   0.029  22.937  0.00  0.00    -0.166 F 
ATOM     33  C   UNL     1       3.803   0.801  22.422  0.00  0.00    +0.417 C 
ENDBRANCH  32  33
ENDBRANCH  20  23
ENDBRANCH  10  17
BRANCH  11  16
ATOM     16  C   UNL     1      -4.580   3.868  23.568  0.00  0.00    +0.123 C 
BRANCH  16   6
ATOM      4  O   UNL     1      -2.015   2.703  23.139  0.00  0.00    -0.275 OA
ATOM      6  N   UNL     1      -3.353   4.271  24.182  0.00  0.00    -0.313 N 
ATOM     19  C   UNL     1      -2.133   3.648  23.918  0.00  0.00    +0.218 C 
ATOM     34  H   UNL     1      -3.387   5.048  24.834  0.00  0.00    +0.149 HD
BRANCH  19  21
ATOM     21  C   UNL     1      -0.930   4.240  24.682  0.00  0.00    +0.039 C 
ATOM     24  C   UNL     1       0.292   4.330  23.755  0.00  0.00    +0.020 C 
ATOM     25  C   UNL     1      -1.281   5.658  25.169  0.00  0.00    +0.020 C 
ATOM     26  C   UNL     1      -0.603   3.369  25.905  0.00  0.00    +0.020 C 
ENDBRANCH  19  21
ENDBRANCH  16   6
ENDBRANCH  11  16
TORSDOF 6
ENDMDL
MODEL 2
REMARK VINA RESULT:       3.4      1.148      1.690
REMARK  Name = 40777161
REMARK  10 active torsions:
REMARK  status: ('A' for Active; 'I' for Inactive)
REMARK    1  A    between atoms: N_6  and  C_16
REMARK    2  A    between atoms: C_10  and  C_17
REMARK    3  A    between atoms: C_11  and  C_16
REMARK    4  A    between atoms: C_19  and  C_21
REMARK    5  A    between atoms: C_20  and  C_23
REMARK    6  A    between atoms: C_21  and  C_24
REMARK    7  A    between atoms: C_21  and  C_25
REMARK    8  A    between atoms: C_21  and  C_26
REMARK    9  A    between atoms: C_22  and  C_27
REMARK   10  A    between atoms: C_32  and  C_33
REMARK                            x       y       z     vdW  Elec       q    Type
REMARK                         _______ _______ _______ _____ _____    ______ ____
ROOT
ATOM      5  N   UNL     1      -5.769   2.500  26.506  0.00  0.00    -0.297 NA
ATOM      9  C   UNL     1      -5.311   1.836  24.029  0.00  0.00    +0.002 C 
ATOM     10  C   UNL     1      -5.152   0.603  24.961  0.00  0.00    +0.055 C 
ATOM     11  C   UNL     1      -4.802   3.450  25.895  0.00  0.00    +0.074 C 
ATOM     12  C   UNL     1      -4.361   2.957  24.500  0.00  0.00    +0.024 C 
ATOM     13  C   UNL     1      -6.753   2.354  24.219  0.00  0.00    +0.019 C 
ATOM     14  C   UNL     1      -5.240   1.115  26.427  0.00  0.00    +0.094 C 
ATOM     15  C   UNL     1      -7.024   2.560  25.718  0.00  0.00    +0.085 C 
ENDROOT
BRANCH  10  17
ATOM      7  N   UNL     1      -4.164  -1.634  24.928  0.00  0.00    -0.237 NA
ATOM      8  N   UNL     1      -1.852  -2.010  24.362  0.00  0.00    -0.232 NA
ATOM     17  C   UNL     1      -3.958  -0.315  24.741  0.00  0.00    +0.050 A 
ATOM     18  C   UNL     1      -2.744   0.226  24.369  0.00  0.00    +0.052 A 
ATOM     20  C   UNL     1      -1.717  -0.679  24.192  0.00  0.00    +0.075 A 
ATOM     22  C   UNL     1      -3.085  -2.414  24.725  0.00  0.00    +0.127 A 
ATOM     27  C   UNL     1      -3.273  -3.879  24.925  0.00  0.00    +0.088 C 
BRANCH  20  23
ATOM     23  C   UNL     1      -0.396  -0.241  23.804  0.00  0.00    +0.000 A 
ATOM     28  C   UNL     1       0.259   0.739  24.548  0.00  0.00    +0.010 A 
ATOM     29  C   UNL     1       0.223  -0.800  22.687  0.00  0.00    +0.010 A 
ATOM     30  C   UNL     1       1.536   1.162  24.173  0.00  0.00    +0.013 A 
ATOM     31  C   UNL     1       1.499  -0.378  22.312  0.00  0.00    +0.013 A 
ATOM     32  C   UNL     1       2.155   0.603  23.056  0.00  0.00    +0.055 A 
BRANCH  32  33
ATOM      1  F   UNL     1       4.506   0.628  23.498  0.00  0.00    -0.166 F 
ATOM      2  F   UNL     1       3.631   2.414  22.618  0.00  0.00    -0.166 F 
ATOM      3  F   UNL     1       3.896   0.622  21.416  0.00  0.00    -0.166 F 
ATOM     33  C   UNL     1       3.519   1.054  22.655  0.00  0.00    +0.417 C 
ENDBRANCH  32  33
ENDBRANCH  20  23
ENDBRANCH  10  17
BRANCH  11  16
ATOM     16  C   UNL     1      -3.606   3.730  26.807  0.00  0.00    +0.123 C 
BRANCH  16   6
ATOM      4  O   UNL     1      -2.309   5.787  25.321  0.00  0.00    -0.275 OA
ATOM      6  N   UNL     1      -2.376   3.608  26.086  0.00  0.00    -0.313 N 
ATOM     19  C   UNL     1      -1.803   4.666  25.381  0.00  0.00    +0.218 C 
ATOM     34  H   UNL     1      -1.911   2.706  26.100  0.00  0.00    +0.149 HD
BRANCH  19  21
ATOM     21  C   UNL     1      -0.474   4.325  24.676  0.00  0.00    +0.039 C 
ATOM     24  C   UNL     1       0.463   3.587  25.644  0.00  0.00    +0.020 C 
ATOM     25  C   UNL     1      -0.755   3.408  23.471  0.00  0.00    +0.020 C 
ATOM     26  C   UNL     1       0.197   5.611  24.167  0.00  0.00    +0.020 C 
ENDBRANCH  19  21
ENDBRANCH  16   6
ENDBRANCH  11  16
TORSDOF 6
ENDMDL
MODEL 3
REMARK VINA RESULT:       5.8      2.149      4.308
REMARK  Name = 40777161
REMARK  10 active torsions:
REMARK  status: ('A' for Active; 'I' for Inactive)
REMARK    1  A    between atoms: N_6  and  C_16
REMARK    2  A    between atoms: C_10  and  C_17
REMARK    3  A    between atoms: C_11  and  C_16
REMARK    4  A    between atoms: C_19  and  C_21
REMARK    5  A    between atoms: C_20  and  C_23
REMARK    6  A    between atoms: C_21  and  C_24
REMARK    7  A    between atoms: C_21  and  C_25
REMARK    8  A    between atoms: C_21  and  C_26
REMARK    9  A    between atoms: C_22  and  C_27
REMARK   10  A    between atoms: C_32  and  C_33
REMARK                            x       y       z     vdW  Elec       q    Type
REMARK                         _______ _______ _______ _____ _____    ______ ____
ROOT
ATOM      5  N   UNL     1      -3.801  -1.952  25.720  0.00  0.00    -0.297 NA
ATOM      9  C   UNL     1      -3.182  -1.363  23.259  0.00  0.00    +0.002 C 
ATOM     10  C   UNL     1      -1.906  -1.421  24.143  0.00  0.00    +0.055 C 
ATOM     11  C   UNL     1      -4.657  -0.838  25.233  0.00  0.00    +0.074 C 
ATOM     12  C   UNL     1      -4.170  -0.337  23.857  0.00  0.00    +0.024 C 
ATOM     13  C   UNL     1      -3.855  -2.749  23.357  0.00  0.00    +0.019 C 
ATOM     14  C   UNL     1      -2.370  -1.575  25.619  0.00  0.00    +0.094 C 
ATOM     15  C   UNL     1      -4.034  -3.122  24.838  0.00  0.00    +0.085 C 
ENDROOT
BRANCH  10  17
ATOM      7  N   UNL     1      -1.323   0.947  23.957  0.00  0.00    -0.237 NA
ATOM      8  N   UNL     1       0.952   1.693  23.677  0.00  0.00    -0.232 NA
ATOM     17  C   UNL     1      -0.866  -0.321  23.976  0.00  0.00    +0.050 A 
ATOM     18  C   UNL     1       0.466  -0.658  23.854  0.00  0.00    +0.052 A 
ATOM     20  C   UNL     1       1.338   0.401  23.705  0.00  0.00    +0.075 A 
ATOM     22  C   UNL     1      -0.374   1.892  23.806  0.00  0.00    +0.127 A 
ATOM     27  C   UNL     1      -0.841   3.308  23.778  0.00  0.00    +0.088 C 
BRANCH  20  23
ATOM     23  C   UNL     1       2.759   0.183  23.566  0.00  0.00    +0.000 A 
ATOM     28  C   UNL     1       3.311  -1.052  23.903  0.00  0.00    +0.010 A 
ATOM     29  C   UNL     1       3.578   1.208  23.093  0.00  0.00    +0.010 A 
ATOM     30  C   UNL     1       4.684  -1.262  23.768  0.00  0.00    +0.013 A 
ATOM     31  C   UNL     1       4.951   0.997  22.957  0.00  0.00    +0.013 A 
ATOM     32  C   UNL     1       5.503  -0.238  23.295  0.00  0.00    +0.055 A 
BRANCH  32  33
ATOM      1  F   UNL     1       7.308  -1.177  22.036  0.00  0.00    -0.166 F 
ATOM      2  F   UNL     1       7.501  -1.153  24.202  0.00  0.00    -0.166 F 
ATOM      3  F   UNL     1       7.696   0.691  23.068  0.00  0.00    -0.166 F 
ATOM     33  C   UNL     1       6.971  -0.463  23.151  0.00  0.00    +0.417 C 
ENDBRANCH  32  33
ENDBRANCH  20  23
ENDBRANCH  10  17
BRANCH  11  16
ATOM     16  C   UNL     1      -4.765   0.301  26.250  0.00  0.00    +0.123 C 
BRANCH  16   6
ATOM      4  O   UNL     1      -6.096   2.790  26.645  0.00  0.00    -0.275 OA
ATOM      6  N   UNL     1      -4.416   1.553  25.652  0.00  0.00    -0.313 N 
ATOM     19  C   UNL     1      -5.119   2.731  25.897  0.00  0.00    +0.218 C 
ATOM     34  H   UNL     1      -3.617   1.568  25.026  0.00  0.00    +0.149 HD
BRANCH  19  21
ATOM     21  C   UNL     1      -4.576   3.971  25.156  0.00  0.00    +0.039 C 
ATOM     24  C   UNL     1      -5.626   5.092  25.161  0.00  0.00    +0.020 C 
ATOM     25  C   UNL     1      -3.312   4.481  25.873  0.00  0.00    +0.020 C 
ATOM     26  C   UNL     1      -4.204   3.600  23.712  0.00  0.00    +0.020 C 
ENDBRANCH  19  21
ENDBRANCH  16   6
ENDBRANCH  11  16
TORSDOF 6
ENDMDL
