MODEL 1
REMARK VINA RESULT:      -3.9      0.000      0.000
REMARK  Name = 26744250
REMARK  8 active torsions:
REMARK  status: ('A' for Active; 'I' for Inactive)
REMARK    1  A    between atoms: O_2  and  C_12
REMARK    2  A    between atoms: N_3  and  C_16
REMARK    3  A    between atoms: N_6  and  C_22
REMARK    4  A    between atoms: N_6  and  C_23
REMARK    5  A    between atoms: N_6  and  C_24
REMARK    6  A    between atoms: C_7  and  C_14
REMARK    7  A    between atoms: C_8  and  C_15
REMARK    8  A    between atoms: C_16  and  C_17
REMARK                            x       y       z     vdW  Elec       q    Type
REMARK                         _______ _______ _______ _____ _____    ______ ____
ROOT
ATOM      3  N   UNL     1      -3.468   3.302  25.476  0.00  0.00    -0.285 NA
ATOM      8  C   UNL     1      -4.376   2.202  25.857  0.00  0.00    +0.149 C 
ATOM     11  C   UNL     1      -5.792   2.786  25.695  0.00  0.00    +0.061 C 
ATOM     12  C   UNL     1      -5.575   4.230  25.263  0.00  0.00    +0.130 C 
ATOM     13  C   UNL     1      -4.178   4.546  25.765  0.00  0.00    +0.116 C 
ENDROOT
BRANCH   8  15
ATOM      1  O   UNL     1      -3.855   1.137  23.719  0.00  0.00    -0.336 OA
ATOM      4  N   UNL     1      -4.217  -0.304  25.394  0.00  0.00    -0.194 NA
ATOM      5  N   UNL     1      -3.701  -0.143  23.172  0.00  0.00    -0.061 NA
ATOM     14  C   UNL     1      -3.930  -0.938  24.221  0.00  0.00    +0.175 A 
ATOM     15  C   UNL     1      -4.158   0.952  25.030  0.00  0.00    +0.245 A 
BRANCH  14   7
ATOM      7  C   UNL     1      -3.871  -2.464  24.111  0.00  0.00    +0.060 C 
ATOM      9  C   UNL     1      -3.259  -3.244  25.238  0.00  0.00    +0.012 C 
ATOM     10  C   UNL     1      -2.534  -3.122  23.930  0.00  0.00    +0.012 C 
ENDBRANCH  14   7
ENDBRANCH   8  15
BRANCH  12   2
ATOM      2  O   UNL     1      -6.546   5.078  25.843  0.00  0.00    -0.390 OA
ATOM     25  H   UNL     1      -6.251   5.287  26.746  0.00  0.00    +0.210 HD
ENDBRANCH  12   2
BRANCH   3  16
ATOM     16  C   UNL     1      -2.176   3.240  26.148  0.00  0.00    +0.120 C 
BRANCH  16  17
ATOM     17  C   UNL     1      -1.143   2.530  25.314  0.00  0.00    -0.033 A 
ATOM     18  C   UNL     1      -1.008   1.144  25.400  0.00  0.00    +0.007 A 
ATOM     19  C   UNL     1      -0.319   3.259  24.455  0.00  0.00    +0.007 A 
ATOM     20  C   UNL     1      -0.052   0.487  24.627  0.00  0.00    +0.023 A 
ATOM     21  C   UNL     1       0.638   2.601  23.682  0.00  0.00    +0.023 A 
ATOM     22  C   UNL     1       0.772   1.216  23.768  0.00  0.00    +0.029 A 
BRANCH  22   6
ATOM      6  N   UNL     1       1.740   0.551  22.987  0.00  0.00    -0.336 N 
ATOM     23  C   UNL     1       1.352  -0.523  22.095  0.00  0.00    +0.129 C 
ATOM     24  C   UNL     1       3.135   0.938  23.061  0.00  0.00    +0.129 C 
ENDBRANCH  22   6
ENDBRANCH  16  17
ENDBRANCH   3  16
TORSDOF 6
ENDMDL
MODEL 2
REMARK VINA RESULT:      -3.7      2.234      5.680
REMARK  Name = 26744250
REMARK  8 active torsions:
REMARK  status: ('A' for Active; 'I' for Inactive)
REMARK    1  A    between atoms: O_2  and  C_12
REMARK    2  A    between atoms: N_3  and  C_16
REMARK    3  A    between atoms: N_6  and  C_22
REMARK    4  A    between atoms: N_6  and  C_23
REMARK    5  A    between atoms: N_6  and  C_24
REMARK    6  A    between atoms: C_7  and  C_14
REMARK    7  A    between atoms: C_8  and  C_15
REMARK    8  A    between atoms: C_16  and  C_17
REMARK                            x       y       z     vdW  Elec       q    Type
REMARK                         _______ _______ _______ _____ _____    ______ ____
ROOT
ATOM      3  N   UNL     1       1.107   1.733  23.935  0.00  0.00    -0.285 NA
ATOM      8  C   UNL     1       0.330   0.696  23.227  0.00  0.00    +0.149 C 
ATOM     11  C   UNL     1       1.384  -0.295  22.700  0.00  0.00    +0.061 C 
ATOM     12  C   UNL     1       2.723   0.293  23.123  0.00  0.00    +0.130 C 
ATOM     13  C   UNL     1       2.423   1.770  23.302  0.00  0.00    +0.116 C 
ENDROOT
BRANCH   8  15
ATOM      1  O   UNL     1      -0.463   0.057  25.450  0.00  0.00    -0.336 OA
ATOM      4  N   UNL     1      -1.821  -0.563  23.781  0.00  0.00    -0.194 NA
ATOM      5  N   UNL     1      -1.542  -0.603  26.051  0.00  0.00    -0.061 NA
ATOM     14  C   UNL     1      -2.299  -0.938  25.003  0.00  0.00    +0.175 A 
ATOM     15  C   UNL     1      -0.705   0.035  24.114  0.00  0.00    +0.245 A 
BRANCH  14   7
ATOM      7  C   UNL     1      -3.621  -1.693  25.165  0.00  0.00    +0.060 C 
ATOM      9  C   UNL     1      -3.715  -3.099  24.649  0.00  0.00    +0.012 C 
ATOM     10  C   UNL     1      -4.436  -1.990  23.941  0.00  0.00    +0.012 C 
ENDBRANCH  14   7
ENDBRANCH   8  15
BRANCH  12   2
ATOM      2  O   UNL     1       3.704   0.073  22.128  0.00  0.00    -0.390 OA
ATOM     25  H   UNL     1       4.286   0.852  22.114  0.00  0.00    +0.210 HD
ENDBRANCH  12   2
BRANCH   3  16
ATOM     16  C   UNL     1       0.460   3.039  23.930  0.00  0.00    +0.120 C 
BRANCH  16  17
ATOM     17  C   UNL     1      -1.002   2.942  24.278  0.00  0.00    -0.033 A 
ATOM     18  C   UNL     1      -1.943   2.702  23.277  0.00  0.00    +0.007 A 
ATOM     19  C   UNL     1      -1.415   3.093  25.602  0.00  0.00    +0.007 A 
ATOM     20  C   UNL     1      -3.297   2.612  23.600  0.00  0.00    +0.023 A 
ATOM     21  C   UNL     1      -2.770   3.003  25.925  0.00  0.00    +0.023 A 
ATOM     22  C   UNL     1      -3.710   2.763  24.924  0.00  0.00    +0.029 A 
BRANCH  22   6
ATOM      6  N   UNL     1      -5.079   2.672  25.250  0.00  0.00    -0.336 N 
ATOM     23  C   UNL     1      -5.771   1.401  25.168  0.00  0.00    +0.129 C 
ATOM     24  C   UNL     1      -5.811   3.848  25.677  0.00  0.00    +0.129 C 
ENDBRANCH  22   6
ENDBRANCH  16  17
ENDBRANCH   3  16
TORSDOF 6
ENDMDL
MODEL 3
REMARK VINA RESULT:      -1.9      2.594      6.819
REMARK  Name = 26744250
REMARK  8 active torsions:
REMARK  status: ('A' for Active; 'I' for Inactive)
REMARK    1  A    between atoms: O_2  and  C_12
REMARK    2  A    between atoms: N_3  and  C_16
REMARK    3  A    between atoms: N_6  and  C_22
REMARK    4  A    between atoms: N_6  and  C_23
REMARK    5  A    between atoms: N_6  and  C_24
REMARK    6  A    between atoms: C_7  and  C_14
REMARK    7  A    between atoms: C_8  and  C_15
REMARK    8  A    between atoms: C_16  and  C_17
REMARK                            x       y       z     vdW  Elec       q    Type
REMARK                         _______ _______ _______ _____ _____    ______ ____
ROOT
ATOM      3  N   UNL     1       0.025  -0.076  23.353  0.00  0.00    -0.285 NA
ATOM      8  C   UNL     1       0.853   0.649  24.338  0.00  0.00    +0.149 C 
ATOM     11  C   UNL     1       2.143   1.010  23.580  0.00  0.00    +0.061 C 
ATOM     12  C   UNL     1       1.966   0.407  22.193  0.00  0.00    +0.130 C 
ATOM     13  C   UNL     1       0.953  -0.701  22.413  0.00  0.00    +0.116 C 
ENDROOT
BRANCH   8  15
ATOM      1  O   UNL     1       0.573   2.293  26.127  0.00  0.00    -0.336 OA
ATOM      4  N   UNL     1      -0.823   2.575  24.399  0.00  0.00    -0.194 NA
ATOM      5  N   UNL     1      -0.213   3.409  26.439  0.00  0.00    -0.061 NA
ATOM     14  C   UNL     1      -1.011   3.512  25.373  0.00  0.00    +0.175 A 
ATOM     15  C   UNL     1       0.149   1.863  24.910  0.00  0.00    +0.245 A 
BRANCH  14   7
ATOM      7  C   UNL     1      -2.068   4.613  25.253  0.00  0.00    +0.060 C 
ATOM      9  C   UNL     1      -3.313   4.509  26.085  0.00  0.00    +0.012 C 
ATOM     10  C   UNL     1      -3.380   4.284  24.603  0.00  0.00    +0.012 C 
ENDBRANCH  14   7
ENDBRANCH   8  15
BRANCH  12   2
ATOM      2  O   UNL     1       3.194  -0.095  21.703  0.00  0.00    -0.390 OA
ATOM     25  H   UNL     1       3.088  -0.247  20.748  0.00  0.00    +0.210 HD
ENDBRANCH  12   2
BRANCH   3  16
ATOM     16  C   UNL     1      -0.875  -1.047  23.963  0.00  0.00    +0.120 C 
BRANCH  16  17
ATOM     17  C   UNL     1      -2.186  -0.424  24.361  0.00  0.00    -0.033 A 
ATOM     18  C   UNL     1      -2.784   0.530  23.538  0.00  0.00    +0.007 A 
ATOM     19  C   UNL     1      -2.803  -0.799  25.555  0.00  0.00    +0.007 A 
ATOM     20  C   UNL     1      -3.998   1.108  23.907  0.00  0.00    +0.023 A 
ATOM     21  C   UNL     1      -4.018  -0.221  25.925  0.00  0.00    +0.023 A 
ATOM     22  C   UNL     1      -4.615   0.732  25.101  0.00  0.00    +0.029 A 
BRANCH  22   6
ATOM      6  N   UNL     1      -5.843   1.317  25.474  0.00  0.00    -0.336 N 
ATOM     23  C   UNL     1      -6.225   1.396  26.870  0.00  0.00    +0.129 C 
ATOM     24  C   UNL     1      -6.738   1.850  24.467  0.00  0.00    +0.129 C 
ENDBRANCH  22   6
ENDBRANCH  16  17
ENDBRANCH   3  16
TORSDOF 6
ENDMDL
MODEL 4
REMARK VINA RESULT:      -1.2      2.021      5.215
REMARK  Name = 26744250
REMARK  8 active torsions:
REMARK  status: ('A' for Active; 'I' for Inactive)
REMARK    1  A    between atoms: O_2  and  C_12
REMARK    2  A    between atoms: N_3  and  C_16
REMARK    3  A    between atoms: N_6  and  C_22
REMARK    4  A    between atoms: N_6  and  C_23
REMARK    5  A    between atoms: N_6  and  C_24
REMARK    6  A    between atoms: C_7  and  C_14
REMARK    7  A    between atoms: C_8  and  C_15
REMARK    8  A    between atoms: C_16  and  C_17
REMARK                            x       y       z     vdW  Elec       q    Type
REMARK                         _______ _______ _______ _____ _____    ______ ____
ROOT
ATOM      3  N   UNL     1      -2.136  -1.401  24.871  0.00  0.00    -0.285 NA
ATOM      8  C   UNL     1      -3.044  -0.945  23.799  0.00  0.00    +0.149 C 
ATOM     11  C   UNL     1      -4.066  -2.085  23.636  0.00  0.00    +0.061 C 
ATOM     12  C   UNL     1      -3.623  -3.155  24.626  0.00  0.00    +0.130 C 
ATOM     13  C   UNL     1      -2.149  -2.862  24.831  0.00  0.00    +0.116 C 
ENDROOT
BRANCH   8  15
ATOM      1  O   UNL     1      -3.551   1.367  23.185  0.00  0.00    -0.336 OA
ATOM      4  N   UNL     1      -4.391   0.741  25.164  0.00  0.00    -0.194 NA
ATOM      5  N   UNL     1      -4.229   2.483  23.691  0.00  0.00    -0.061 NA
ATOM     14  C   UNL     1      -4.697   2.035  24.859  0.00  0.00    +0.175 A 
ATOM     15  C   UNL     1      -3.695   0.386  24.113  0.00  0.00    +0.245 A 
BRANCH  14   7
ATOM      7  C   UNL     1      -5.525   2.920  25.795  0.00  0.00    +0.060 C 
ATOM      9  C   UNL     1      -5.748   4.356  25.418  0.00  0.00    +0.012 C 
ATOM     10  C   UNL     1      -4.831   4.012  26.555  0.00  0.00    +0.012 C 
ENDBRANCH  14   7
ENDBRANCH   8  15
BRANCH  12   2
ATOM      2  O   UNL     1      -3.833  -4.448  24.094  0.00  0.00    -0.390 OA
ATOM     25  H   UNL     1      -2.963  -4.810  23.852  0.00  0.00    +0.210 HD
ENDBRANCH  12   2
BRANCH   3  16
ATOM     16  C   UNL     1      -0.788  -0.861  24.751  0.00  0.00    +0.120 C 
BRANCH  16  17
ATOM     17  C   UNL     1      -0.785   0.644  24.753  0.00  0.00    -0.033 A 
ATOM     18  C   UNL     1      -0.420   1.344  23.602  0.00  0.00    +0.007 A 
ATOM     19  C   UNL     1      -1.145   1.341  25.907  0.00  0.00    +0.007 A 
ATOM     20  C   UNL     1      -0.418   2.738  23.605  0.00  0.00    +0.023 A 
ATOM     21  C   UNL     1      -1.143   2.736  25.910  0.00  0.00    +0.023 A 
ATOM     22  C   UNL     1      -0.778   3.435  24.759  0.00  0.00    +0.029 A 
BRANCH  22   6
ATOM      6  N   UNL     1      -0.775   4.845  24.761  0.00  0.00    -0.336 N 
ATOM     23  C   UNL     1       0.329   5.578  24.175  0.00  0.00    +0.129 C 
ATOM     24  C   UNL     1      -1.880   5.580  25.345  0.00  0.00    +0.129 C 
ENDBRANCH  22   6
ENDBRANCH  16  17
ENDBRANCH   3  16
TORSDOF 6
ENDMDL
MODEL 5
REMARK VINA RESULT:      -1.2      1.629      4.706
REMARK  Name = 26744250
REMARK  8 active torsions:
REMARK  status: ('A' for Active; 'I' for Inactive)
REMARK    1  A    between atoms: O_2  and  C_12
REMARK    2  A    between atoms: N_3  and  C_16
REMARK    3  A    between atoms: N_6  and  C_22
REMARK    4  A    between atoms: N_6  and  C_23
REMARK    5  A    between atoms: N_6  and  C_24
REMARK    6  A    between atoms: C_7  and  C_14
REMARK    7  A    between atoms: C_8  and  C_15
REMARK    8  A    between atoms: C_16  and  C_17
REMARK                            x       y       z     vdW  Elec       q    Type
REMARK                         _______ _______ _______ _____ _____    ______ ____
ROOT
ATOM      3  N   UNL     1      -3.136  -1.081  25.620  0.00  0.00    -0.285 NA
ATOM      8  C   UNL     1      -3.301  -0.300  24.378  0.00  0.00    +0.149 C 
ATOM     11  C   UNL     1      -4.229  -1.154  23.495  0.00  0.00    +0.061 C 
ATOM     12  C   UNL     1      -4.496  -2.414  24.308  0.00  0.00    +0.130 C 
ATOM     13  C   UNL     1      -3.311  -2.485  25.253  0.00  0.00    +0.116 C 
ENDROOT
BRANCH   8  15
ATOM      1  O   UNL     1      -5.198   1.228  24.597  0.00  0.00    -0.336 OA
ATOM      4  N   UNL     1      -3.201   2.201  24.883  0.00  0.00    -0.194 NA
ATOM      5  N   UNL     1      -5.457   2.579  24.857  0.00  0.00    -0.061 NA
ATOM     14  C   UNL     1      -4.231   3.086  25.015  0.00  0.00    +0.175 A 
ATOM     15  C   UNL     1      -3.846   1.090  24.631  0.00  0.00    +0.245 A 
BRANCH  14   7
ATOM      7  C   UNL     1      -4.000   4.568  25.325  0.00  0.00    +0.060 C 
ATOM      9  C   UNL     1      -2.604   5.113  25.232  0.00  0.00    +0.012 C 
ATOM     10  C   UNL     1      -3.252   4.934  26.574  0.00  0.00    +0.012 C 
ENDBRANCH  14   7
ENDBRANCH   8  15
BRANCH  12   2
ATOM      2  O   UNL     1      -4.564  -3.548  23.466  0.00  0.00    -0.390 OA
ATOM     25  H   UNL     1      -3.662  -3.900  23.375  0.00  0.00    +0.210 HD
ENDBRANCH  12   2
BRANCH   3  16
ATOM     16  C   UNL     1      -1.860  -0.843  26.284  0.00  0.00    +0.120 C 
BRANCH  16  17
ATOM     17  C   UNL     1      -0.765  -0.535  25.299  0.00  0.00    -0.033 A 
ATOM     18  C   UNL     1      -0.186  -1.564  24.554  0.00  0.00    +0.007 A 
ATOM     19  C   UNL     1      -0.326   0.778  25.131  0.00  0.00    +0.007 A 
ATOM     20  C   UNL     1       0.829  -1.278  23.642  0.00  0.00    +0.023 A 
ATOM     21  C   UNL     1       0.690   1.064  24.218  0.00  0.00    +0.023 A 
ATOM     22  C   UNL     1       1.268   0.035  23.474  0.00  0.00    +0.029 A 
BRANCH  22   6
ATOM      6  N   UNL     1       2.295   0.323  22.551  0.00  0.00    -0.336 N 
ATOM     23  C   UNL     1       3.393   1.192  22.923  0.00  0.00    +0.129 C 
ATOM     24  C   UNL     1       2.267  -0.251  21.221  0.00  0.00    +0.129 C 
ENDBRANCH  22   6
ENDBRANCH  16  17
ENDBRANCH   3  16
TORSDOF 6
ENDMDL
MODEL 6
REMARK VINA RESULT:      -1.2      2.384      6.364
REMARK  Name = 26744250
REMARK  8 active torsions:
REMARK  status: ('A' for Active; 'I' for Inactive)
REMARK    1  A    between atoms: O_2  and  C_12
REMARK    2  A    between atoms: N_3  and  C_16
REMARK    3  A    between atoms: N_6  and  C_22
REMARK    4  A    between atoms: N_6  and  C_23
REMARK    5  A    between atoms: N_6  and  C_24
REMARK    6  A    between atoms: C_7  and  C_14
REMARK    7  A    between atoms: C_8  and  C_15
REMARK    8  A    between atoms: C_16  and  C_17
REMARK                            x       y       z     vdW  Elec       q    Type
REMARK                         _______ _______ _______ _____ _____    ______ ____
ROOT
ATOM      3  N   UNL     1      -2.529  -1.089  23.548  0.00  0.00    -0.285 NA
ATOM      8  C   UNL     1      -1.734  -0.440  24.610  0.00  0.00    +0.149 C 
ATOM     11  C   UNL     1      -1.610  -1.504  25.716  0.00  0.00    +0.061 C 
ATOM     12  C   UNL     1      -2.404  -2.698  25.204  0.00  0.00    +0.130 C 
ATOM     13  C   UNL     1      -3.371  -2.083  24.209  0.00  0.00    +0.116 C 
ENDROOT
BRANCH   8  15
ATOM      1  O   UNL     1      -0.025   1.305  24.492  0.00  0.00    -0.336 OA
ATOM      4  N   UNL     1       0.492  -0.561  23.366  0.00  0.00    -0.194 NA
ATOM      5  N   UNL     1       1.235   1.530  23.923  0.00  0.00    -0.061 NA
ATOM     14  C   UNL     1       1.471   0.385  23.276  0.00  0.00    +0.175 A 
ATOM     15  C   UNL     1      -0.390   0.052  24.116  0.00  0.00    +0.245 A 
BRANCH  14   7
ATOM      7  C   UNL     1       2.761   0.152  22.484  0.00  0.00    +0.060 C 
ATOM      9  C   UNL     1       3.964  -0.379  23.208  0.00  0.00    +0.012 C 
ATOM     10  C   UNL     1       3.937   1.048  22.743  0.00  0.00    +0.012 C 
ENDBRANCH  14   7
ENDBRANCH   8  15
BRANCH  12   2
ATOM      2  O   UNL     1      -3.081  -3.343  26.265  0.00  0.00    -0.390 OA
ATOM     25  H   UNL     1      -2.462  -3.406  27.012  0.00  0.00    +0.210 HD
ENDBRANCH  12   2
BRANCH   3  16
ATOM     16  C   UNL     1      -3.311  -0.147  22.757  0.00  0.00    +0.120 C 
BRANCH  16  17
ATOM     17  C   UNL     1      -3.699   1.068  23.557  0.00  0.00    -0.033 A 
ATOM     18  C   UNL     1      -3.120   2.306  23.272  0.00  0.00    +0.007 A 
ATOM     19  C   UNL     1      -4.637   0.958  24.584  0.00  0.00    +0.007 A 
ATOM     20  C   UNL     1      -3.480   3.431  24.013  0.00  0.00    +0.023 A 
ATOM     21  C   UNL     1      -4.997   2.083  25.325  0.00  0.00    +0.023 A 
ATOM     22  C   UNL     1      -4.418   3.320  25.040  0.00  0.00    +0.029 A 
BRANCH  22   6
ATOM      6  N   UNL     1      -4.781   4.458  25.789  0.00  0.00    -0.336 N 
ATOM     23  C   UNL     1      -3.829   5.083  26.685  0.00  0.00    +0.129 C 
ATOM     24  C   UNL     1      -6.111   5.021  25.668  0.00  0.00    +0.129 C 
ENDBRANCH  22   6
ENDBRANCH  16  17
ENDBRANCH   3  16
TORSDOF 6
ENDMDL
MODEL 7
REMARK VINA RESULT:      -0.5      1.849      4.952
REMARK  Name = 26744250
REMARK  8 active torsions:
REMARK  status: ('A' for Active; 'I' for Inactive)
REMARK    1  A    between atoms: O_2  and  C_12
REMARK    2  A    between atoms: N_3  and  C_16
REMARK    3  A    between atoms: N_6  and  C_22
REMARK    4  A    between atoms: N_6  and  C_23
REMARK    5  A    between atoms: N_6  and  C_24
REMARK    6  A    between atoms: C_7  and  C_14
REMARK    7  A    between atoms: C_8  and  C_15
REMARK    8  A    between atoms: C_16  and  C_17
REMARK                            x       y       z     vdW  Elec       q    Type
REMARK                         _______ _______ _______ _____ _____    ______ ____
ROOT
ATOM      3  N   UNL     1      -2.121  -0.237  24.073  0.00  0.00    -0.285 NA
ATOM      8  C   UNL     1      -3.483   0.304  24.259  0.00  0.00    +0.149 C 
ATOM     11  C   UNL     1      -4.181  -0.701  25.194  0.00  0.00    +0.061 C 
ATOM     12  C   UNL     1      -3.148  -1.792  25.441  0.00  0.00    +0.130 C 
ATOM     13  C   UNL     1      -2.222  -1.684  24.244  0.00  0.00    +0.116 C 
ENDROOT
BRANCH   8  15
ATOM      1  O   UNL     1      -4.659   2.175  25.305  0.00  0.00    -0.336 OA
ATOM      4  N   UNL     1      -2.495   2.573  24.887  0.00  0.00    -0.194 NA
ATOM      5  N   UNL     1      -4.409   3.479  25.751  0.00  0.00    -0.061 NA
ATOM     14  C   UNL     1      -3.113   3.640  25.470  0.00  0.00    +0.175 A 
ATOM     15  C   UNL     1      -3.481   1.714  24.811  0.00  0.00    +0.245 A 
BRANCH  14   7
ATOM      7  C   UNL     1      -2.370   4.941  25.786  0.00  0.00    +0.060 C 
ATOM      9  C   UNL     1      -2.207   5.960  24.695  0.00  0.00    +0.012 C 
ATOM     10  C   UNL     1      -1.022   5.169  25.168  0.00  0.00    +0.012 C 
ENDBRANCH  14   7
ENDBRANCH   8  15
BRANCH  12   2
ATOM      2  O   UNL     1      -3.766  -3.062  25.514  0.00  0.00    -0.390 OA
ATOM     25  H   UNL     1      -3.063  -3.725  25.616  0.00  0.00    +0.210 HD
ENDBRANCH  12   2
BRANCH   3  16
ATOM     16  C   UNL     1      -1.530   0.124  22.790  0.00  0.00    +0.120 C 
BRANCH  16  17
ATOM     17  C   UNL     1      -0.030   0.221  22.871  0.00  0.00    -0.033 A 
ATOM     18  C   UNL     1       0.565   1.119  23.757  0.00  0.00    +0.007 A 
ATOM     19  C   UNL     1       0.765  -0.588  22.058  0.00  0.00    +0.007 A 
ATOM     20  C   UNL     1       1.955   1.207  23.831  0.00  0.00    +0.023 A 
ATOM     21  C   UNL     1       2.156  -0.499  22.132  0.00  0.00    +0.023 A 
ATOM     22  C   UNL     1       2.750   0.399  23.018  0.00  0.00    +0.029 A 
BRANCH  22   6
ATOM      6  N   UNL     1       4.156   0.489  23.094  0.00  0.00    -0.336 N 
ATOM     23  C   UNL     1       4.934  -0.605  23.639  0.00  0.00    +0.129 C 
ATOM     24  C   UNL     1       4.841   1.676  22.622  0.00  0.00    +0.129 C 
ENDBRANCH  22   6
ENDBRANCH  16  17
ENDBRANCH   3  16
TORSDOF 6
ENDMDL
