MODEL 1
REMARK VINA RESULT:      21.6      0.000      0.000
REMARK  Name = 71694340
REMARK  7 active torsions:
REMARK  status: ('A' for Active; 'I' for Inactive)
REMARK    1  A    between atoms: N_6  and  C_22
REMARK    2  A    between atoms: N_6  and  C_24
REMARK    3  A    between atoms: N_8  and  C_28
REMARK    4  A    between atoms: C_10  and  C_15
REMARK    5  A    between atoms: C_15  and  C_18
REMARK    6  A    between atoms: C_22  and  C_26
REMARK    7  A    between atoms: C_26  and  C_34
REMARK                            x       y       z     vdW  Elec       q    Type
REMARK                         _______ _______ _______ _____ _____    ______ ____
ROOT
ATOM      1  O   UNL     1      -0.086   6.082  25.380  0.00  0.00    -0.274 OA
ATOM      3  O   UNL     1      -1.021   1.218  23.479  0.00  0.00    -0.488 OA
ATOM      5  N   UNL     1      -2.130   5.257  24.675  0.00  0.00    -0.300 N 
ATOM      7  N   UNL     1       0.143   3.835  22.968  0.00  0.00    -0.304 NA
ATOM     10  C   UNL     1      -3.920   3.255  25.807  0.00  0.00    +0.008 C 
ATOM     11  C   UNL     1      -3.193   3.079  24.440  0.00  0.00    +0.032 C 
ATOM     12  C   UNL     1      -3.114   4.240  26.687  0.00  0.00    +0.023 C 
ATOM     13  C   UNL     1      -2.953   4.446  23.771  0.00  0.00    +0.115 C 
ATOM     14  C   UNL     1      -2.779   5.544  25.957  0.00  0.00    +0.108 C 
ATOM     16  C   UNL     1      -3.873   2.122  23.499  0.00  0.00    -0.023 C 
ATOM     17  C   UNL     1      -0.778   5.555  24.502  0.00  0.00    +0.229 C 
ATOM     19  C   UNL     1      -3.393   0.990  22.957  0.00  0.00    +0.010 C 
ATOM     20  C   UNL     1      -0.132   5.255  23.162  0.00  0.00    +0.178 C 
ATOM     21  C   UNL     1      -2.043   0.326  23.048  0.00  0.00    +0.256 C 
ATOM     23  C   UNL     1       0.917   3.202  24.033  0.00  0.00    +0.120 C 
ATOM     25  C   UNL     1       1.270   1.763  23.697  0.00  0.00    +0.010 A 
ATOM     27  C   UNL     1       0.281   0.786  23.436  0.00  0.00    +0.125 A 
ATOM     28  C   UNL     1       2.993   0.073  23.387  0.00  0.00    +0.030 A 
ATOM     29  C   UNL     1       2.623   1.387  23.670  0.00  0.00    +0.031 A 
ATOM     32  C   UNL     1       0.664  -0.532  23.161  0.00  0.00    +0.048 A 
ATOM     33  C   UNL     1       2.015  -0.884  23.136  0.00  0.00    +0.027 A 
ATOM     41  H   UNL     1       0.630   3.718  22.079  0.00  0.00    +0.123 HD
ENDROOT
BRANCH  28   8
ATOM      4  O   UNL     1       7.053  -0.998  23.595  0.00  0.00    -0.377 OA
ATOM      8  N   UNL     1       4.345  -0.284  23.363  0.00  0.00    -0.326 N 
ATOM     30  C   UNL     1       5.377   0.752  23.472  0.00  0.00    +0.133 C 
ATOM     31  C   UNL     1       4.723  -1.602  23.892  0.00  0.00    +0.133 C 
ATOM     35  C   UNL     1       6.701   0.219  22.936  0.00  0.00    +0.178 C 
ATOM     36  C   UNL     1       6.081  -2.010  23.334  0.00  0.00    +0.178 C 
ENDBRANCH  28   8
BRANCH  10  15
ATOM     15  C   UNL     1      -5.383   3.700  25.701  0.00  0.00    +0.100 C 
BRANCH  15  18
ATOM      2  O   UNL     1      -7.241   2.860  24.440  0.00  0.00    -0.276 OA
ATOM      6  N   UNL     1      -5.945   1.299  25.563  0.00  0.00    -0.304 N 
ATOM     18  C   UNL     1      -6.282   2.598  25.170  0.00  0.00    +0.216 C 
ATOM     24  C   UNL     1      -4.807   1.014  26.427  0.00  0.00    +0.132 C 
BRANCH   6  22
ATOM     22  C   UNL     1      -6.710   0.129  25.137  0.00  0.00    +0.113 C 
BRANCH  22  26
ATOM     26  C   UNL     1      -6.048  -0.615  23.980  0.00  0.00    +0.074 C 
BRANCH  26  34
ATOM      9  N   UNL     1      -4.172  -0.923  25.502  0.00  0.00    -0.260 NA
ATOM     34  C   UNL     1      -4.810  -1.369  24.397  0.00  0.00    +0.043 A 
ATOM     37  C   UNL     1      -4.395  -2.459  23.647  0.00  0.00    +0.023 A 
ATOM     38  C   UNL     1      -3.251  -3.134  24.060  0.00  0.00    +0.003 A 
ATOM     39  C   UNL     1      -3.064  -1.604  25.871  0.00  0.00    +0.111 A 
ATOM     40  C   UNL     1      -2.567  -2.704  25.192  0.00  0.00    +0.020 A 
ENDBRANCH  26  34
ENDBRANCH  22  26
ENDBRANCH   6  22
ENDBRANCH  15  18
ENDBRANCH  10  15
TORSDOF 6
ENDMDL
MODEL 2
REMARK VINA RESULT:      22.7      1.758      5.058
REMARK  Name = 71694340
REMARK  7 active torsions:
REMARK  status: ('A' for Active; 'I' for Inactive)
REMARK    1  A    between atoms: N_6  and  C_22
REMARK    2  A    between atoms: N_6  and  C_24
REMARK    3  A    between atoms: N_8  and  C_28
REMARK    4  A    between atoms: C_10  and  C_15
REMARK    5  A    between atoms: C_15  and  C_18
REMARK    6  A    between atoms: C_22  and  C_26
REMARK    7  A    between atoms: C_26  and  C_34
REMARK                            x       y       z     vdW  Elec       q    Type
REMARK                         _______ _______ _______ _____ _____    ______ ____
ROOT
ATOM      1  O   UNL     1      -1.325  -3.951  24.696  0.00  0.00    -0.274 OA
ATOM      3  O   UNL     1       0.358   1.039  24.044  0.00  0.00    -0.488 OA
ATOM      5  N   UNL     1      -2.551  -2.028  25.097  0.00  0.00    -0.300 N 
ATOM      7  N   UNL     1       0.508  -1.375  25.660  0.00  0.00    -0.304 NA
ATOM     10  C   UNL     1      -3.679  -0.026  23.304  0.00  0.00    +0.008 C 
ATOM     11  C   UNL     1      -2.550   0.283  24.332  0.00  0.00    +0.032 C 
ATOM     12  C   UNL     1      -3.642  -1.532  22.949  0.00  0.00    +0.023 C 
ATOM     13  C   UNL     1      -2.662  -0.641  25.560  0.00  0.00    +0.115 C 
ATOM     14  C   UNL     1      -3.629  -2.430  24.189  0.00  0.00    +0.108 C 
ATOM     16  C   UNL     1      -2.469   1.729  24.741  0.00  0.00    -0.023 C 
ATOM     17  C   UNL     1      -1.442  -2.858  25.264  0.00  0.00    +0.229 C 
ATOM     19  C   UNL     1      -1.442   2.586  24.609  0.00  0.00    +0.010 C 
ATOM     20  C   UNL     1      -0.343  -2.422  26.215  0.00  0.00    +0.178 C 
ATOM     21  C   UNL     1      -0.044   2.403  24.077  0.00  0.00    +0.256 C 
ATOM     23  C   UNL     1       1.088  -1.676  24.353  0.00  0.00    +0.120 C 
ATOM     25  C   UNL     1       2.060  -0.597  23.905  0.00  0.00    +0.010 A 
ATOM     27  C   UNL     1       1.666   0.751  23.745  0.00  0.00    +0.125 A 
ATOM     28  C   UNL     1       4.306  -0.007  23.179  0.00  0.00    +0.030 A 
ATOM     29  C   UNL     1       3.386  -0.959  23.614  0.00  0.00    +0.031 A 
ATOM     32  C   UNL     1       2.596   1.697  23.299  0.00  0.00    +0.048 A 
ATOM     33  C   UNL     1       3.911   1.317  23.020  0.00  0.00    +0.027 A 
ATOM     41  H   UNL     1       1.256  -1.180  26.326  0.00  0.00    +0.123 HD
ENDROOT
BRANCH  28   8
ATOM      4  O   UNL     1       8.260  -1.295  22.562  0.00  0.00    -0.377 OA
ATOM      8  N   UNL     1       5.622  -0.384  22.895  0.00  0.00    -0.326 N 
ATOM     30  C   UNL     1       6.739   0.339  23.512  0.00  0.00    +0.133 C 
ATOM     31  C   UNL     1       5.887  -1.795  22.584  0.00  0.00    +0.133 C 
ATOM     35  C   UNL     1       8.013   0.104  22.709  0.00  0.00    +0.178 C 
ATOM     36  C   UNL     1       7.205  -1.917  21.828  0.00  0.00    +0.178 C 
ENDBRANCH  28   8
BRANCH  10  15
ATOM     15  C   UNL     1      -5.085   0.387  23.754  0.00  0.00    +0.100 C 
BRANCH  15  18
ATOM      2  O   UNL     1      -4.808   2.712  23.236  0.00  0.00    -0.276 OA
ATOM      6  N   UNL     1      -5.698   2.200  25.316  0.00  0.00    -0.304 N 
ATOM     18  C   UNL     1      -5.177   1.871  24.060  0.00  0.00    +0.216 C 
ATOM     24  C   UNL     1      -6.126   1.189  26.274  0.00  0.00    +0.132 C 
BRANCH   6  22
ATOM     22  C   UNL     1      -5.851   3.582  25.762  0.00  0.00    +0.113 C 
BRANCH  22  26
ATOM     26  C   UNL     1      -4.641   4.081  26.550  0.00  0.00    +0.074 C 
BRANCH  26  34
ATOM      9  N   UNL     1      -3.996   5.152  24.460  0.00  0.00    -0.260 NA
ATOM     34  C   UNL     1      -3.591   4.720  25.674  0.00  0.00    +0.043 A 
ATOM     37  C   UNL     1      -2.293   4.832  26.146  0.00  0.00    +0.023 A 
ATOM     38  C   UNL     1      -1.349   5.427  25.315  0.00  0.00    +0.003 A 
ATOM     39  C   UNL     1      -3.051   5.723  23.680  0.00  0.00    +0.111 A 
ATOM     40  C   UNL     1      -1.728   5.884  24.057  0.00  0.00    +0.020 A 
ENDBRANCH  26  34
ENDBRANCH  22  26
ENDBRANCH   6  22
ENDBRANCH  15  18
ENDBRANCH  10  15
TORSDOF 6
ENDMDL
