MODEL 1
REMARK VINA RESULT:       5.9      0.000      0.000
REMARK  Name = 38026845
REMARK  13 active torsions:
REMARK  status: ('A' for Active; 'I' for Inactive)
REMARK    1  A    between atoms: S_1  and  N_7
REMARK    2  A    between atoms: S_1  and  C_28
REMARK    3  A    between atoms: N_7  and  C_18
REMARK    4  A    between atoms: N_10  and  C_35
REMARK    5  A    between atoms: C_11  and  C_15
REMARK    6  A    between atoms: C_12  and  C_18
REMARK    7  A    between atoms: C_14  and  C_19
REMARK    8  A    between atoms: C_15  and  C_20
REMARK    9  A    between atoms: C_15  and  C_21
REMARK   10  A    between atoms: C_16  and  C_22
REMARK   11  A    between atoms: C_19  and  C_23
REMARK   12  A    between atoms: C_29  and  C_32
REMARK   13  A    between atoms: C_36  and  C_37
REMARK                            x       y       z     vdW  Elec       q    Type
REMARK                         _______ _______ _______ _____ _____    ______ ____
ROOT
ATOM     11  C   UNL     1      -1.840  -0.966  25.207  0.00  0.00    +0.000 C 
ATOM     12  C   UNL     1      -1.523  -2.382  24.664  0.00  0.00    +0.030 C 
ATOM     13  C   UNL     1      -3.229  -0.944  25.866  0.00  0.00    +0.012 C 
ATOM     14  C   UNL     1      -4.345  -1.351  24.885  0.00  0.00    +0.023 C 
ATOM     16  C   UNL     1      -3.984  -2.602  24.109  0.00  0.00    -0.073 C 
ATOM     17  C   UNL     1      -2.719  -3.054  24.032  0.00  0.00    -0.023 C 
ATOM     22  C   UNL     1      -5.117  -3.347  23.461  0.00  0.00    +0.039 C 
ENDROOT
BRANCH  11  15
ATOM     15  C   UNL     1      -0.783  -0.492  26.210  0.00  0.00    -0.013 C 
ATOM     20  C   UNL     1      -0.681   1.030  26.195  0.00  0.00    +0.007 C 
ATOM     21  C   UNL     1      -1.113  -0.998  27.610  0.00  0.00    +0.007 C 
ENDBRANCH  11  15
BRANCH  12  18
ATOM     18  C   UNL     1      -0.370  -2.340  23.655  0.00  0.00    +0.113 C 
BRANCH  18   7
ATOM      7  N   UNL     1       0.534  -1.233  24.003  0.00  0.00    -0.189 NA
ATOM     38  H   UNL     1       0.524  -0.915  24.979  0.00  0.00    +0.148 HD
BRANCH   7   1
ATOM      1  S   UNL     1       1.018  -0.115  22.811  0.00  0.00    +0.058 S 
ATOM      3  O   UNL     1       0.458   1.186  23.120  0.00  0.00    -0.153 OA
ATOM      4  O   UNL     1       0.820  -0.702  21.500  0.00  0.00    -0.153 OA
BRANCH   1  28
ATOM     28  C   UNL     1       2.763  -0.033  23.081  0.00  0.00    +0.105 A 
ATOM     30  C   UNL     1       3.471   1.115  22.728  0.00  0.00    +0.030 A 
ATOM     31  C   UNL     1       3.433  -1.118  23.647  0.00  0.00    +0.030 A 
ATOM     33  C   UNL     1       4.848   1.180  22.940  0.00  0.00    +0.025 A 
ATOM     34  C   UNL     1       4.809  -1.054  23.860  0.00  0.00    +0.025 A 
ATOM     35  C   UNL     1       5.518   0.095  23.507  0.00  0.00    +0.033 A 
BRANCH  35  10
ATOM      6  O   UNL     1       7.792  -1.155  21.981  0.00  0.00    -0.276 OA
ATOM     10  N   UNL     1       6.895   0.160  23.720  0.00  0.00    -0.286 N 
ATOM     36  C   UNL     1       7.914  -0.447  22.975  0.00  0.00    +0.214 C 
ATOM     37  C   UNL     1       9.279  -0.131  23.534  0.00  0.00    +0.109 C 
ATOM     39  H   UNL     1       7.184   0.720  24.519  0.00  0.00    +0.155 HD
ENDBRANCH  35  10
ENDBRANCH   1  28
ENDBRANCH   7   1
ENDBRANCH  18   7
ENDBRANCH  12  18
BRANCH  14  19
ATOM     19  C   UNL     1      -4.694  -0.200  23.936  0.00  0.00    +0.103 C 
BRANCH  19  23
ATOM      2  O   UNL     1      -6.173   1.165  25.187  0.00  0.00    -0.276 OA
ATOM      5  O   UNL     1      -0.250   5.037  24.184  0.00  0.00    -0.276 OA
ATOM      8  N   UNL     1      -4.013   1.968  24.902  0.00  0.00    -0.298 N 
ATOM      9  N   UNL     1      -2.429   4.265  24.413  0.00  0.00    -0.299 N 
ATOM     23  C   UNL     1      -5.035   1.035  24.733  0.00  0.00    +0.216 C 
ATOM     24  C   UNL     1      -4.263   3.196  25.662  0.00  0.00    +0.126 C 
ATOM     25  C   UNL     1      -2.628   1.808  24.440  0.00  0.00    +0.126 C 
ATOM     26  C   UNL     1      -3.813   4.425  24.876  0.00  0.00    +0.126 C 
ATOM     27  C   UNL     1      -2.179   3.037  23.653  0.00  0.00    +0.126 C 
ATOM     29  C   UNL     1      -1.405   5.196  24.584  0.00  0.00    +0.213 C 
ATOM     32  C   UNL     1      -1.767   6.467  25.311  0.00  0.00    +0.109 C 
ENDBRANCH  19  23
ENDBRANCH  14  19
TORSDOF 8
ENDMDL
MODEL 2
REMARK VINA RESULT:       6.0      1.717      4.716
REMARK  Name = 38026845
REMARK  13 active torsions:
REMARK  status: ('A' for Active; 'I' for Inactive)
REMARK    1  A    between atoms: S_1  and  N_7
REMARK    2  A    between atoms: S_1  and  C_28
REMARK    3  A    between atoms: N_7  and  C_18
REMARK    4  A    between atoms: N_10  and  C_35
REMARK    5  A    between atoms: C_11  and  C_15
REMARK    6  A    between atoms: C_12  and  C_18
REMARK    7  A    between atoms: C_14  and  C_19
REMARK    8  A    between atoms: C_15  and  C_20
REMARK    9  A    between atoms: C_15  and  C_21
REMARK   10  A    between atoms: C_16  and  C_22
REMARK   11  A    between atoms: C_19  and  C_23
REMARK   12  A    between atoms: C_29  and  C_32
REMARK   13  A    between atoms: C_36  and  C_37
REMARK                            x       y       z     vdW  Elec       q    Type
REMARK                         _______ _______ _______ _____ _____    ______ ____
ROOT
ATOM     11  C   UNL     1      -2.494   2.501  23.682  0.00  0.00    +0.000 C 
ATOM     12  C   UNL     1      -1.219   3.085  24.339  0.00  0.00    +0.030 C 
ATOM     13  C   UNL     1      -3.677   3.468  23.853  0.00  0.00    +0.012 C 
ATOM     14  C   UNL     1      -3.981   3.758  25.335  0.00  0.00    +0.023 C 
ATOM     16  C   UNL     1      -2.723   4.081  26.115  0.00  0.00    -0.073 C 
ATOM     17  C   UNL     1      -1.497   3.785  25.649  0.00  0.00    -0.023 C 
ATOM     22  C   UNL     1      -2.904   4.795  27.426  0.00  0.00    +0.039 C 
ENDROOT
BRANCH  11  15
ATOM     15  C   UNL     1      -2.280   2.202  22.194  0.00  0.00    -0.013 C 
ATOM     20  C   UNL     1      -2.475   0.715  21.917  0.00  0.00    +0.007 C 
ATOM     21  C   UNL     1      -3.228   3.040  21.341  0.00  0.00    +0.007 C 
ENDBRANCH  11  15
BRANCH  12  18
ATOM     18  C   UNL     1      -0.162   1.996  24.557  0.00  0.00    +0.113 C 
BRANCH  18   7
ATOM      7  N   UNL     1       0.405   1.609  23.255  0.00  0.00    -0.189 NA
ATOM     38  H   UNL     1       0.147   2.187  22.447  0.00  0.00    +0.148 HD
BRANCH   7   1
ATOM      1  S   UNL     1       0.851  -0.009  22.962  0.00  0.00    +0.058 S 
ATOM      3  O   UNL     1       0.569  -0.340  21.579  0.00  0.00    -0.153 OA
ATOM      4  O   UNL     1       0.338  -0.844  24.031  0.00  0.00    -0.153 OA
BRANCH   1  28
ATOM     28  C   UNL     1       2.607   0.060  23.158  0.00  0.00    +0.105 A 
ATOM     30  C   UNL     1       3.309   1.196  22.758  0.00  0.00    +0.030 A 
ATOM     31  C   UNL     1       3.289  -1.022  23.712  0.00  0.00    +0.030 A 
ATOM     33  C   UNL     1       4.694   1.250  22.912  0.00  0.00    +0.025 A 
ATOM     34  C   UNL     1       4.674  -0.968  23.867  0.00  0.00    +0.025 A 
ATOM     35  C   UNL     1       5.377   0.168  23.467  0.00  0.00    +0.033 A 
BRANCH  35  10
ATOM      6  O   UNL     1       7.569  -1.244  21.962  0.00  0.00    -0.276 OA
ATOM     10  N   UNL     1       6.762   0.222  23.622  0.00  0.00    -0.286 N 
ATOM     36  C   UNL     1       7.742  -0.462  22.890  0.00  0.00    +0.214 C 
ATOM     37  C   UNL     1       9.133  -0.129  23.370  0.00  0.00    +0.109 C 
ATOM     39  H   UNL     1       7.093   0.839  24.361  0.00  0.00    +0.155 HD
ENDBRANCH  35  10
ENDBRANCH   1  28
ENDBRANCH   7   1
ENDBRANCH  18   7
ENDBRANCH  12  18
BRANCH  14  19
ATOM     19  C   UNL     1      -4.742   2.594  25.981  0.00  0.00    +0.103 C 
BRANCH  19  23
ATOM      2  O   UNL     1      -6.237   1.759  24.342  0.00  0.00    -0.276 OA
ATOM      5  O   UNL     1      -1.141  -3.194  25.106  0.00  0.00    -0.276 OA
ATOM      8  N   UNL     1      -4.276   0.557  24.665  0.00  0.00    -0.298 N 
ATOM      9  N   UNL     1      -3.132  -2.029  24.830  0.00  0.00    -0.299 N 
ATOM     23  C   UNL     1      -5.159   1.605  24.921  0.00  0.00    +0.216 C 
ATOM     24  C   UNL     1      -4.609  -0.448  23.653  0.00  0.00    +0.126 C 
ATOM     25  C   UNL     1      -2.954   0.387  25.282  0.00  0.00    +0.126 C 
ATOM     26  C   UNL     1      -4.453  -1.860  24.212  0.00  0.00    +0.126 C 
ATOM     27  C   UNL     1      -2.800  -1.024  25.843  0.00  0.00    +0.126 C 
ATOM     29  C   UNL     1      -2.247  -3.076  24.572  0.00  0.00    +0.213 C 
ATOM     32  C   UNL     1      -2.699  -4.109  23.572  0.00  0.00    +0.109 C 
ENDBRANCH  19  23
ENDBRANCH  14  19
TORSDOF 8
ENDMDL
MODEL 3
REMARK VINA RESULT:       6.8      2.413      7.453
REMARK  Name = 38026845
REMARK  13 active torsions:
REMARK  status: ('A' for Active; 'I' for Inactive)
REMARK    1  A    between atoms: S_1  and  N_7
REMARK    2  A    between atoms: S_1  and  C_28
REMARK    3  A    between atoms: N_7  and  C_18
REMARK    4  A    between atoms: N_10  and  C_35
REMARK    5  A    between atoms: C_11  and  C_15
REMARK    6  A    between atoms: C_12  and  C_18
REMARK    7  A    between atoms: C_14  and  C_19
REMARK    8  A    between atoms: C_15  and  C_20
REMARK    9  A    between atoms: C_15  and  C_21
REMARK   10  A    between atoms: C_16  and  C_22
REMARK   11  A    between atoms: C_19  and  C_23
REMARK   12  A    between atoms: C_29  and  C_32
REMARK   13  A    between atoms: C_36  and  C_37
REMARK                            x       y       z     vdW  Elec       q    Type
REMARK                         _______ _______ _______ _____ _____    ______ ____
ROOT
ATOM     11  C   UNL     1      -1.960   3.589  24.922  0.00  0.00    +0.000 C 
ATOM     12  C   UNL     1      -3.271   3.790  24.121  0.00  0.00    +0.030 C 
ATOM     13  C   UNL     1      -0.782   3.336  23.967  0.00  0.00    +0.012 C 
ATOM     14  C   UNL     1      -1.007   2.097  23.081  0.00  0.00    +0.023 C 
ATOM     16  C   UNL     1      -2.392   2.089  22.465  0.00  0.00    -0.073 C 
ATOM     17  C   UNL     1      -3.387   2.862  22.935  0.00  0.00    -0.023 C 
ATOM     22  C   UNL     1      -2.594   1.205  21.266  0.00  0.00    +0.039 C 
ENDROOT
BRANCH  11  15
ATOM     15  C   UNL     1      -1.651   4.793  25.818  0.00  0.00    -0.013 C 
ATOM     20  C   UNL     1      -1.316   6.015  24.969  0.00  0.00    +0.007 C 
ATOM     21  C   UNL     1      -2.828   5.084  26.743  0.00  0.00    +0.007 C 
ENDBRANCH  11  15
BRANCH  12  18
ATOM     18  C   UNL     1      -4.499   3.622  25.023  0.00  0.00    +0.113 C 
BRANCH  18   7
ATOM      7  N   UNL     1      -5.514   2.829  24.311  0.00  0.00    -0.189 NA
ATOM     38  H   UNL     1      -6.044   3.309  23.573  0.00  0.00    +0.148 HD
BRANCH   7   1
ATOM      1  S   UNL     1      -6.250   1.495  25.074  0.00  0.00    +0.058 S 
ATOM      3  O   UNL     1      -7.337   1.009  24.246  0.00  0.00    -0.153 OA
ATOM      4  O   UNL     1      -6.484   1.816  26.469  0.00  0.00    -0.153 OA
BRANCH   1  28
ATOM     28  C   UNL     1      -4.953   0.295  25.030  0.00  0.00    +0.105 A 
ATOM     30  C   UNL     1      -4.767  -0.490  23.892  0.00  0.00    +0.030 A 
ATOM     31  C   UNL     1      -4.118   0.131  26.134  0.00  0.00    +0.030 A 
ATOM     33  C   UNL     1      -3.744  -1.437  23.857  0.00  0.00    +0.025 A 
ATOM     34  C   UNL     1      -3.095  -0.817  26.099  0.00  0.00    +0.025 A 
ATOM     35  C   UNL     1      -2.908  -1.601  24.961  0.00  0.00    +0.033 A 
BRANCH  35  10
ATOM      6  O   UNL     1      -0.106  -1.493  26.058  0.00  0.00    -0.276 OA
ATOM     10  N   UNL     1      -1.884  -2.548  24.926  0.00  0.00    -0.286 N 
ATOM     36  C   UNL     1      -0.591  -2.444  25.454  0.00  0.00    +0.214 C 
ATOM     37  C   UNL     1       0.217  -3.694  25.207  0.00  0.00    +0.109 C 
ATOM     39  H   UNL     1      -2.117  -3.421  24.456  0.00  0.00    +0.155 HD
ENDBRANCH  35  10
ENDBRANCH   1  28
ENDBRANCH   7   1
ENDBRANCH  18   7
ENDBRANCH  12  18
BRANCH  14  19
ATOM     19  C   UNL     1      -0.748   0.804  23.862  0.00  0.00    +0.103 C 
BRANCH  19  23
ATOM      2  O   UNL     1      -0.449  -1.104  22.488  0.00  0.00    -0.276 OA
ATOM      5  O   UNL     1       6.102   1.366  23.924  0.00  0.00    -0.276 OA
ATOM      8  N   UNL     1       1.449   0.158  22.936  0.00  0.00    -0.298 N 
ATOM      9  N   UNL     1       4.217   0.068  23.531  0.00  0.00    -0.299 N 
ATOM     23  C   UNL     1       0.089  -0.137  23.032  0.00  0.00    +0.216 C 
ATOM     24  C   UNL     1       2.331  -0.708  22.150  0.00  0.00    +0.126 C 
ATOM     25  C   UNL     1       2.106   1.341  23.507  0.00  0.00    +0.126 C 
ATOM     26  C   UNL     1       3.560  -1.114  22.959  0.00  0.00    +0.126 C 
ATOM     27  C   UNL     1       3.334   0.934  24.318  0.00  0.00    +0.126 C 
ATOM     29  C   UNL     1       5.576   0.365  23.433  0.00  0.00    +0.213 C 
ATOM     32  C   UNL     1       6.427  -0.619  22.671  0.00  0.00    +0.109 C 
ENDBRANCH  19  23
ENDBRANCH  14  19
TORSDOF 8
ENDMDL
MODEL 4
REMARK VINA RESULT:       6.8      2.059      7.625
REMARK  Name = 38026845
REMARK  13 active torsions:
REMARK  status: ('A' for Active; 'I' for Inactive)
REMARK    1  A    between atoms: S_1  and  N_7
REMARK    2  A    between atoms: S_1  and  C_28
REMARK    3  A    between atoms: N_7  and  C_18
REMARK    4  A    between atoms: N_10  and  C_35
REMARK    5  A    between atoms: C_11  and  C_15
REMARK    6  A    between atoms: C_12  and  C_18
REMARK    7  A    between atoms: C_14  and  C_19
REMARK    8  A    between atoms: C_15  and  C_20
REMARK    9  A    between atoms: C_15  and  C_21
REMARK   10  A    between atoms: C_16  and  C_22
REMARK   11  A    between atoms: C_19  and  C_23
REMARK   12  A    between atoms: C_29  and  C_32
REMARK   13  A    between atoms: C_36  and  C_37
REMARK                            x       y       z     vdW  Elec       q    Type
REMARK                         _______ _______ _______ _____ _____    ______ ____
ROOT
ATOM     11  C   UNL     1      -2.534  -1.345  24.213  0.00  0.00    +0.000 C 
ATOM     12  C   UNL     1      -3.320  -0.594  25.316  0.00  0.00    +0.030 C 
ATOM     13  C   UNL     1      -1.036  -1.388  24.557  0.00  0.00    +0.012 C 
ATOM     14  C   UNL     1      -0.434   0.021  24.713  0.00  0.00    +0.023 C 
ATOM     16  C   UNL     1      -1.303   0.912  25.578  0.00  0.00    -0.073 C 
ATOM     17  C   UNL     1      -2.586   0.614  25.847  0.00  0.00    -0.023 C 
ATOM     22  C   UNL     1      -0.648   2.131  26.165  0.00  0.00    +0.039 C 
ENDROOT
BRANCH  11  15
ATOM     15  C   UNL     1      -3.060  -2.770  24.009  0.00  0.00    -0.013 C 
ATOM     20  C   UNL     1      -3.217  -3.475  25.352  0.00  0.00    +0.007 C 
ATOM     21  C   UNL     1      -4.384  -2.745  23.253  0.00  0.00    +0.007 C 
ENDBRANCH  11  15
BRANCH  12  18
ATOM     18  C   UNL     1      -4.706  -0.170  24.815  0.00  0.00    +0.113 C 
BRANCH  18   7
ATOM      7  N   UNL     1      -5.477   0.381  25.940  0.00  0.00    -0.189 NA
ATOM     38  H   UNL     1      -5.897  -0.294  26.590  0.00  0.00    +0.148 HD
BRANCH   7   1
ATOM      1  S   UNL     1      -6.211   1.913  25.807  0.00  0.00    +0.058 S 
ATOM      3  O   UNL     1      -6.790   2.279  27.085  0.00  0.00    -0.153 OA
ATOM      4  O   UNL     1      -7.020   1.949  24.604  0.00  0.00    -0.153 OA
BRANCH   1  28
ATOM     28  C   UNL     1      -4.815   2.958  25.522  0.00  0.00    +0.105 A 
ATOM     30  C   UNL     1      -4.331   3.137  24.226  0.00  0.00    +0.030 A 
ATOM     31  C   UNL     1      -4.197   3.603  26.593  0.00  0.00    +0.030 A 
ATOM     33  C   UNL     1      -3.229   3.962  24.002  0.00  0.00    +0.025 A 
ATOM     34  C   UNL     1      -3.095   4.428  26.368  0.00  0.00    +0.025 A 
ATOM     35  C   UNL     1      -2.610   4.608  25.072  0.00  0.00    +0.033 A 
BRANCH  35  10
ATOM      6  O   UNL     1       0.045   4.015  23.782  0.00  0.00    -0.276 OA
ATOM     10  N   UNL     1      -1.508   5.432  24.847  0.00  0.00    -0.286 N 
ATOM     36  C   UNL     1      -0.289   5.102  24.241  0.00  0.00    +0.214 C 
ATOM     37  C   UNL     1       0.648   6.283  24.187  0.00  0.00    +0.109 C 
ATOM     39  H   UNL     1      -1.612   6.393  25.168  0.00  0.00    +0.155 HD
ENDBRANCH  35  10
ENDBRANCH   1  28
ENDBRANCH   7   1
ENDBRANCH  18   7
ENDBRANCH  12  18
BRANCH  14  19
ATOM     19  C   UNL     1      -0.177   0.666  23.347  0.00  0.00    +0.103 C 
BRANCH  19  23
ATOM      2  O   UNL     1       0.291  -1.125  21.866  0.00  0.00    -0.276 OA
ATOM      5  O   UNL     1       6.620   1.255  24.182  0.00  0.00    -0.276 OA
ATOM      8  N   UNL     1       2.113   0.107  22.612  0.00  0.00    -0.298 N 
ATOM      9  N   UNL     1       4.804  -0.017  23.489  0.00  0.00    -0.299 N 
ATOM     23  C   UNL     1       0.756  -0.202  22.539  0.00  0.00    +0.216 C 
ATOM     24  C   UNL     1       3.085  -0.690  21.858  0.00  0.00    +0.126 C 
ATOM     25  C   UNL     1       2.691   1.243  23.341  0.00  0.00    +0.126 C 
ATOM     26  C   UNL     1       4.227  -1.153  22.759  0.00  0.00    +0.126 C 
ATOM     27  C   UNL     1       3.832   0.778  24.243  0.00  0.00    +0.126 C 
ATOM     29  C   UNL     1       6.161   0.293  23.560  0.00  0.00    +0.213 C 
ATOM     32  C   UNL     1       7.101  -0.622  22.818  0.00  0.00    +0.109 C 
ENDBRANCH  19  23
ENDBRANCH  14  19
TORSDOF 8
ENDMDL
MODEL 5
REMARK VINA RESULT:       6.9      2.950      5.362
REMARK  Name = 38026845
REMARK  13 active torsions:
REMARK  status: ('A' for Active; 'I' for Inactive)
REMARK    1  A    between atoms: S_1  and  N_7
REMARK    2  A    between atoms: S_1  and  C_28
REMARK    3  A    between atoms: N_7  and  C_18
REMARK    4  A    between atoms: N_10  and  C_35
REMARK    5  A    between atoms: C_11  and  C_15
REMARK    6  A    between atoms: C_12  and  C_18
REMARK    7  A    between atoms: C_14  and  C_19
REMARK    8  A    between atoms: C_15  and  C_20
REMARK    9  A    between atoms: C_15  and  C_21
REMARK   10  A    between atoms: C_16  and  C_22
REMARK   11  A    between atoms: C_19  and  C_23
REMARK   12  A    between atoms: C_29  and  C_32
REMARK   13  A    between atoms: C_36  and  C_37
REMARK                            x       y       z     vdW  Elec       q    Type
REMARK                         _______ _______ _______ _____ _____    ______ ____
ROOT
ATOM     11  C   UNL     1      -4.473   2.740  25.196  0.00  0.00    +0.000 C 
ATOM     12  C   UNL     1      -4.602   1.403  24.425  0.00  0.00    +0.030 C 
ATOM     13  C   UNL     1      -4.115   3.883  24.232  0.00  0.00    +0.012 C 
ATOM     14  C   UNL     1      -2.794   3.621  23.485  0.00  0.00    +0.023 C 
ATOM     16  C   UNL     1      -2.735   2.216  22.921  0.00  0.00    -0.073 C 
ATOM     17  C   UNL     1      -3.560   1.241  23.344  0.00  0.00    -0.023 C 
ATOM     22  C   UNL     1      -1.736   1.967  21.825  0.00  0.00    +0.039 C 
ENDROOT
BRANCH  11  15
ATOM     15  C   UNL     1      -5.758   3.085  25.955  0.00  0.00    -0.013 C 
ATOM     20  C   UNL     1      -6.204   4.507  25.626  0.00  0.00    +0.007 C 
ATOM     21  C   UNL     1      -6.859   2.084  25.621  0.00  0.00    +0.007 C 
ENDBRANCH  11  15
BRANCH  12  18
ATOM     18  C   UNL     1      -4.536   0.206  25.380  0.00  0.00    +0.113 C 
BRANCH  18   7
ATOM      7  N   UNL     1      -4.329  -1.024  24.598  0.00  0.00    -0.189 NA
ATOM     38  H   UNL     1      -5.136  -1.379  24.072  0.00  0.00    +0.148 HD
BRANCH   7   1
ATOM      1  S   UNL     1      -3.130  -2.142  25.061  0.00  0.00    +0.058 S 
ATOM      3  O   UNL     1      -3.310  -3.372  24.316  0.00  0.00    -0.153 OA
ATOM      4  O   UNL     1      -3.042  -2.172  26.508  0.00  0.00    -0.153 OA
BRANCH   1  28
ATOM     28  C   UNL     1      -1.660  -1.358  24.471  0.00  0.00    +0.105 A 
ATOM     30  C   UNL     1      -1.069  -1.788  23.283  0.00  0.00    +0.030 A 
ATOM     31  C   UNL     1      -1.090  -0.311  25.193  0.00  0.00    +0.030 A 
ATOM     33  C   UNL     1       0.091  -1.170  22.817  0.00  0.00    +0.025 A 
ATOM     34  C   UNL     1       0.070   0.307  24.728  0.00  0.00    +0.025 A 
ATOM     35  C   UNL     1       0.662  -0.122  23.539  0.00  0.00    +0.033 A 
BRANCH  35  10
ATOM      6  O   UNL     1       3.502  -1.117  23.440  0.00  0.00    -0.276 OA
ATOM     10  N   UNL     1       1.822   0.496  23.074  0.00  0.00    -0.286 N 
ATOM     36  C   UNL     1       3.126  -0.015  23.053  0.00  0.00    +0.214 C 
ATOM     37  C   UNL     1       4.105   0.972  22.466  0.00  0.00    +0.109 C 
ATOM     39  H   UNL     1       1.694   1.436  22.705  0.00  0.00    +0.155 HD
ENDBRANCH  35  10
ENDBRANCH   1  28
ENDBRANCH   7   1
ENDBRANCH  18   7
ENDBRANCH  12  18
BRANCH  14  19
ATOM     19  C   UNL     1      -1.585   3.902  24.384  0.00  0.00    +0.103 C 
BRANCH  19  23
ATOM      2  O   UNL     1      -3.017   3.545  26.239  0.00  0.00    -0.276 OA
ATOM      5  O   UNL     1       3.603   2.114  28.522  0.00  0.00    -0.276 OA
ATOM      8  N   UNL     1      -0.800   2.904  26.502  0.00  0.00    -0.298 N 
ATOM      9  N   UNL     1       1.402   2.816  28.282  0.00  0.00    -0.299 N 
ATOM     23  C   UNL     1      -1.874   3.436  25.789  0.00  0.00    +0.216 C 
ATOM     24  C   UNL     1      -0.996   2.431  27.874  0.00  0.00    +0.126 C 
ATOM     25  C   UNL     1       0.553   2.691  25.971  0.00  0.00    +0.126 C 
ATOM     26  C   UNL     1       0.050   3.028  28.812  0.00  0.00    +0.126 C 
ATOM     27  C   UNL     1       1.598   3.289  26.909  0.00  0.00    +0.126 C 
ATOM     29  C   UNL     1       2.476   2.281  28.993  0.00  0.00    +0.213 C 
ATOM     32  C   UNL     1       2.207   1.891  30.424  0.00  0.00    +0.109 C 
ENDBRANCH  19  23
ENDBRANCH  14  19
TORSDOF 8
ENDMDL
MODEL 6
REMARK VINA RESULT:       7.0      2.394      8.016
REMARK  Name = 38026845
REMARK  13 active torsions:
REMARK  status: ('A' for Active; 'I' for Inactive)
REMARK    1  A    between atoms: S_1  and  N_7
REMARK    2  A    between atoms: S_1  and  C_28
REMARK    3  A    between atoms: N_7  and  C_18
REMARK    4  A    between atoms: N_10  and  C_35
REMARK    5  A    between atoms: C_11  and  C_15
REMARK    6  A    between atoms: C_12  and  C_18
REMARK    7  A    between atoms: C_14  and  C_19
REMARK    8  A    between atoms: C_15  and  C_20
REMARK    9  A    between atoms: C_15  and  C_21
REMARK   10  A    between atoms: C_16  and  C_22
REMARK   11  A    between atoms: C_19  and  C_23
REMARK   12  A    between atoms: C_29  and  C_32
REMARK   13  A    between atoms: C_36  and  C_37
REMARK                            x       y       z     vdW  Elec       q    Type
REMARK                         _______ _______ _______ _____ _____    ______ ____
ROOT
ATOM     11  C   UNL     1      -0.819   2.128  26.144  0.00  0.00    +0.000 C 
ATOM     12  C   UNL     1      -1.281   3.594  26.332  0.00  0.00    +0.030 C 
ATOM     13  C   UNL     1       0.508   2.079  25.370  0.00  0.00    +0.012 C 
ATOM     14  C   UNL     1       0.398   2.738  23.983  0.00  0.00    +0.023 C 
ATOM     16  C   UNL     1      -0.297   4.084  24.052  0.00  0.00    -0.073 C 
ATOM     17  C   UNL     1      -1.032   4.454  25.116  0.00  0.00    -0.023 C 
ATOM     22  C   UNL     1      -0.089   5.013  22.889  0.00  0.00    +0.039 C 
ENDROOT
BRANCH  11  15
ATOM     15  C   UNL     1      -0.665   1.403  27.485  0.00  0.00    -0.013 C 
ATOM     20  C   UNL     1      -0.538  -0.101  27.265  0.00  0.00    +0.007 C 
ATOM     21  C   UNL     1       0.542   1.942  28.245  0.00  0.00    +0.007 C 
ENDBRANCH  11  15
BRANCH  12  18
ATOM     18  C   UNL     1      -2.766   3.662  26.709  0.00  0.00    +0.113 C 
BRANCH  18   7
ATOM      7  N   UNL     1      -3.401   4.763  25.968  0.00  0.00    -0.189 NA
ATOM     38  H   UNL     1      -3.348   5.697  26.391  0.00  0.00    +0.148 HD
BRANCH   7   1
ATOM      1  S   UNL     1      -4.695   4.446  24.906  0.00  0.00    +0.058 S 
ATOM      3  O   UNL     1      -4.474   5.152  23.659  0.00  0.00    -0.153 OA
ATOM      4  O   UNL     1      -5.947   4.605  25.621  0.00  0.00    -0.153 OA
BRANCH   1  28
ATOM     28  C   UNL     1      -4.493   2.718  24.596  0.00  0.00    +0.105 A 
ATOM     30  C   UNL     1      -3.622   2.286  23.597  0.00  0.00    +0.030 A 
ATOM     31  C   UNL     1      -5.206   1.787  25.351  0.00  0.00    +0.030 A 
ATOM     33  C   UNL     1      -3.462   0.922  23.353  0.00  0.00    +0.025 A 
ATOM     34  C   UNL     1      -5.046   0.423  25.106  0.00  0.00    +0.025 A 
ATOM     35  C   UNL     1      -4.174  -0.010  24.107  0.00  0.00    +0.033 A 
BRANCH  35  10
ATOM      6  O   UNL     1      -3.167  -2.212  25.896  0.00  0.00    -0.276 OA
ATOM     10  N   UNL     1      -4.015  -1.374  23.863  0.00  0.00    -0.286 N 
ATOM     36  C   UNL     1      -3.537  -2.359  24.736  0.00  0.00    +0.214 C 
ATOM     37  C   UNL     1      -3.518  -3.721  24.088  0.00  0.00    +0.109 C 
ATOM     39  H   UNL     1      -4.282  -1.682  22.930  0.00  0.00    +0.155 HD
ENDBRANCH  35  10
ENDBRANCH   1  28
ENDBRANCH   7   1
ENDBRANCH  18   7
ENDBRANCH  12  18
BRANCH  14  19
ATOM     19  C   UNL     1      -0.303   1.811  22.984  0.00  0.00    +0.103 C 
BRANCH  19  23
ATOM      2  O   UNL     1      -0.686  -0.449  23.587  0.00  0.00    -0.276 OA
ATOM      5  O   UNL     1       6.389   0.253  22.858  0.00  0.00    -0.276 OA
ATOM      8  N   UNL     1       1.485   0.108  22.976  0.00  0.00    -0.298 N 
ATOM      9  N   UNL     1       4.234  -0.289  23.533  0.00  0.00    -0.299 N 
ATOM     23  C   UNL     1       0.139   0.387  23.211  0.00  0.00    +0.216 C 
ATOM     24  C   UNL     1       1.995  -1.251  23.175  0.00  0.00    +0.126 C 
ATOM     25  C   UNL     1       2.474   1.061  22.456  0.00  0.00    +0.126 C 
ATOM     26  C   UNL     1       3.245  -1.242  24.051  0.00  0.00    +0.126 C 
ATOM     27  C   UNL     1       3.723   1.070  23.334  0.00  0.00    +0.126 C 
ATOM     29  C   UNL     1       5.579  -0.568  23.295  0.00  0.00    +0.213 C 
ATOM     32  C   UNL     1       6.039  -1.971  23.598  0.00  0.00    +0.109 C 
ENDBRANCH  19  23
ENDBRANCH  14  19
TORSDOF 8
ENDMDL
MODEL 7
REMARK VINA RESULT:       8.4      2.695      6.712
REMARK  Name = 38026845
REMARK  13 active torsions:
REMARK  status: ('A' for Active; 'I' for Inactive)
REMARK    1  A    between atoms: S_1  and  N_7
REMARK    2  A    between atoms: S_1  and  C_28
REMARK    3  A    between atoms: N_7  and  C_18
REMARK    4  A    between atoms: N_10  and  C_35
REMARK    5  A    between atoms: C_11  and  C_15
REMARK    6  A    between atoms: C_12  and  C_18
REMARK    7  A    between atoms: C_14  and  C_19
REMARK    8  A    between atoms: C_15  and  C_20
REMARK    9  A    between atoms: C_15  and  C_21
REMARK   10  A    between atoms: C_16  and  C_22
REMARK   11  A    between atoms: C_19  and  C_23
REMARK   12  A    between atoms: C_29  and  C_32
REMARK   13  A    between atoms: C_36  and  C_37
REMARK                            x       y       z     vdW  Elec       q    Type
REMARK                         _______ _______ _______ _____ _____    ______ ____
ROOT
ATOM     11  C   UNL     1      -2.617   0.822  23.623  0.00  0.00    +0.000 C 
ATOM     12  C   UNL     1      -4.098   0.393  23.774  0.00  0.00    +0.030 C 
ATOM     13  C   UNL     1      -1.765  -0.360  23.132  0.00  0.00    +0.012 C 
ATOM     14  C   UNL     1      -1.829  -1.562  24.092  0.00  0.00    +0.023 C 
ATOM     16  C   UNL     1      -3.253  -1.879  24.503  0.00  0.00    -0.073 C 
ATOM     17  C   UNL     1      -4.256  -0.998  24.341  0.00  0.00    -0.023 C 
ATOM     22  C   UNL     1      -3.506  -3.251  25.063  0.00  0.00    +0.039 C 
ENDROOT
BRANCH  11  15
ATOM     15  C   UNL     1      -2.464   2.006  22.663  0.00  0.00    -0.013 C 
ATOM     20  C   UNL     1      -1.084   2.638  22.816  0.00  0.00    +0.007 C 
ATOM     21  C   UNL     1      -2.697   1.558  21.224  0.00  0.00    +0.007 C 
ENDBRANCH  11  15
BRANCH  12  18
ATOM     18  C   UNL     1      -4.875   1.389  24.643  0.00  0.00    +0.113 C 
BRANCH  18   7
ATOM      7  N   UNL     1      -4.817   2.720  24.017  0.00  0.00    -0.189 NA
ATOM     38  H   UNL     1      -4.580   2.753  23.019  0.00  0.00    +0.148 HD
BRANCH   7   1
ATOM      1  S   UNL     1      -4.468   4.095  24.960  0.00  0.00    +0.058 S 
ATOM      3  O   UNL     1      -5.365   4.134  26.099  0.00  0.00    -0.153 OA
ATOM      4  O   UNL     1      -4.345   5.249  24.090  0.00  0.00    -0.153 OA
BRANCH   1  28
ATOM     28  C   UNL     1      -2.847   3.722  25.556  0.00  0.00    +0.105 A 
ATOM     30  C   UNL     1      -2.616   2.538  26.256  0.00  0.00    +0.030 A 
ATOM     31  C   UNL     1      -1.798   4.612  25.327  0.00  0.00    +0.030 A 
ATOM     33  C   UNL     1      -1.337   2.243  26.726  0.00  0.00    +0.025 A 
ATOM     34  C   UNL     1      -0.518   4.317  25.797  0.00  0.00    +0.025 A 
ATOM     35  C   UNL     1      -0.287   3.133  26.497  0.00  0.00    +0.033 A 
BRANCH  35  10
ATOM      6  O   UNL     1       0.710   2.686  29.303  0.00  0.00    -0.276 OA
ATOM     10  N   UNL     1       0.992   2.838  26.967  0.00  0.00    -0.286 N 
ATOM     36  C   UNL     1       1.403   2.642  28.292  0.00  0.00    +0.214 C 
ATOM     37  C   UNL     1       2.879   2.341  28.382  0.00  0.00    +0.109 C 
ATOM     39  H   UNL     1       1.710   2.759  26.250  0.00  0.00    +0.155 HD
ENDBRANCH  35  10
ENDBRANCH   1  28
ENDBRANCH   7   1
ENDBRANCH  18   7
ENDBRANCH  12  18
BRANCH  14  19
ATOM     19  C   UNL     1      -0.941  -1.336  25.321  0.00  0.00    +0.103 C 
BRANCH  19  23
ATOM      2  O   UNL     1       0.582  -3.097  25.765  0.00  0.00    -0.276 OA
ATOM      5  O   UNL     1       4.154   1.691  21.841  0.00  0.00    -0.276 OA
ATOM      8  N   UNL     1       1.286  -1.471  24.263  0.00  0.00    -0.298 N 
ATOM      9  N   UNL     1       3.476   0.101  23.393  0.00  0.00    -0.299 N 
ATOM     23  C   UNL     1       0.373  -2.054  25.142  0.00  0.00    +0.216 C 
ATOM     24  C   UNL     1       2.587  -2.104  24.036  0.00  0.00    +0.126 C 
ATOM     25  C   UNL     1       1.040  -0.273  23.450  0.00  0.00    +0.126 C 
ATOM     26  C   UNL     1       3.722  -1.097  24.205  0.00  0.00    +0.126 C 
ATOM     27  C   UNL     1       2.174   0.734  23.621  0.00  0.00    +0.126 C 
ATOM     29  C   UNL     1       4.387   0.683  22.512  0.00  0.00    +0.213 C 
ATOM     32  C   UNL     1       5.732   0.011  22.394  0.00  0.00    +0.109 C 
ENDBRANCH  19  23
ENDBRANCH  14  19
TORSDOF 8
ENDMDL
MODEL 8
REMARK VINA RESULT:       8.8      2.467      6.682
REMARK  Name = 38026845
REMARK  13 active torsions:
REMARK  status: ('A' for Active; 'I' for Inactive)
REMARK    1  A    between atoms: S_1  and  N_7
REMARK    2  A    between atoms: S_1  and  C_28
REMARK    3  A    between atoms: N_7  and  C_18
REMARK    4  A    between atoms: N_10  and  C_35
REMARK    5  A    between atoms: C_11  and  C_15
REMARK    6  A    between atoms: C_12  and  C_18
REMARK    7  A    between atoms: C_14  and  C_19
REMARK    8  A    between atoms: C_15  and  C_20
REMARK    9  A    between atoms: C_15  and  C_21
REMARK   10  A    between atoms: C_16  and  C_22
REMARK   11  A    between atoms: C_19  and  C_23
REMARK   12  A    between atoms: C_29  and  C_32
REMARK   13  A    between atoms: C_36  and  C_37
REMARK                            x       y       z     vdW  Elec       q    Type
REMARK                         _______ _______ _______ _____ _____    ______ ____
ROOT
ATOM     11  C   UNL     1      -3.752  -1.597  23.727  0.00  0.00    +0.000 C 
ATOM     12  C   UNL     1      -3.931  -0.323  24.590  0.00  0.00    +0.030 C 
ATOM     13  C   UNL     1      -3.053  -2.700  24.537  0.00  0.00    +0.012 C 
ATOM     14  C   UNL     1      -1.669  -2.258  25.049  0.00  0.00    +0.023 C 
ATOM     16  C   UNL     1      -1.714  -0.881  25.678  0.00  0.00    -0.073 C 
ATOM     17  C   UNL     1      -2.740  -0.035  25.472  0.00  0.00    -0.023 C 
ATOM     22  C   UNL     1      -0.575  -0.514  26.588  0.00  0.00    +0.039 C 
ENDROOT
BRANCH  11  15
ATOM     15  C   UNL     1      -5.091  -2.116  23.193  0.00  0.00    -0.013 C 
ATOM     20  C   UNL     1      -5.131  -3.639  23.250  0.00  0.00    +0.007 C 
ATOM     21  C   UNL     1      -6.248  -1.515  23.985  0.00  0.00    +0.007 C 
ENDBRANCH  11  15
BRANCH  12  18
ATOM     18  C   UNL     1      -4.225   0.900  23.714  0.00  0.00    +0.113 C 
BRANCH  18   7
ATOM      7  N   UNL     1      -4.835   1.951  24.545  0.00  0.00    -0.189 NA
ATOM     38  H   UNL     1      -5.827   1.837  24.783  0.00  0.00    +0.148 HD
BRANCH   7   1
ATOM      1  S   UNL     1      -4.203   3.533  24.524  0.00  0.00    +0.058 S 
ATOM      3  O   UNL     1      -4.997   4.377  25.396  0.00  0.00    -0.153 OA
ATOM      4  O   UNL     1      -3.958   3.930  23.151  0.00  0.00    -0.153 OA
BRANCH   1  28
ATOM     28  C   UNL     1      -2.624   3.301  25.284  0.00  0.00    +0.105 A 
ATOM     30  C   UNL     1      -2.501   3.361  26.672  0.00  0.00    +0.030 A 
ATOM     31  C   UNL     1      -1.500   3.058  24.495  0.00  0.00    +0.030 A 
ATOM     33  C   UNL     1      -1.255   3.178  27.270  0.00  0.00    +0.025 A 
ATOM     34  C   UNL     1      -0.254   2.874  25.094  0.00  0.00    +0.025 A 
ATOM     35  C   UNL     1      -0.131   2.934  26.482  0.00  0.00    +0.033 A 
BRANCH  35  10
ATOM      6  O   UNL     1       0.623   2.669  29.385  0.00  0.00    -0.276 OA
ATOM     10  N   UNL     1       1.115   2.750  27.081  0.00  0.00    -0.286 N 
ATOM     36  C   UNL     1       1.411   2.635  28.445  0.00  0.00    +0.214 C 
ATOM     37  C   UNL     1       2.888   2.445  28.684  0.00  0.00    +0.109 C 
ATOM     39  H   UNL     1       1.902   2.695  26.437  0.00  0.00    +0.155 HD
ENDBRANCH  35  10
ENDBRANCH   1  28
ENDBRANCH   7   1
ENDBRANCH  18   7
ENDBRANCH  12  18
BRANCH  14  19
ATOM     19  C   UNL     1      -0.623  -2.315  23.930  0.00  0.00    +0.103 C 
BRANCH  19  23
ATOM      2  O   UNL     1      -0.938  -0.106  23.130  0.00  0.00    -0.276 OA
ATOM      5  O   UNL     1       6.089  -0.859  24.194  0.00  0.00    -0.276 OA
ATOM      8  N   UNL     1       1.196  -0.645  23.870  0.00  0.00    -0.298 N 
ATOM      9  N   UNL     1       3.972  -0.340  23.393  0.00  0.00    -0.299 N 
ATOM     23  C   UNL     1      -0.144  -0.921  23.606  0.00  0.00    +0.216 C 
ATOM     24  C   UNL     1       1.740   0.684  23.581  0.00  0.00    +0.126 C 
ATOM     25  C   UNL     1       2.147  -1.568  24.505  0.00  0.00    +0.126 C 
ATOM     26  C   UNL     1       3.022   0.583  22.759  0.00  0.00    +0.126 C 
ATOM     27  C   UNL     1       3.428  -1.670  23.681  0.00  0.00    +0.126 C 
ATOM     29  C   UNL     1       5.312  -0.064  23.660  0.00  0.00    +0.213 C 
ATOM     32  C   UNL     1       5.811   1.302  23.262  0.00  0.00    +0.109 C 
ENDBRANCH  19  23
ENDBRANCH  14  19
TORSDOF 8
ENDMDL
MODEL 9
REMARK VINA RESULT:       9.8      1.609      2.430
REMARK  Name = 38026845
REMARK  13 active torsions:
REMARK  status: ('A' for Active; 'I' for Inactive)
REMARK    1  A    between atoms: S_1  and  N_7
REMARK    2  A    between atoms: S_1  and  C_28
REMARK    3  A    between atoms: N_7  and  C_18
REMARK    4  A    between atoms: N_10  and  C_35
REMARK    5  A    between atoms: C_11  and  C_15
REMARK    6  A    between atoms: C_12  and  C_18
REMARK    7  A    between atoms: C_14  and  C_19
REMARK    8  A    between atoms: C_15  and  C_20
REMARK    9  A    between atoms: C_15  and  C_21
REMARK   10  A    between atoms: C_16  and  C_22
REMARK   11  A    between atoms: C_19  and  C_23
REMARK   12  A    between atoms: C_29  and  C_32
REMARK   13  A    between atoms: C_36  and  C_37
REMARK                            x       y       z     vdW  Elec       q    Type
REMARK                         _______ _______ _______ _____ _____    ______ ____
ROOT
ATOM     11  C   UNL     1      -1.304   0.333  25.199  0.00  0.00    +0.000 C 
ATOM     12  C   UNL     1      -0.667  -0.996  25.676  0.00  0.00    +0.030 C 
ATOM     13  C   UNL     1      -2.826   0.305  25.411  0.00  0.00    +0.012 C 
ATOM     14  C   UNL     1      -3.498  -0.857  24.655  0.00  0.00    +0.023 C 
ATOM     16  C   UNL     1      -2.760  -2.164  24.862  0.00  0.00    -0.073 C 
ATOM     17  C   UNL     1      -1.501  -2.208  25.332  0.00  0.00    -0.023 C 
ATOM     22  C   UNL     1      -3.521  -3.426  24.561  0.00  0.00    +0.039 C 
ENDROOT
BRANCH  11  15
ATOM     15  C   UNL     1      -0.702   1.543  25.922  0.00  0.00    -0.013 C 
ATOM     20  C   UNL     1       0.418   2.157  25.088  0.00  0.00    +0.007 C 
ATOM     21  C   UNL     1      -1.783   2.576  26.221  0.00  0.00    +0.007 C 
ENDBRANCH  11  15
BRANCH  12  18
ATOM     18  C   UNL     1       0.745  -1.169  25.104  0.00  0.00    +0.113 C 
BRANCH  18   7
ATOM      7  N   UNL     1       0.649  -1.447  23.662  0.00  0.00    -0.189 NA
ATOM     38  H   UNL     1       0.676  -2.434  23.377  0.00  0.00    +0.148 HD
BRANCH   7   1
ATOM      1  S   UNL     1       1.159  -0.282  22.528  0.00  0.00    +0.058 S 
ATOM      3  O   UNL     1       0.529   0.988  22.832  0.00  0.00    -0.153 OA
ATOM      4  O   UNL     1       1.063  -0.843  21.195  0.00  0.00    -0.153 OA
BRANCH   1  28
ATOM     28  C   UNL     1       2.880  -0.140  22.907  0.00  0.00    +0.105 A 
ATOM     30  C   UNL     1       3.554   1.054  22.652  0.00  0.00    +0.030 A 
ATOM     31  C   UNL     1       3.563  -1.223  23.458  0.00  0.00    +0.030 A 
ATOM     33  C   UNL     1       4.912   1.165  22.950  0.00  0.00    +0.025 A 
ATOM     34  C   UNL     1       4.921  -1.111  23.756  0.00  0.00    +0.025 A 
ATOM     35  C   UNL     1       5.596   0.083  23.502  0.00  0.00    +0.033 A 
BRANCH  35  10
ATOM      6  O   UNL     1       8.006  -1.046  22.094  0.00  0.00    -0.276 OA
ATOM     10  N   UNL     1       6.954   0.195  23.801  0.00  0.00    -0.286 N 
ATOM     36  C   UNL     1       8.040  -0.357  23.108  0.00  0.00    +0.214 C 
ATOM     37  C   UNL     1       9.355  -0.001  23.756  0.00  0.00    +0.109 C 
ATOM     39  H   UNL     1       7.173   0.747  24.627  0.00  0.00    +0.155 HD
ENDBRANCH  35  10
ENDBRANCH   1  28
ENDBRANCH   7   1
ENDBRANCH  18   7
ENDBRANCH  12  18
BRANCH  14  19
ATOM     19  C   UNL     1      -3.637  -0.537  23.163  0.00  0.00    +0.103 C 
BRANCH  19  23
ATOM      2  O   UNL     1      -2.375   1.253  22.258  0.00  0.00    -0.276 OA
ATOM      5  O   UNL     1      -7.254   4.221  26.555  0.00  0.00    -0.276 OA
ATOM      8  N   UNL     1      -4.257   1.830  23.491  0.00  0.00    -0.298 N 
ATOM      9  N   UNL     1      -5.336   3.646  25.379  0.00  0.00    -0.299 N 
ATOM     23  C   UNL     1      -3.359   0.926  22.924  0.00  0.00    +0.216 C 
ATOM     24  C   UNL     1      -4.056   3.270  23.308  0.00  0.00    +0.126 C 
ATOM     25  C   UNL     1      -5.478   1.473  24.224  0.00  0.00    +0.126 C 
ATOM     26  C   UNL     1      -4.115   4.004  24.645  0.00  0.00    +0.126 C 
ATOM     27  C   UNL     1      -5.535   2.206  25.562  0.00  0.00    +0.126 C 
ATOM     29  C   UNL     1      -6.235   4.550  25.943  0.00  0.00    +0.213 C 
ATOM     32  C   UNL     1      -5.914   6.013  25.774  0.00  0.00    +0.109 C 
ENDBRANCH  19  23
ENDBRANCH  14  19
TORSDOF 8
ENDMDL
MODEL 10
REMARK VINA RESULT:       9.8      1.759      4.623
REMARK  Name = 38026845
REMARK  13 active torsions:
REMARK  status: ('A' for Active; 'I' for Inactive)
REMARK    1  A    between atoms: S_1  and  N_7
REMARK    2  A    between atoms: S_1  and  C_28
REMARK    3  A    between atoms: N_7  and  C_18
REMARK    4  A    between atoms: N_10  and  C_35
REMARK    5  A    between atoms: C_11  and  C_15
REMARK    6  A    between atoms: C_12  and  C_18
REMARK    7  A    between atoms: C_14  and  C_19
REMARK    8  A    between atoms: C_15  and  C_20
REMARK    9  A    between atoms: C_15  and  C_21
REMARK   10  A    between atoms: C_16  and  C_22
REMARK   11  A    between atoms: C_19  and  C_23
REMARK   12  A    between atoms: C_29  and  C_32
REMARK   13  A    between atoms: C_36  and  C_37
REMARK                            x       y       z     vdW  Elec       q    Type
REMARK                         _______ _______ _______ _____ _____    ______ ____
ROOT
ATOM     11  C   UNL     1      -0.767   3.952  24.353  0.00  0.00    +0.000 C 
ATOM     12  C   UNL     1      -0.497   3.188  25.673  0.00  0.00    +0.030 C 
ATOM     13  C   UNL     1      -1.829   5.041  24.571  0.00  0.00    +0.012 C 
ATOM     14  C   UNL     1      -3.162   4.461  25.081  0.00  0.00    +0.023 C 
ATOM     16  C   UNL     1      -2.951   3.483  26.219  0.00  0.00    -0.073 C 
ATOM     17  C   UNL     1      -1.751   2.934  26.476  0.00  0.00    -0.023 C 
ATOM     22  C   UNL     1      -4.144   3.184  27.084  0.00  0.00    +0.039 C 
ENDROOT
BRANCH  11  15
ATOM     15  C   UNL     1       0.511   4.580  23.787  0.00  0.00    -0.013 C 
ATOM     20  C   UNL     1       0.414   4.709  22.270  0.00  0.00    +0.007 C 
ATOM     21  C   UNL     1       0.766   5.939  24.430  0.00  0.00    +0.007 C 
ENDBRANCH  11  15
BRANCH  12  18
ATOM     18  C   UNL     1       0.216   1.858  25.406  0.00  0.00    +0.113 C 
BRANCH  18   7
ATOM      7  N   UNL     1       0.429   1.708  23.957  0.00  0.00    -0.189 NA
ATOM     38  H   UNL     1      -0.049   2.382  23.347  0.00  0.00    +0.148 HD
BRANCH   7   1
ATOM      1  S   UNL     1       0.824   0.186  23.302  0.00  0.00    +0.058 S 
ATOM      3  O   UNL     1       0.422   0.146  21.909  0.00  0.00    -0.153 OA
ATOM      4  O   UNL     1       0.388  -0.852  24.216  0.00  0.00    -0.153 OA
BRANCH   1  28
ATOM     28  C   UNL     1       2.590   0.216  23.358  0.00  0.00    +0.105 A 
ATOM     30  C   UNL     1       3.294  -0.910  23.784  0.00  0.00    +0.030 A 
ATOM     31  C   UNL     1       3.280   1.367  22.979  0.00  0.00    +0.030 A 
ATOM     33  C   UNL     1       4.687  -0.886  23.828  0.00  0.00    +0.025 A 
ATOM     34  C   UNL     1       4.674   1.391  23.023  0.00  0.00    +0.025 A 
ATOM     35  C   UNL     1       5.378   0.264  23.448  0.00  0.00    +0.033 A 
BRANCH  35  10
ATOM      6  O   UNL     1       7.409  -1.456  22.041  0.00  0.00    -0.276 OA
ATOM     10  N   UNL     1       6.772   0.289  23.493  0.00  0.00    -0.286 N 
ATOM     36  C   UNL     1       7.674  -0.542  22.815  0.00  0.00    +0.214 C 
ATOM     37  C   UNL     1       9.106  -0.191  23.133  0.00  0.00    +0.109 C 
ATOM     39  H   UNL     1       7.174   1.002  24.097  0.00  0.00    +0.155 HD
ENDBRANCH  35  10
ENDBRANCH   1  28
ENDBRANCH   7   1
ENDBRANCH  18   7
ENDBRANCH  12  18
BRANCH  14  19
ATOM     19  C   UNL     1      -3.954   3.813  23.941  0.00  0.00    +0.103 C 
BRANCH  19  23
ATOM      2  O   UNL     1      -5.855   3.001  25.101  0.00  0.00    -0.276 OA
ATOM      5  O   UNL     1      -1.712  -2.683  23.835  0.00  0.00    -0.276 OA
ATOM      8  N   UNL     1      -4.398   1.404  24.254  0.00  0.00    -0.298 N 
ATOM      9  N   UNL     1      -3.134  -1.085  24.739  0.00  0.00    -0.299 N 
ATOM     23  C   UNL     1      -4.827   2.710  24.486  0.00  0.00    +0.216 C 
ATOM     24  C   UNL     1      -5.187   0.275  24.753  0.00  0.00    +0.126 C 
ATOM     25  C   UNL     1      -3.221   1.022  23.462  0.00  0.00    +0.126 C 
ATOM     26  C   UNL     1      -4.311  -0.703  25.530  0.00  0.00    +0.126 C 
ATOM     27  C   UNL     1      -2.344   0.044  24.241  0.00  0.00    +0.126 C 
ATOM     29  C   UNL     1      -2.706  -2.391  24.504  0.00  0.00    +0.213 C 
ATOM     32  C   UNL     1      -3.534  -3.491  25.118  0.00  0.00    +0.109 C 
ENDBRANCH  19  23
ENDBRANCH  14  19
TORSDOF 8
ENDMDL
