MODEL 1
REMARK VINA RESULT:      -5.3      0.000      0.000
REMARK  Name = 25338966
REMARK  8 active torsions:
REMARK  status: ('A' for Active; 'I' for Inactive)
REMARK    1  A    between atoms: O_1  and  C_14
REMARK    2  A    between atoms: O_1  and  C_21
REMARK    3  A    between atoms: O_4  and  C_18
REMARK    4  A    between atoms: O_4  and  C_25
REMARK    5  A    between atoms: N_6  and  C_13
REMARK    6  A    between atoms: C_8  and  C_14
REMARK    7  A    between atoms: C_13  and  C_17
REMARK    8  A    between atoms: C_15  and  C_18
REMARK                            x       y       z     vdW  Elec       q    Type
REMARK                         _______ _______ _______ _____ _____    ______ ____
ROOT
ATOM      3  O   UNL     1       2.138   1.937  23.707  0.00  0.00    -0.272 OA
ATOM      5  N   UNL     1      -0.135   1.907  24.229  0.00  0.00    -0.279 N 
ATOM      6  N   UNL     1      -3.882   2.006  24.279  0.00  0.00    -0.328 N 
ATOM      7  N   UNL     1      -3.613   4.064  25.105  0.00  0.00    -0.240 NA
ATOM      8  C   UNL     1       0.014   2.987  25.243  0.00  0.00    +0.191 C 
ATOM      9  C   UNL     1      -1.084   4.070  25.192  0.00  0.00    +0.091 C 
ATOM     10  C   UNL     1      -2.537   2.198  24.401  0.00  0.00    +0.059 A 
ATOM     11  C   UNL     1      -1.462   1.246  24.072  0.00  0.00    +0.164 C 
ATOM     12  C   UNL     1      -2.400   3.463  24.912  0.00  0.00    +0.066 A 
ATOM     15  C   UNL     1       1.023   1.421  23.603  0.00  0.00    +0.254 C 
ATOM     16  C   UNL     1      -4.487   3.158  24.716  0.00  0.00    +0.200 A 
ENDROOT
BRANCH   8  14
ATOM      2  O   UNL     1      -0.732   1.440  26.936  0.00  0.00    -0.249 OA
ATOM     14  C   UNL     1       0.064   2.298  26.577  0.00  0.00    +0.328 C 
BRANCH  14   1
ATOM      1  O   UNL     1       1.117   2.778  27.299  0.00  0.00    -0.467 OA
ATOM     21  C   UNL     1       1.130   2.415  28.683  0.00  0.00    +0.280 C 
ENDBRANCH  14   1
ENDBRANCH   8  14
BRANCH   6  13
ATOM     13  C   UNL     1      -4.555   0.826  23.793  0.00  0.00    +0.158 C 
BRANCH  13  17
ATOM     17  C   UNL     1      -4.078  -0.447  24.447  0.00  0.00    -0.028 A 
ATOM     19  C   UNL     1      -4.073  -1.641  23.726  0.00  0.00    +0.005 A 
ATOM     20  C   UNL     1      -3.640  -0.429  25.771  0.00  0.00    +0.005 A 
ATOM     22  C   UNL     1      -3.632  -2.818  24.329  0.00  0.00    +0.000 A 
ATOM     23  C   UNL     1      -3.198  -1.606  26.374  0.00  0.00    +0.000 A 
ATOM     24  C   UNL     1      -3.194  -2.801  25.654  0.00  0.00    +0.000 A 
ENDBRANCH  13  17
ENDBRANCH   6  13
BRANCH  15  18
ATOM     18  C   UNL     1       0.856   0.188  22.749  0.00  0.00    +0.324 C 
BRANCH  18   4
ATOM      4  O   UNL     1       2.030   0.068  21.985  0.00  0.00    -0.483 OA
BRANCH   4  25
ATOM     25  C   UNL     1       3.207  -0.160  22.664  0.00  0.00    +0.121 A 
ATOM     26  C   UNL     1       4.221   0.796  22.643  0.00  0.00    +0.045 A 
ATOM     27  C   UNL     1       3.383  -1.348  23.373  0.00  0.00    +0.045 A 
ATOM     28  C   UNL     1       5.412   0.566  23.330  0.00  0.00    +0.004 A 
ATOM     29  C   UNL     1       4.574  -1.580  24.061  0.00  0.00    +0.004 A 
ATOM     30  C   UNL     1       5.589  -0.623  24.040  0.00  0.00    +0.000 A 
ENDBRANCH   4  25
ENDBRANCH  18   4
ENDBRANCH  15  18
TORSDOF 7
ENDMDL
MODEL 2
REMARK VINA RESULT:      -3.6      2.170      4.784
REMARK  Name = 25338966
REMARK  8 active torsions:
REMARK  status: ('A' for Active; 'I' for Inactive)
REMARK    1  A    between atoms: O_1  and  C_14
REMARK    2  A    between atoms: O_1  and  C_21
REMARK    3  A    between atoms: O_4  and  C_18
REMARK    4  A    between atoms: O_4  and  C_25
REMARK    5  A    between atoms: N_6  and  C_13
REMARK    6  A    between atoms: C_8  and  C_14
REMARK    7  A    between atoms: C_13  and  C_17
REMARK    8  A    between atoms: C_15  and  C_18
REMARK                            x       y       z     vdW  Elec       q    Type
REMARK                         _______ _______ _______ _____ _____    ______ ____
ROOT
ATOM      3  O   UNL     1       0.262  -1.986  25.285  0.00  0.00    -0.272 OA
ATOM      5  N   UNL     1      -1.635  -0.717  24.806  0.00  0.00    -0.279 N 
ATOM      6  N   UNL     1      -4.340   1.865  24.528  0.00  0.00    -0.328 N 
ATOM      7  N   UNL     1      -5.443   0.569  25.973  0.00  0.00    -0.240 NA
ATOM      8  C   UNL     1      -2.554  -1.782  25.294  0.00  0.00    +0.191 C 
ATOM      9  C   UNL     1      -3.718  -1.273  26.169  0.00  0.00    +0.091 C 
ATOM     10  C   UNL     1      -3.541   0.784  24.763  0.00  0.00    +0.059 A 
ATOM     11  C   UNL     1      -2.217   0.503  24.178  0.00  0.00    +0.164 C 
ATOM     12  C   UNL     1      -4.241   0.005  25.647  0.00  0.00    +0.066 A 
ATOM     15  C   UNL     1      -0.259  -0.989  24.778  0.00  0.00    +0.254 C 
ATOM     16  C   UNL     1      -5.474   1.688  25.280  0.00  0.00    +0.200 A 
ENDROOT
BRANCH   8  14
ATOM      2  O   UNL     1      -2.365  -3.280  23.414  0.00  0.00    -0.249 OA
ATOM     14  C   UNL     1      -3.043  -2.500  24.068  0.00  0.00    +0.328 C 
BRANCH  14   1
ATOM      1  O   UNL     1      -4.336  -2.144  23.817  0.00  0.00    -0.467 OA
ATOM     21  C   UNL     1      -5.150  -3.162  23.226  0.00  0.00    +0.280 C 
ENDBRANCH  14   1
ENDBRANCH   8  14
BRANCH   6  13
ATOM     13  C   UNL     1      -4.064   2.982  23.657  0.00  0.00    +0.158 C 
BRANCH  13  17
ATOM     17  C   UNL     1      -2.834   3.760  24.054  0.00  0.00    -0.028 A 
ATOM     19  C   UNL     1      -1.581   3.368  23.585  0.00  0.00    +0.005 A 
ATOM     20  C   UNL     1      -2.952   4.872  24.887  0.00  0.00    +0.005 A 
ATOM     22  C   UNL     1      -0.443   4.087  23.951  0.00  0.00    +0.000 A 
ATOM     23  C   UNL     1      -1.814   5.591  25.253  0.00  0.00    +0.000 A 
ATOM     24  C   UNL     1      -0.560   5.198  24.786  0.00  0.00    +0.000 A 
ENDBRANCH  13  17
ENDBRANCH   6  13
BRANCH  15  18
ATOM     18  C   UNL     1       0.611   0.026  24.080  0.00  0.00    +0.324 C 
BRANCH  18   4
ATOM      4  O   UNL     1       1.446  -0.695  23.206  0.00  0.00    -0.483 OA
BRANCH   4  25
ATOM     25  C   UNL     1       2.797  -0.435  23.263  0.00  0.00    +0.121 A 
ATOM     26  C   UNL     1       3.669  -1.389  23.784  0.00  0.00    +0.045 A 
ATOM     27  C   UNL     1       3.293   0.783  22.797  0.00  0.00    +0.045 A 
ATOM     28  C   UNL     1       5.038  -1.127  23.842  0.00  0.00    +0.004 A 
ATOM     29  C   UNL     1       4.661   1.046  22.855  0.00  0.00    +0.004 A 
ATOM     30  C   UNL     1       5.534   0.092  23.377  0.00  0.00    +0.000 A 
ENDBRANCH   4  25
ENDBRANCH  18   4
ENDBRANCH  15  18
TORSDOF 7
ENDMDL
MODEL 3
REMARK VINA RESULT:      -3.5      1.815      2.565
REMARK  Name = 25338966
REMARK  8 active torsions:
REMARK  status: ('A' for Active; 'I' for Inactive)
REMARK    1  A    between atoms: O_1  and  C_14
REMARK    2  A    between atoms: O_1  and  C_21
REMARK    3  A    between atoms: O_4  and  C_18
REMARK    4  A    between atoms: O_4  and  C_25
REMARK    5  A    between atoms: N_6  and  C_13
REMARK    6  A    between atoms: C_8  and  C_14
REMARK    7  A    between atoms: C_13  and  C_17
REMARK    8  A    between atoms: C_15  and  C_18
REMARK                            x       y       z     vdW  Elec       q    Type
REMARK                         _______ _______ _______ _____ _____    ______ ____
ROOT
ATOM      3  O   UNL     1       0.273   3.109  23.157  0.00  0.00    -0.272 OA
ATOM      5  N   UNL     1      -1.634   2.333  24.252  0.00  0.00    -0.279 N 
ATOM      6  N   UNL     1      -4.732   0.560  25.398  0.00  0.00    -0.328 N 
ATOM      7  N   UNL     1      -5.808   2.324  24.553  0.00  0.00    -0.240 NA
ATOM      8  C   UNL     1      -2.286   3.670  24.208  0.00  0.00    +0.191 C 
ATOM      9  C   UNL     1      -3.778   3.643  23.815  0.00  0.00    +0.091 C 
ATOM     10  C   UNL     1      -3.771   1.410  24.936  0.00  0.00    +0.059 A 
ATOM     11  C   UNL     1      -2.310   1.226  24.988  0.00  0.00    +0.164 C 
ATOM     12  C   UNL     1      -4.456   2.484  24.427  0.00  0.00    +0.066 A 
ATOM     15  C   UNL     1      -0.322   2.219  23.770  0.00  0.00    +0.254 C 
ATOM     16  C   UNL     1      -5.942   1.155  25.144  0.00  0.00    +0.200 A 
ENDROOT
BRANCH   8  14
ATOM      2  O   UNL     1      -2.874   4.199  26.487  0.00  0.00    -0.249 OA
ATOM     14  C   UNL     1      -2.073   4.279  25.565  0.00  0.00    +0.328 C 
BRANCH  14   1
ATOM      1  O   UNL     1      -0.868   4.918  25.593  0.00  0.00    -0.467 OA
ATOM     21  C   UNL     1      -0.680   5.921  24.588  0.00  0.00    +0.280 C 
ENDBRANCH  14   1
ENDBRANCH   8  14
BRANCH   6  13
ATOM     13  C   UNL     1      -4.533  -0.719  26.037  0.00  0.00    +0.158 C 
BRANCH  13  17
ATOM     17  C   UNL     1      -3.464  -1.556  25.380  0.00  0.00    -0.028 A 
ATOM     19  C   UNL     1      -2.146  -1.484  25.831  0.00  0.00    +0.005 A 
ATOM     20  C   UNL     1      -3.794  -2.402  24.321  0.00  0.00    +0.005 A 
ATOM     22  C   UNL     1      -1.158  -2.258  25.224  0.00  0.00    +0.000 A 
ATOM     23  C   UNL     1      -2.806  -3.176  23.714  0.00  0.00    +0.000 A 
ATOM     24  C   UNL     1      -1.487  -3.104  24.165  0.00  0.00    +0.000 A 
ENDBRANCH  13  17
ENDBRANCH   6  13
BRANCH  15  18
ATOM     18  C   UNL     1       0.377   0.906  24.029  0.00  0.00    +0.324 C 
BRANCH  18   4
ATOM      4  O   UNL     1       1.149   0.631  22.886  0.00  0.00    -0.483 OA
BRANCH   4  25
ATOM     25  C   UNL     1       2.469   0.289  23.082  0.00  0.00    +0.121 A 
ATOM     26  C   UNL     1       2.800  -0.997  23.507  0.00  0.00    +0.045 A 
ATOM     27  C   UNL     1       3.474   1.229  22.853  0.00  0.00    +0.045 A 
ATOM     28  C   UNL     1       4.137  -1.344  23.705  0.00  0.00    +0.004 A 
ATOM     29  C   UNL     1       4.810   0.883  23.051  0.00  0.00    +0.004 A 
ATOM     30  C   UNL     1       5.142  -0.403  23.477  0.00  0.00    +0.000 A 
ENDBRANCH   4  25
ENDBRANCH  18   4
ENDBRANCH  15  18
TORSDOF 7
ENDMDL
MODEL 4
REMARK VINA RESULT:      -3.2      2.571      6.040
REMARK  Name = 25338966
REMARK  8 active torsions:
REMARK  status: ('A' for Active; 'I' for Inactive)
REMARK    1  A    between atoms: O_1  and  C_14
REMARK    2  A    between atoms: O_1  and  C_21
REMARK    3  A    between atoms: O_4  and  C_18
REMARK    4  A    between atoms: O_4  and  C_25
REMARK    5  A    between atoms: N_6  and  C_13
REMARK    6  A    between atoms: C_8  and  C_14
REMARK    7  A    between atoms: C_13  and  C_17
REMARK    8  A    between atoms: C_15  and  C_18
REMARK                            x       y       z     vdW  Elec       q    Type
REMARK                         _______ _______ _______ _____ _____    ______ ____
ROOT
ATOM      3  O   UNL     1      -5.718   0.820  25.268  0.00  0.00    -0.272 OA
ATOM      5  N   UNL     1      -3.538   1.288  24.582  0.00  0.00    -0.279 N 
ATOM      6  N   UNL     1       0.152   1.396  23.929  0.00  0.00    -0.328 N 
ATOM      7  N   UNL     1       0.165   3.037  25.443  0.00  0.00    -0.240 NA
ATOM      8  C   UNL     1      -3.590   2.671  25.129  0.00  0.00    +0.191 C 
ATOM      9  C   UNL     1      -2.324   3.105  25.897  0.00  0.00    +0.091 C 
ATOM     10  C   UNL     1      -1.146   1.582  24.305  0.00  0.00    +0.059 A 
ATOM     11  C   UNL     1      -2.335   0.864  23.811  0.00  0.00    +0.164 C 
ATOM     12  C   UNL     1      -1.111   2.595  25.229  0.00  0.00    +0.066 A 
ATOM     15  C   UNL     1      -4.701   0.506  24.643  0.00  0.00    +0.254 C 
ATOM     16  C   UNL     1       0.903   2.296  24.643  0.00  0.00    +0.200 A 
ENDROOT
BRANCH   8  14
ATOM      2  O   UNL     1      -3.510   3.339  22.813  0.00  0.00    -0.249 OA
ATOM     14  C   UNL     1      -3.875   3.569  23.959  0.00  0.00    +0.328 C 
BRANCH  14   1
ATOM      1  O   UNL     1      -4.588   4.653  24.379  0.00  0.00    -0.467 OA
ATOM     21  C   UNL     1      -5.578   4.388  25.378  0.00  0.00    +0.280 C 
ENDBRANCH  14   1
ENDBRANCH   8  14
BRANCH   6  13
ATOM     13  C   UNL     1       0.655   0.446  22.967  0.00  0.00    +0.158 C 
BRANCH  13  17
ATOM     17  C   UNL     1       2.141   0.213  23.076  0.00  0.00    -0.028 A 
ATOM     19  C   UNL     1       3.033   1.224  22.719  0.00  0.00    +0.005 A 
ATOM     20  C   UNL     1       2.623  -1.013  23.536  0.00  0.00    +0.005 A 
ATOM     22  C   UNL     1       4.407   1.009  22.820  0.00  0.00    +0.000 A 
ATOM     23  C   UNL     1       3.997  -1.227  23.637  0.00  0.00    +0.000 A 
ATOM     24  C   UNL     1       4.889  -0.216  23.279  0.00  0.00    +0.000 A 
ENDBRANCH  13  17
ENDBRANCH   6  13
BRANCH  15  18
ATOM     18  C   UNL     1      -4.672  -0.801  23.888  0.00  0.00    +0.324 C 
BRANCH  18   4
ATOM      4  O   UNL     1      -4.254  -1.783  24.804  0.00  0.00    -0.483 OA
BRANCH   4  25
ATOM     25  C   UNL     1      -2.912  -1.837  25.106  0.00  0.00    +0.121 A 
ATOM     26  C   UNL     1      -2.041  -2.556  24.289  0.00  0.00    +0.045 A 
ATOM     27  C   UNL     1      -2.423  -1.170  26.230  0.00  0.00    +0.045 A 
ATOM     28  C   UNL     1      -0.681  -2.611  24.594  0.00  0.00    +0.004 A 
ATOM     29  C   UNL     1      -1.063  -1.225  26.536  0.00  0.00    +0.004 A 
ATOM     30  C   UNL     1      -0.192  -1.945  25.718  0.00  0.00    +0.000 A 
ENDBRANCH   4  25
ENDBRANCH  18   4
ENDBRANCH  15  18
TORSDOF 7
ENDMDL
MODEL 5
REMARK VINA RESULT:      -2.9     14.820     17.891
REMARK  Name = 25338966
REMARK  8 active torsions:
REMARK  status: ('A' for Active; 'I' for Inactive)
REMARK    1  A    between atoms: O_1  and  C_14
REMARK    2  A    between atoms: O_1  and  C_21
REMARK    3  A    between atoms: O_4  and  C_18
REMARK    4  A    between atoms: O_4  and  C_25
REMARK    5  A    between atoms: N_6  and  C_13
REMARK    6  A    between atoms: C_8  and  C_14
REMARK    7  A    between atoms: C_13  and  C_17
REMARK    8  A    between atoms: C_15  and  C_18
REMARK                            x       y       z     vdW  Elec       q    Type
REMARK                         _______ _______ _______ _____ _____    ______ ____
ROOT
ATOM      3  O   UNL     1      -4.219 -10.747  13.340  0.00  0.00    -0.272 OA
ATOM      5  N   UNL     1      -6.211 -10.353  12.191  0.00  0.00    -0.279 N 
ATOM      6  N   UNL     1      -9.583 -10.481  10.558  0.00  0.00    -0.328 N 
ATOM      7  N   UNL     1      -8.430 -10.781   8.669  0.00  0.00    -0.240 NA
ATOM      8  C   UNL     1      -5.495 -10.008  10.932  0.00  0.00    +0.191 C 
ATOM      9  C   UNL     1      -6.105 -10.627   9.657  0.00  0.00    +0.091 C 
ATOM     10  C   UNL     1      -8.264 -10.427  10.900  0.00  0.00    +0.059 A 
ATOM     11  C   UNL     1      -7.693 -10.203  12.241  0.00  0.00    +0.164 C 
ATOM     12  C   UNL     1      -7.580 -10.610   9.726  0.00  0.00    +0.066 A 
ATOM     15  C   UNL     1      -5.446 -10.616  13.338  0.00  0.00    +0.254 C 
ATOM     16  C   UNL     1      -9.631 -10.695   9.204  0.00  0.00    +0.200 A 
ENDROOT
BRANCH   8  14
ATOM      2  O   UNL     1      -5.885  -7.776  11.759  0.00  0.00    -0.249 OA
ATOM     14  C   UNL     1      -5.466  -8.507  10.871  0.00  0.00    +0.328 C 
BRANCH  14   1
ATOM      1  O   UNL     1      -4.909  -8.110   9.691  0.00  0.00    -0.467 OA
ATOM     21  C   UNL     1      -3.559  -8.533   9.475  0.00  0.00    +0.280 C 
ENDBRANCH  14   1
ENDBRANCH   8  14
BRANCH   6  13
ATOM     13  C   UNL     1     -10.719 -10.336  11.435  0.00  0.00    +0.158 C 
BRANCH  13  17
ATOM     17  C   UNL     1     -10.352  -9.846  12.814  0.00  0.00    -0.028 A 
ATOM     19  C   UNL     1     -10.531  -8.503  13.146  0.00  0.00    +0.005 A 
ATOM     20  C   UNL     1      -9.835 -10.735  13.755  0.00  0.00    +0.005 A 
ATOM     22  C   UNL     1     -10.192  -8.049  14.421  0.00  0.00    +0.000 A 
ATOM     23  C   UNL     1      -9.496 -10.282  15.029  0.00  0.00    +0.000 A 
ATOM     24  C   UNL     1      -9.674  -8.939  15.362  0.00  0.00    +0.000 A 
ENDBRANCH  13  17
ENDBRANCH   6  13
BRANCH  15  18
ATOM     18  C   UNL     1      -6.206 -10.747  14.635  0.00  0.00    +0.324 C 
BRANCH  18   4
ATOM      4  O   UNL     1      -5.340 -10.307  15.653  0.00  0.00    -0.483 OA
BRANCH   4  25
ATOM     25  C   UNL     1      -5.763 -10.464  16.954  0.00  0.00    +0.121 A 
ATOM     26  C   UNL     1      -7.125 -10.548  17.240  0.00  0.00    +0.045 A 
ATOM     27  C   UNL     1      -4.828 -10.539  17.986  0.00  0.00    +0.045 A 
ATOM     28  C   UNL     1      -7.554 -10.707  18.558  0.00  0.00    +0.004 A 
ATOM     29  C   UNL     1      -5.255 -10.697  19.305  0.00  0.00    +0.004 A 
ATOM     30  C   UNL     1      -6.618 -10.781  19.591  0.00  0.00    +0.000 A 
ENDBRANCH   4  25
ENDBRANCH  18   4
ENDBRANCH  15  18
TORSDOF 7
ENDMDL
MODEL 6
REMARK VINA RESULT:      -1.6      2.710      6.013
REMARK  Name = 25338966
REMARK  8 active torsions:
REMARK  status: ('A' for Active; 'I' for Inactive)
REMARK    1  A    between atoms: O_1  and  C_14
REMARK    2  A    between atoms: O_1  and  C_21
REMARK    3  A    between atoms: O_4  and  C_18
REMARK    4  A    between atoms: O_4  and  C_25
REMARK    5  A    between atoms: N_6  and  C_13
REMARK    6  A    between atoms: C_8  and  C_14
REMARK    7  A    between atoms: C_13  and  C_17
REMARK    8  A    between atoms: C_15  and  C_18
REMARK                            x       y       z     vdW  Elec       q    Type
REMARK                         _______ _______ _______ _____ _____    ______ ____
ROOT
ATOM      3  O   UNL     1      -6.458   2.260  25.012  0.00  0.00    -0.272 OA
ATOM      5  N   UNL     1      -4.161   2.608  24.808  0.00  0.00    -0.279 N 
ATOM      6  N   UNL     1      -0.484   3.157  25.287  0.00  0.00    -0.328 N 
ATOM      7  N   UNL     1      -0.953   5.295  24.843  0.00  0.00    -0.240 NA
ATOM      8  C   UNL     1      -4.351   3.849  24.010  0.00  0.00    +0.191 C 
ATOM      9  C   UNL     1      -3.432   5.020  24.416  0.00  0.00    +0.091 C 
ATOM     10  C   UNL     1      -1.821   3.210  25.023  0.00  0.00    +0.059 A 
ATOM     11  C   UNL     1      -2.779   2.090  25.014  0.00  0.00    +0.164 C 
ATOM     12  C   UNL     1      -2.081   4.528  24.751  0.00  0.00    +0.066 A 
ATOM     15  C   UNL     1      -5.298   1.868  25.166  0.00  0.00    +0.254 C 
ATOM     16  C   UNL     1      -0.006   4.437  25.166  0.00  0.00    +0.200 A 
ENDROOT
BRANCH   8  14
ATOM      2  O   UNL     1      -4.526   4.126  21.620  0.00  0.00    -0.249 OA
ATOM     14  C   UNL     1      -4.156   3.453  22.574  0.00  0.00    +0.328 C 
BRANCH  14   1
ATOM      1  O   UNL     1      -3.514   2.252  22.516  0.00  0.00    -0.467 OA
ATOM     21  C   UNL     1      -2.534   2.128  21.479  0.00  0.00    +0.280 C 
ENDBRANCH  14   1
ENDBRANCH   8  14
BRANCH   6  13
ATOM     13  C   UNL     1       0.294   1.989  25.624  0.00  0.00    +0.158 C 
BRANCH  13  17
ATOM     17  C   UNL     1       0.754   1.208  24.418  0.00  0.00    -0.028 A 
ATOM     19  C   UNL     1      -0.098   0.276  23.826  0.00  0.00    +0.005 A 
ATOM     20  C   UNL     1       2.030   1.419  23.896  0.00  0.00    +0.005 A 
ATOM     22  C   UNL     1       0.326  -0.446  22.711  0.00  0.00    +0.000 A 
ATOM     23  C   UNL     1       2.454   0.696  22.781  0.00  0.00    +0.000 A 
ATOM     24  C   UNL     1       1.602  -0.236  22.189  0.00  0.00    +0.000 A 
ENDBRANCH  13  17
ENDBRANCH   6  13
BRANCH  15  18
ATOM     18  C   UNL     1      -5.051   0.513  25.782  0.00  0.00    +0.324 C 
BRANCH  18   4
ATOM      4  O   UNL     1      -4.947  -0.399  24.715  0.00  0.00    -0.483 OA
BRANCH   4  25
ATOM     25  C   UNL     1      -3.864  -1.249  24.714  0.00  0.00    +0.121 A 
ATOM     26  C   UNL     1      -2.771  -0.989  25.540  0.00  0.00    +0.045 A 
ATOM     27  C   UNL     1      -3.861  -2.372  23.886  0.00  0.00    +0.045 A 
ATOM     28  C   UNL     1      -1.674  -1.850  25.539  0.00  0.00    +0.004 A 
ATOM     29  C   UNL     1      -2.764  -3.234  23.884  0.00  0.00    +0.004 A 
ATOM     30  C   UNL     1      -1.670  -2.973  24.711  0.00  0.00    +0.000 A 
ENDBRANCH   4  25
ENDBRANCH  18   4
ENDBRANCH  15  18
TORSDOF 7
ENDMDL
MODEL 7
REMARK VINA RESULT:      -1.5      2.585      6.214
REMARK  Name = 25338966
REMARK  8 active torsions:
REMARK  status: ('A' for Active; 'I' for Inactive)
REMARK    1  A    between atoms: O_1  and  C_14
REMARK    2  A    between atoms: O_1  and  C_21
REMARK    3  A    between atoms: O_4  and  C_18
REMARK    4  A    between atoms: O_4  and  C_25
REMARK    5  A    between atoms: N_6  and  C_13
REMARK    6  A    between atoms: C_8  and  C_14
REMARK    7  A    between atoms: C_13  and  C_17
REMARK    8  A    between atoms: C_15  and  C_18
REMARK                            x       y       z     vdW  Elec       q    Type
REMARK                         _______ _______ _______ _____ _____    ______ ____
ROOT
ATOM      3  O   UNL     1      -5.914   3.525  25.855  0.00  0.00    -0.272 OA
ATOM      5  N   UNL     1      -3.719   2.894  25.383  0.00  0.00    -0.279 N 
ATOM      6  N   UNL     1      -0.360   1.252  25.106  0.00  0.00    -0.328 N 
ATOM      7  N   UNL     1       0.291   2.800  26.578  0.00  0.00    -0.240 NA
ATOM      8  C   UNL     1      -3.167   4.179  25.892  0.00  0.00    +0.191 C 
ATOM      9  C   UNL     1      -1.910   4.033  26.775  0.00  0.00    +0.091 C 
ATOM     10  C   UNL     1      -1.449   2.037  25.344  0.00  0.00    +0.059 A 
ATOM     11  C   UNL     1      -2.791   1.915  24.748  0.00  0.00    +0.164 C 
ATOM     12  C   UNL     1      -1.022   2.979  26.245  0.00  0.00    +0.066 A 
ATOM     15  C   UNL     1      -5.112   2.739  25.343  0.00  0.00    +0.254 C 
ATOM     16  C   UNL     1       0.663   1.751  25.873  0.00  0.00    +0.200 A 
ENDROOT
BRANCH   8  14
ATOM      2  O   UNL     1      -3.602   5.013  23.672  0.00  0.00    -0.249 OA
ATOM     14  C   UNL     1      -2.908   5.028  24.680  0.00  0.00    +0.328 C 
BRANCH  14   1
ATOM      1  O   UNL     1      -1.801   5.797  24.890  0.00  0.00    -0.467 OA
ATOM     21  C   UNL     1      -0.629   5.394  24.175  0.00  0.00    +0.280 C 
ENDBRANCH  14   1
ENDBRANCH   8  14
BRANCH   6  13
ATOM     13  C   UNL     1      -0.279   0.115  24.221  0.00  0.00    +0.158 C 
BRANCH  13  17
ATOM     17  C   UNL     1       0.919   0.154  23.306  0.00  0.00    -0.028 A 
ATOM     19  C   UNL     1       0.895  -0.540  22.096  0.00  0.00    +0.005 A 
ATOM     20  C   UNL     1       2.051   0.884  23.669  0.00  0.00    +0.005 A 
ATOM     22  C   UNL     1       2.003  -0.504  21.249  0.00  0.00    +0.000 A 
ATOM     23  C   UNL     1       3.158   0.920  22.822  0.00  0.00    +0.000 A 
ATOM     24  C   UNL     1       3.135   0.225  21.613  0.00  0.00    +0.000 A 
ENDBRANCH  13  17
ENDBRANCH   6  13
BRANCH  15  18
ATOM     18  C   UNL     1      -5.631   1.518  24.624  0.00  0.00    +0.324 C 
BRANCH  18   4
ATOM      4  O   UNL     1      -5.495   0.440  25.516  0.00  0.00    -0.483 OA
BRANCH   4  25
ATOM     25  C   UNL     1      -4.625  -0.567  25.164  0.00  0.00    +0.121 A 
ATOM     26  C   UNL     1      -4.669  -1.110  23.881  0.00  0.00    +0.045 A 
ATOM     27  C   UNL     1      -3.697  -1.043  26.091  0.00  0.00    +0.045 A 
ATOM     28  C   UNL     1      -3.787  -2.130  23.523  0.00  0.00    +0.004 A 
ATOM     29  C   UNL     1      -2.815  -2.063  25.734  0.00  0.00    +0.004 A 
ATOM     30  C   UNL     1      -2.859  -2.606  24.450  0.00  0.00    +0.000 A 
ENDBRANCH   4  25
ENDBRANCH  18   4
ENDBRANCH  15  18
TORSDOF 7
ENDMDL
