MODEL 1
REMARK VINA RESULT:       6.9      0.000      0.000
REMARK  Name = 40776861
REMARK  7 active torsions:
REMARK  status: ('A' for Active; 'I' for Inactive)
REMARK    1  A    between atoms: N_7  and  C_17
REMARK    2  A    between atoms: N_8  and  C_18
REMARK    3  A    between atoms: N_9  and  C_24
REMARK    4  A    between atoms: C_11  and  C_17
REMARK    5  A    between atoms: C_12  and  C_18
REMARK    6  A    between atoms: C_23  and  C_25
REMARK    7  A    between atoms: C_35  and  C_36
REMARK                            x       y       z     vdW  Elec       q    Type
REMARK                         _______ _______ _______ _____ _____    ______ ____
ROOT
ATOM      6  N   UNL     1      -4.419   2.715  25.831  0.00  0.00    -0.298 NA
ATOM     10  C   UNL     1      -5.674   1.334  24.018  0.00  0.00    -0.003 C 
ATOM     11  C   UNL     1      -4.705   0.437  24.823  0.00  0.00    +0.020 C 
ATOM     12  C   UNL     1      -4.278   3.370  24.503  0.00  0.00    +0.074 C 
ATOM     13  C   UNL     1      -4.886   2.495  23.384  0.00  0.00    +0.024 C 
ATOM     14  C   UNL     1      -3.887   1.331  25.781  0.00  0.00    +0.089 C 
ATOM     15  C   UNL     1      -6.658   1.949  25.030  0.00  0.00    +0.019 C 
ATOM     16  C   UNL     1      -5.866   2.642  26.153  0.00  0.00    +0.085 C 
ENDROOT
BRANCH  11  17
ATOM     17  C   UNL     1      -3.800  -0.417  23.939  0.00  0.00    +0.089 C 
BRANCH  17   7
ATOM      7  N   UNL     1      -2.395  -0.058  24.128  0.00  0.00    -0.299 NA
ATOM      9  N   UNL     1       0.407  -0.114  23.579  0.00  0.00    -0.327 N 
ATOM     19  C   UNL     1      -1.861   0.586  22.922  0.00  0.00    +0.103 C 
ATOM     20  C   UNL     1      -1.599  -1.248  24.453  0.00  0.00    +0.103 C 
ATOM     21  C   UNL     1      -0.407   1.018  23.126  0.00  0.00    +0.120 C 
ATOM     22  C   UNL     1      -0.136  -0.876  24.709  0.00  0.00    +0.120 C 
BRANCH   9  24
ATOM      1  F   UNL     1       5.897   0.034  22.941  0.00  0.00    -0.205 F 
ATOM     24  C   UNL     1       1.797  -0.077  23.417  0.00  0.00    +0.030 A 
ATOM     26  C   UNL     1       2.415   1.087  22.958  0.00  0.00    +0.026 A 
ATOM     27  C   UNL     1       2.564  -1.203  23.715  0.00  0.00    +0.026 A 
ATOM     30  C   UNL     1       3.799   1.124  22.799  0.00  0.00    +0.040 A 
ATOM     31  C   UNL     1       3.950  -1.166  23.554  0.00  0.00    +0.040 A 
ATOM     32  C   UNL     1       4.567  -0.002  23.096  0.00  0.00    +0.124 A 
ENDBRANCH   9  24
ENDBRANCH  17   7
ENDBRANCH  11  17
BRANCH  12  18
ATOM     18  C   UNL     1      -2.830   3.761  24.195  0.00  0.00    +0.123 C 
BRANCH  18   8
ATOM      5  O   UNL     1       0.032   3.535  24.151  0.00  0.00    -0.270 OA
ATOM      8  N   UNL     1      -1.966   3.468  25.326  0.00  0.00    -0.310 N 
ATOM     23  C   UNL     1      -0.593   3.381  25.197  0.00  0.00    +0.244 C 
ATOM     37  H   UNL     1      -2.424   3.263  26.206  0.00  0.00    +0.149 HD
BRANCH  23  25
ATOM     25  C   UNL     1       0.147   3.048  26.442  0.00  0.00    +0.037 A 
ATOM     28  C   UNL     1       1.478   3.438  26.587  0.00  0.00    +0.013 A 
ATOM     29  C   UNL     1      -0.490   2.344  27.464  0.00  0.00    +0.013 A 
ATOM     33  C   UNL     1       2.173   3.125  27.756  0.00  0.00    +0.013 A 
ATOM     34  C   UNL     1       0.205   2.031  28.632  0.00  0.00    +0.013 A 
ATOM     35  C   UNL     1       1.536   2.422  28.779  0.00  0.00    +0.055 A 
BRANCH  35  36
ATOM      2  F   UNL     1       3.261   2.991  30.312  0.00  0.00    -0.166 F 
ATOM      3  F   UNL     1       1.488   2.044  31.140  0.00  0.00    -0.166 F 
ATOM      4  F   UNL     1       2.901   0.872  29.985  0.00  0.00    -0.166 F 
ATOM     36  C   UNL     1       2.279   2.087  30.028  0.00  0.00    +0.417 C 
ENDBRANCH  35  36
ENDBRANCH  23  25
ENDBRANCH  18   8
ENDBRANCH  12  18
TORSDOF 7
ENDMDL
MODEL 2
REMARK VINA RESULT:       7.5      3.531      5.488
REMARK  Name = 40776861
REMARK  7 active torsions:
REMARK  status: ('A' for Active; 'I' for Inactive)
REMARK    1  A    between atoms: N_7  and  C_17
REMARK    2  A    between atoms: N_8  and  C_18
REMARK    3  A    between atoms: N_9  and  C_24
REMARK    4  A    between atoms: C_11  and  C_17
REMARK    5  A    between atoms: C_12  and  C_18
REMARK    6  A    between atoms: C_23  and  C_25
REMARK    7  A    between atoms: C_35  and  C_36
REMARK                            x       y       z     vdW  Elec       q    Type
REMARK                         _______ _______ _______ _____ _____    ______ ____
ROOT
ATOM      6  N   UNL     1      -3.518   5.206  24.771  0.00  0.00    -0.298 NA
ATOM     10  C   UNL     1      -1.128   4.221  25.069  0.00  0.00    -0.003 C 
ATOM     11  C   UNL     1      -1.815   3.635  23.814  0.00  0.00    +0.020 C 
ATOM     12  C   UNL     1      -3.358   4.665  26.148  0.00  0.00    +0.074 C 
ATOM     13  C   UNL     1      -2.002   3.942  26.306  0.00  0.00    +0.024 C 
ATOM     14  C   UNL     1      -3.274   4.141  23.769  0.00  0.00    +0.089 C 
ATOM     15  C   UNL     1      -1.082   5.749  24.880  0.00  0.00    +0.019 C 
ATOM     16  C   UNL     1      -2.499   6.267  24.576  0.00  0.00    +0.085 C 
ENDROOT
BRANCH  11  17
ATOM     17  C   UNL     1      -1.745   2.111  23.747  0.00  0.00    +0.089 C 
BRANCH  17   7
ATOM      7  N   UNL     1      -0.444   1.669  23.245  0.00  0.00    -0.299 NA
ATOM      9  N   UNL     1       2.194   0.591  23.431  0.00  0.00    -0.327 N 
ATOM     19  C   UNL     1      -0.242   0.242  23.520  0.00  0.00    +0.103 C 
ATOM     20  C   UNL     1       0.637   2.454  23.855  0.00  0.00    +0.103 C 
ATOM     21  C   UNL     1       1.091  -0.246  22.949  0.00  0.00    +0.120 C 
ATOM     22  C   UNL     1       1.999   2.039  23.294  0.00  0.00    +0.120 C 
BRANCH   9  24
ATOM      1  F   UNL     1       7.365  -1.362  23.318  0.00  0.00    -0.205 F 
ATOM     24  C   UNL     1       3.503   0.098  23.403  0.00  0.00    +0.030 A 
ATOM     26  C   UNL     1       3.758  -1.223  23.774  0.00  0.00    +0.026 A 
ATOM     27  C   UNL     1       4.553   0.925  23.002  0.00  0.00    +0.026 A 
ATOM     30  C   UNL     1       5.062  -1.716  23.745  0.00  0.00    +0.040 A 
ATOM     31  C   UNL     1       5.858   0.431  22.973  0.00  0.00    +0.040 A 
ATOM     32  C   UNL     1       6.112  -0.889  23.344  0.00  0.00    +0.124 A 
ENDBRANCH   9  24
ENDBRANCH  17   7
ENDBRANCH  11  17
BRANCH  12  18
ATOM     18  C   UNL     1      -4.530   3.774  26.566  0.00  0.00    +0.123 C 
BRANCH  18   8
ATOM      5  O   UNL     1      -5.605   2.287  24.357  0.00  0.00    -0.270 OA
ATOM      8  N   UNL     1      -4.260   2.383  26.243  0.00  0.00    -0.310 N 
ATOM     23  C   UNL     1      -4.832   1.758  25.151  0.00  0.00    +0.244 C 
ATOM     37  H   UNL     1      -3.683   1.868  26.898  0.00  0.00    +0.149 HD
BRANCH  23  25
ATOM     25  C   UNL     1      -4.476   0.326  24.973  0.00  0.00    +0.037 A 
ATOM     28  C   UNL     1      -3.771  -0.346  25.972  0.00  0.00    +0.013 A 
ATOM     29  C   UNL     1      -4.846  -0.344  23.808  0.00  0.00    +0.013 A 
ATOM     33  C   UNL     1      -3.436  -1.689  25.805  0.00  0.00    +0.013 A 
ATOM     34  C   UNL     1      -4.512  -1.688  23.641  0.00  0.00    +0.013 A 
ATOM     35  C   UNL     1      -3.806  -2.361  24.639  0.00  0.00    +0.055 A 
BRANCH  35  36
ATOM      2  F   UNL     1      -3.370  -4.469  25.646  0.00  0.00    -0.166 F 
ATOM      3  F   UNL     1      -4.345  -4.495  23.703  0.00  0.00    -0.166 F 
ATOM      4  F   UNL     1      -2.241  -3.989  23.850  0.00  0.00    -0.166 F 
ATOM     36  C   UNL     1      -3.449  -3.798  24.460  0.00  0.00    +0.417 C 
ENDBRANCH  35  36
ENDBRANCH  23  25
ENDBRANCH  18   8
ENDBRANCH  12  18
TORSDOF 7
ENDMDL
