MODEL 1
REMARK VINA RESULT:       0.1      0.000      0.000
REMARK  Name = 11882511
REMARK  7 active torsions:
REMARK  status: ('A' for Active; 'I' for Inactive)
REMARK    1  A    between atoms: N_7  and  C_13
REMARK    2  A    between atoms: CA_17  and  CB_20
REMARK    3  A    between atoms: CB_20  and  CG_21
REMARK    4  A    between atoms: CG_21  and  CD1_23
REMARK    5  A    between atoms: CG_21  and  CD2_24
REMARK    6  A    between atoms: C_22  and  C_26
REMARK    7  A    between atoms: C_25  and  C_27
REMARK                            x       y       z     vdW  Elec       q    Type
REMARK                         _______ _______ _______ _____ _____    ______ ____
ROOT
ATOM      1  O   LEU A   2       3.243   2.361  22.912  0.00  0.00    -0.274 OA
ATOM      2  O   UNK A   1      -0.614  -1.311  22.920  0.00  0.00    -0.274 OA
ATOM      5  N   UNK A   1       1.189   1.602  23.705  0.00  0.00    -0.288 N 
ATOM      6  N   LEU A   2       1.496  -0.642  22.304  0.00  0.00    -0.302 N 
ATOM     12  C   UNK A   1       0.460   0.438  24.215  0.00  0.00    +0.164 C 
ATOM     13  C   UNK A   1      -1.645   1.851  23.972  0.00  0.00    +0.113 C 
ATOM     14  C   UNK A   1      -0.898   0.808  24.826  0.00  0.00    +0.059 C 
ATOM     15  C   UNK A   1      -0.771   3.074  23.617  0.00  0.00    +0.046 C 
ATOM     16  C   UNK A   1       0.680   2.921  24.065  0.00  0.00    +0.110 C 
ATOM     17  CA  LEU A   2       2.738   0.033  22.641  0.00  0.00    +0.159 C 
ATOM     18  C   LEU A   2       2.422   1.458  23.070  0.00  0.00    +0.237 C 
ATOM     19  C   UNK A   1       0.349  -0.562  23.074  0.00  0.00    +0.234 C 
ATOM     28  H   LEU A   2       1.471  -1.223  21.473  0.00  0.00    +0.150 HD
ENDROOT
BRANCH  13   7
ATOM      7  N   UNK A   1      -2.929   2.232  24.575  0.00  0.00    -0.236 N 
ATOM      8  N   UNK A   1      -3.164   3.511  24.891  0.00  0.00    -0.064 NA
ATOM      9  N   UNK A   1      -4.385   3.565  25.410  0.00  0.00    -0.124 NA
ATOM     22  C   UNK A   1      -3.978   1.429  24.878  0.00  0.00    +0.156 A 
ATOM     25  C   UNK A   1      -4.897   2.297  25.410  0.00  0.00    +0.179 A 
BRANCH  22  26
ATOM      3  O   UNK A   1      -4.250  -0.509  23.550  0.00  0.00    -0.269 OA
ATOM     10  N   UNK A   1      -3.867  -0.819  25.776  0.00  0.00    -0.324 N 
ATOM     26  C   UNK A   1      -4.051   0.018  24.670  0.00  0.00    +0.262 C 
ATOM     29  H   UNK A   1      -3.692  -0.450  26.706  0.00  0.00    +0.145 HD
ATOM     30  H   UNK A   1      -3.902  -1.827  25.678  0.00  0.00    +0.145 HD
ENDBRANCH  22  26
BRANCH  25  27
ATOM      4  O   UNK A   1      -6.514   2.035  27.115  0.00  0.00    -0.269 OA
ATOM     11  N   UNK A   1      -7.186   1.637  24.974  0.00  0.00    -0.324 N 
ATOM     27  C   UNK A   1      -6.204   1.988  25.904  0.00  0.00    +0.264 C 
ATOM     31  H   UNK A   1      -6.994   1.591  23.979  0.00  0.00    +0.145 HD
ATOM     32  H   UNK A   1      -8.131   1.416  25.272  0.00  0.00    +0.145 HD
ENDBRANCH  25  27
ENDBRANCH  13   7
BRANCH  17  20
ATOM     20  CB  LEU A   2       3.568  -0.716  23.672  0.00  0.00    +0.034 C 
BRANCH  20  21
ATOM     21  CG  LEU A   2       5.086  -0.562  23.471  0.00  0.00    -0.015 C 
ATOM     23  CD1 LEU A   2       5.659   0.622  24.249  0.00  0.00    +0.007 C 
ATOM     24  CD2 LEU A   2       5.800  -1.850  23.891  0.00  0.00    +0.007 C 
ENDBRANCH  20  21
ENDBRANCH  17  20
TORSDOF 5
ENDMDL
MODEL 2
REMARK VINA RESULT:       0.3     16.306     18.309
REMARK  Name = 11882511
REMARK  7 active torsions:
REMARK  status: ('A' for Active; 'I' for Inactive)
REMARK    1  A    between atoms: N_7  and  C_13
REMARK    2  A    between atoms: CA_17  and  CB_20
REMARK    3  A    between atoms: CB_20  and  CG_21
REMARK    4  A    between atoms: CG_21  and  CD1_23
REMARK    5  A    between atoms: CG_21  and  CD2_24
REMARK    6  A    between atoms: C_22  and  C_26
REMARK    7  A    between atoms: C_25  and  C_27
REMARK                            x       y       z     vdW  Elec       q    Type
REMARK                         _______ _______ _______ _____ _____    ______ ____
ROOT
ATOM      1  O   LEU A   2      16.067  -5.007  28.398  0.00  0.00    -0.274 OA
ATOM      2  O   UNK A   1      16.406  -7.875  32.872  0.00  0.00    -0.274 OA
ATOM      5  N   UNK A   1      15.025  -6.167  30.128  0.00  0.00    -0.288 N 
ATOM      6  N   LEU A   2      17.399  -6.562  31.271  0.00  0.00    -0.302 N 
ATOM     12  C   UNK A   1      14.998  -6.382  31.577  0.00  0.00    +0.164 C 
ATOM     13  C   UNK A   1      13.440  -8.339  31.095  0.00  0.00    +0.113 C 
ATOM     14  C   UNK A   1      13.760  -7.163  32.038  0.00  0.00    +0.059 C 
ATOM     15  C   UNK A   1      13.391  -7.921  29.608  0.00  0.00    +0.046 C 
ATOM     16  C   UNK A   1      13.809  -6.470  29.383  0.00  0.00    +0.110 C 
ATOM     17  CA  LEU A   2      17.337  -5.405  30.392  0.00  0.00    +0.159 C 
ATOM     18  C   LEU A   2      16.098  -5.519  29.516  0.00  0.00    +0.237 C 
ATOM     19  C   UNK A   1      16.306  -7.057  31.960  0.00  0.00    +0.234 C 
ATOM     28  H   LEU A   2      18.294  -7.018  31.406  0.00  0.00    +0.150 HD
ENDROOT
BRANCH  13   7
ATOM      7  N   UNK A   1      12.234  -9.064  31.516  0.00  0.00    -0.236 N 
ATOM      8  N   UNK A   1      12.262 -10.398  31.624  0.00  0.00    -0.064 NA
ATOM      9  N   UNK A   1      11.053 -10.781  32.017  0.00  0.00    -0.124 NA
ATOM     22  C   UNK A   1      11.020  -8.550  31.832  0.00  0.00    +0.156 A 
ATOM     25  C   UNK A   1      10.280  -9.661  32.149  0.00  0.00    +0.179 A 
BRANCH  22  26
ATOM      3  O   UNK A   1      10.593  -6.459  32.849  0.00  0.00    -0.269 OA
ATOM     10  N   UNK A   1      10.381  -6.575  30.583  0.00  0.00    -0.324 N 
ATOM     26  C   UNK A   1      10.657  -7.170  31.819  0.00  0.00    +0.262 C 
ATOM     29  H   UNK A   1      10.427  -7.097  29.713  0.00  0.00    +0.145 HD
ATOM     30  H   UNK A   1      10.126  -5.596  30.521  0.00  0.00    +0.145 HD
ENDBRANCH  22  26
BRANCH  25  27
ATOM      4  O   UNK A   1       8.262 -10.769  32.686  0.00  0.00    -0.269 OA
ATOM     11  N   UNK A   1       8.278  -8.496  32.859  0.00  0.00    -0.324 N 
ATOM     27  C   UNK A   1       8.911  -9.706  32.561  0.00  0.00    +0.264 C 
ATOM     31  H   UNK A   1       8.758  -7.605  32.785  0.00  0.00    +0.145 HD
ATOM     32  H   UNK A   1       7.310  -8.475  33.163  0.00  0.00    +0.145 HD
ENDBRANCH  25  27
ENDBRANCH  13   7
BRANCH  17  20
ATOM     20  CB  LEU A   2      17.405  -4.082  31.137  0.00  0.00    +0.034 C 
BRANCH  20  21
ATOM     21  CG  LEU A   2      16.170  -3.188  30.922  0.00  0.00    -0.015 C 
ATOM     23  CD1 LEU A   2      15.315  -3.063  32.183  0.00  0.00    +0.007 C 
ATOM     24  CD2 LEU A   2      16.609  -1.797  30.455  0.00  0.00    +0.007 C 
ENDBRANCH  20  21
ENDBRANCH  17  20
TORSDOF 5
ENDMDL
MODEL 3
REMARK VINA RESULT:       1.1      1.371      2.011
REMARK  Name = 11882511
REMARK  7 active torsions:
REMARK  status: ('A' for Active; 'I' for Inactive)
REMARK    1  A    between atoms: N_7  and  C_13
REMARK    2  A    between atoms: CA_17  and  CB_20
REMARK    3  A    between atoms: CB_20  and  CG_21
REMARK    4  A    between atoms: CG_21  and  CD1_23
REMARK    5  A    between atoms: CG_21  and  CD2_24
REMARK    6  A    between atoms: C_22  and  C_26
REMARK    7  A    between atoms: C_25  and  C_27
REMARK                            x       y       z     vdW  Elec       q    Type
REMARK                         _______ _______ _______ _____ _____    ______ ____
ROOT
ATOM      1  O   LEU A   2       3.272   2.481  23.234  0.00  0.00    -0.274 OA
ATOM      2  O   UNK A   1       0.040  -1.470  21.717  0.00  0.00    -0.274 OA
ATOM      5  N   UNK A   1       1.366   1.192  23.590  0.00  0.00    -0.288 N 
ATOM      6  N   LEU A   2       2.016  -0.320  21.497  0.00  0.00    -0.302 N 
ATOM     12  C   UNK A   1       0.830  -0.172  23.608  0.00  0.00    +0.164 C 
ATOM     13  C   UNK A   1      -1.472   0.906  23.776  0.00  0.00    +0.113 C 
ATOM     14  C   UNK A   1      -0.568  -0.252  24.237  0.00  0.00    +0.059 C 
ATOM     15  C   UNK A   1      -0.802   2.290  23.930  0.00  0.00    +0.046 C 
ATOM     16  C   UNK A   1       0.657   2.200  24.371  0.00  0.00    +0.110 C 
ATOM     17  CA  LEU A   2       3.138   0.362  22.120  0.00  0.00    +0.159 C 
ATOM     18  C   LEU A   2       2.604   1.472  23.013  0.00  0.00    +0.237 C 
ATOM     19  C   UNK A   1       0.873  -0.695  22.181  0.00  0.00    +0.234 C 
ATOM     28  H   LEU A   2       2.080  -0.556  20.513  0.00  0.00    +0.150 HD
ENDROOT
BRANCH  13   7
ATOM      7  N   UNK A   1      -2.798   0.849  24.405  0.00  0.00    -0.236 N 
ATOM      8  N   UNK A   1      -3.159  -0.236  25.101  0.00  0.00    -0.064 NA
ATOM      9  N   UNK A   1      -4.389  -0.015  25.551  0.00  0.00    -0.124 NA
ATOM     22  C   UNK A   1      -3.771   1.792  24.384  0.00  0.00    +0.156 A 
ATOM     25  C   UNK A   1      -4.779   1.223  25.120  0.00  0.00    +0.179 A 
BRANCH  22  26
ATOM      3  O   UNK A   1      -3.822   3.212  22.493  0.00  0.00    -0.269 OA
ATOM     10  N   UNK A   1      -3.522   4.198  24.526  0.00  0.00    -0.324 N 
ATOM     26  C   UNK A   1      -3.705   3.060  23.732  0.00  0.00    +0.262 C 
ATOM     29  H   UNK A   1      -3.431   4.139  25.536  0.00  0.00    +0.145 HD
ATOM     30  H   UNK A   1      -3.476   5.122  24.111  0.00  0.00    +0.145 HD
ENDBRANCH  22  26
BRANCH  25  27
ATOM      4  O   UNK A   1      -7.066   1.644  24.699  0.00  0.00    -0.269 OA
ATOM     11  N   UNK A   1      -6.186   2.507  26.616  0.00  0.00    -0.324 N 
ATOM     27  C   UNK A   1      -6.058   1.785  25.426  0.00  0.00    +0.264 C 
ATOM     31  H   UNK A   1      -5.405   2.646  27.248  0.00  0.00    +0.145 HD
ATOM     32  H   UNK A   1      -7.074   2.920  26.883  0.00  0.00    +0.145 HD
ENDBRANCH  25  27
ENDBRANCH  13   7
BRANCH  17  20
ATOM     20  CB  LEU A   2       4.078  -0.578  22.856  0.00  0.00    +0.034 C 
BRANCH  20  21
ATOM     21  CG  LEU A   2       5.378   0.097  23.332  0.00  0.00    -0.015 C 
ATOM     23  CD1 LEU A   2       5.513   0.094  24.854  0.00  0.00    +0.007 C 
ATOM     24  CD2 LEU A   2       6.587  -0.604  22.705  0.00  0.00    +0.007 C 
ENDBRANCH  20  21
ENDBRANCH  17  20
TORSDOF 5
ENDMDL
MODEL 4
REMARK VINA RESULT:       3.3      1.965      8.085
REMARK  Name = 11882511
REMARK  7 active torsions:
REMARK  status: ('A' for Active; 'I' for Inactive)
REMARK    1  A    between atoms: N_7  and  C_13
REMARK    2  A    between atoms: CA_17  and  CB_20
REMARK    3  A    between atoms: CB_20  and  CG_21
REMARK    4  A    between atoms: CG_21  and  CD1_23
REMARK    5  A    between atoms: CG_21  and  CD2_24
REMARK    6  A    between atoms: C_22  and  C_26
REMARK    7  A    between atoms: C_25  and  C_27
REMARK                            x       y       z     vdW  Elec       q    Type
REMARK                         _______ _______ _______ _____ _____    ______ ____
ROOT
ATOM      1  O   LEU A   2      -4.391  -1.267  24.493  0.00  0.00    -0.274 OA
ATOM      2  O   UNK A   1      -1.141   2.672  22.985  0.00  0.00    -0.274 OA
ATOM      5  N   UNK A   1      -2.258  -0.336  24.419  0.00  0.00    -0.288 N 
ATOM      6  N   LEU A   2      -3.263   1.832  23.243  0.00  0.00    -0.302 N 
ATOM     12  C   UNK A   1      -1.484   0.895  24.600  0.00  0.00    +0.164 C 
ATOM     13  C   UNK A   1       0.467  -0.370  23.559  0.00  0.00    +0.113 C 
ATOM     14  C   UNK A   1       0.030   0.644  24.633  0.00  0.00    +0.059 C 
ATOM     15  C   UNK A   1      -0.376  -1.664  23.577  0.00  0.00    +0.046 C 
ATOM     16  C   UNK A   1      -1.546  -1.601  24.555  0.00  0.00    +0.110 C 
ATOM     17  CA  LEU A   2      -4.218   1.081  24.040  0.00  0.00    +0.159 C 
ATOM     18  C   LEU A   2      -3.648  -0.303  24.315  0.00  0.00    +0.237 C 
ATOM     19  C   UNK A   1      -1.905   1.861  23.504  0.00  0.00    +0.234 C 
ATOM     28  H   LEU A   2      -3.610   2.385  22.467  0.00  0.00    +0.150 HD
ENDROOT
BRANCH  13   7
ATOM      7  N   UNK A   1       1.910  -0.637  23.614  0.00  0.00    -0.236 N 
ATOM      8  N   UNK A   1       2.350  -1.868  23.900  0.00  0.00    -0.064 NA
ATOM      9  N   UNK A   1       3.677  -1.820  23.880  0.00  0.00    -0.124 NA
ATOM     22  C   UNK A   1       2.927   0.235  23.403  0.00  0.00    +0.156 A 
ATOM     25  C   UNK A   1       4.047  -0.538  23.578  0.00  0.00    +0.179 A 
BRANCH  22  26
ATOM      3  O   UNK A   1       3.626   2.246  22.375  0.00  0.00    -0.269 OA
ATOM     10  N   UNK A   1       1.679   2.305  23.558  0.00  0.00    -0.324 N 
ATOM     26  C   UNK A   1       2.800   1.619  23.079  0.00  0.00    +0.262 C 
ATOM     29  H   UNK A   1       0.970   1.849  24.125  0.00  0.00    +0.145 HD
ATOM     30  H   UNK A   1       1.540   3.288  23.349  0.00  0.00    +0.145 HD
ENDBRANCH  22  26
BRANCH  25  27
ATOM      4  O   UNK A   1       6.214  -0.602  22.636  0.00  0.00    -0.269 OA
ATOM     11  N   UNK A   1       5.863   0.872  24.339  0.00  0.00    -0.324 N 
ATOM     27  C   UNK A   1       5.413  -0.128  23.473  0.00  0.00    +0.264 C 
ATOM     31  H   UNK A   1       5.255   1.298  25.031  0.00  0.00    +0.145 HD
ATOM     32  H   UNK A   1       6.821   1.204  24.300  0.00  0.00    +0.145 HD
ENDBRANCH  25  27
ENDBRANCH  13   7
BRANCH  17  20
ATOM     20  CB  LEU A   2      -4.639   1.802  25.311  0.00  0.00    +0.034 C 
BRANCH  20  21
ATOM     21  CG  LEU A   2      -4.560   3.336  25.204  0.00  0.00    -0.015 C 
ATOM     23  CD1 LEU A   2      -5.866   4.017  25.613  0.00  0.00    +0.007 C 
ATOM     24  CD2 LEU A   2      -3.411   3.860  26.071  0.00  0.00    +0.007 C 
ENDBRANCH  20  21
ENDBRANCH  17  20
TORSDOF 5
ENDMDL
MODEL 5
REMARK VINA RESULT:       4.0      2.049      7.859
REMARK  Name = 11882511
REMARK  7 active torsions:
REMARK  status: ('A' for Active; 'I' for Inactive)
REMARK    1  A    between atoms: N_7  and  C_13
REMARK    2  A    between atoms: CA_17  and  CB_20
REMARK    3  A    between atoms: CB_20  and  CG_21
REMARK    4  A    between atoms: CG_21  and  CD1_23
REMARK    5  A    between atoms: CG_21  and  CD2_24
REMARK    6  A    between atoms: C_22  and  C_26
REMARK    7  A    between atoms: C_25  and  C_27
REMARK                            x       y       z     vdW  Elec       q    Type
REMARK                         _______ _______ _______ _____ _____    ______ ____
ROOT
ATOM      1  O   LEU A   2      -5.263  -0.385  26.379  0.00  0.00    -0.274 OA
ATOM      2  O   UNK A   1      -3.469   2.720  22.443  0.00  0.00    -0.274 OA
ATOM      5  N   UNK A   1      -3.481   0.542  25.201  0.00  0.00    -0.288 N 
ATOM      6  N   LEU A   2      -5.203   1.955  23.741  0.00  0.00    -0.302 N 
ATOM     12  C   UNK A   1      -2.947   1.774  24.615  0.00  0.00    +0.164 C 
ATOM     13  C   UNK A   1      -1.196   0.295  23.502  0.00  0.00    +0.113 C 
ATOM     14  C   UNK A   1      -1.476   1.642  24.195  0.00  0.00    +0.059 C 
ATOM     15  C   UNK A   1      -1.722  -0.915  24.307  0.00  0.00    +0.046 C 
ATOM     16  C   UNK A   1      -2.527  -0.508  25.538  0.00  0.00    +0.110 C 
ATOM     17  CA  LEU A   2      -5.702   1.559  25.047  0.00  0.00    +0.159 C 
ATOM     18  C   LEU A   2      -4.815   0.453  25.598  0.00  0.00    +0.237 C 
ATOM     19  C   UNK A   1      -3.863   2.164  23.466  0.00  0.00    +0.234 C 
ATOM     28  H   LEU A   2      -5.871   2.109  22.994  0.00  0.00    +0.150 HD
ENDROOT
BRANCH  13   7
ATOM      7  N   UNK A   1       0.218   0.154  23.132  0.00  0.00    -0.236 N 
ATOM      8  N   UNK A   1       0.603  -0.859  22.347  0.00  0.00    -0.064 NA
ATOM      9  N   UNK A   1       1.916  -0.741  22.177  0.00  0.00    -0.124 NA
ATOM     22  C   UNK A   1       1.256   0.948  23.490  0.00  0.00    +0.156 A 
ATOM     25  C   UNK A   1       2.331   0.362  22.872  0.00  0.00    +0.179 A 
BRANCH  22  26
ATOM      3  O   UNK A   1       1.268   3.280  23.882  0.00  0.00    -0.269 OA
ATOM     10  N   UNK A   1       0.992   1.923  25.692  0.00  0.00    -0.324 N 
ATOM     26  C   UNK A   1       1.186   2.108  24.319  0.00  0.00    +0.262 C 
ATOM     29  H   UNK A   1       0.908   0.998  26.103  0.00  0.00    +0.145 HD
ATOM     30  H   UNK A   1       0.928   2.716  26.321  0.00  0.00    +0.145 HD
ENDBRANCH  22  26
BRANCH  25  27
ATOM      4  O   UNK A   1       4.099   1.860  22.403  0.00  0.00    -0.269 OA
ATOM     11  N   UNK A   1       4.618  -0.032  23.564  0.00  0.00    -0.324 N 
ATOM     27  C   UNK A   1       3.696   0.788  22.908  0.00  0.00    +0.264 C 
ATOM     31  H   UNK A   1       4.346  -0.907  23.999  0.00  0.00    +0.145 HD
ATOM     32  H   UNK A   1       5.597   0.228  23.624  0.00  0.00    +0.145 HD
ENDBRANCH  25  27
ENDBRANCH  13   7
BRANCH  17  20
ATOM     20  CB  LEU A   2      -5.849   2.725  26.011  0.00  0.00    +0.034 C 
BRANCH  20  21
ATOM     21  CG  LEU A   2      -5.154   4.013  25.533  0.00  0.00    -0.015 C 
ATOM     23  CD1 LEU A   2      -6.098   5.214  25.519  0.00  0.00    +0.007 C 
ATOM     24  CD2 LEU A   2      -3.947   4.314  26.426  0.00  0.00    +0.007 C 
ENDBRANCH  20  21
ENDBRANCH  17  20
TORSDOF 5
ENDMDL
