MODEL 1
REMARK VINA RESULT:      -2.7      0.000      0.000
REMARK  Name = 11884337
REMARK  5 active torsions:
REMARK  status: ('A' for Active; 'I' for Inactive)
REMARK    1  A    between atoms: O_3  and  C_10
REMARK    2  A    between atoms: O_5  and  C_19
REMARK    3  A    between atoms: O_5  and  C_20
REMARK    4  A    between atoms: N_6  and  C_9
REMARK    5  A    between atoms: C_13  and  C_14
REMARK                            x       y       z     vdW  Elec       q    Type
REMARK                         _______ _______ _______ _____ _____    ______ ____
ROOT
ATOM      4  O   UNL     1      -1.655 -10.781  12.122  0.00  0.00    -0.270 OA
ATOM      6  N   UNL     1      -2.582  -9.337  10.562  0.00  0.00    -0.304 N 
ATOM     13  C   UNL     1      -1.601  -9.754  11.451  0.00  0.00    +0.244 C 
ATOM     21  H   UNL     1      -2.524  -8.423  10.126  0.00  0.00    +0.149 HD
ENDROOT
BRANCH   6   9
ATOM      1  O   UNL     1      -5.602  -8.646  10.925  0.00  0.00    -0.369 OA
ATOM      2  O   UNL     1      -5.444 -10.660   8.632  0.00  0.00    -0.369 OA
ATOM      7  C   UNL     1      -4.515  -9.644   9.071  0.00  0.00    +0.172 C 
ATOM      8  C   UNL     1      -5.346  -8.459   9.522  0.00  0.00    +0.179 C 
ATOM      9  C   UNL     1      -3.809 -10.099  10.330  0.00  0.00    +0.130 C 
ATOM     10  C   UNL     1      -6.604  -8.611   8.701  0.00  0.00    +0.171 C 
ATOM     11  C   UNL     1      -4.836  -9.763  11.401  0.00  0.00    +0.185 C 
ATOM     12  C   UNL     1      -6.771 -10.114   8.651  0.00  0.00    +0.194 C 
BRANCH  10   3
ATOM      3  O   UNL     1      -7.725  -7.972   9.266  0.00  0.00    -0.387 OA
ATOM     22  H   UNL     1      -7.863  -8.338  10.157  0.00  0.00    +0.210 HD
ENDBRANCH  10   3
ENDBRANCH   6   9
BRANCH  13  14
ATOM     14  C   UNL     1      -0.427  -8.855  11.593  0.00  0.00    +0.037 A 
ATOM     15  C   UNL     1      -0.433  -7.905  12.593  0.00  0.00    +0.016 A 
ATOM     16  C   UNL     1       0.631  -8.999  10.720  0.00  0.00    +0.016 A 
ATOM     17  C   UNL     1       0.670  -7.060  12.725  0.00  0.00    +0.046 A 
ATOM     18  C   UNL     1       1.734  -8.154  10.853  0.00  0.00    +0.046 A 
ATOM     19  C   UNL     1       1.753  -7.185  11.855  0.00  0.00    +0.120 A 
BRANCH  19   5
ATOM      5  O   UNL     1       2.828  -6.360  11.984  0.00  0.00    -0.495 OA
ATOM     20  C   UNL     1       4.105  -6.977  12.132  0.00  0.00    +0.277 C 
ENDBRANCH  19   5
ENDBRANCH  13  14
TORSDOF 4
ENDMDL
MODEL 2
REMARK VINA RESULT:      -2.0     15.587     17.961
REMARK  Name = 11884337
REMARK  5 active torsions:
REMARK  status: ('A' for Active; 'I' for Inactive)
REMARK    1  A    between atoms: O_3  and  C_10
REMARK    2  A    between atoms: O_5  and  C_19
REMARK    3  A    between atoms: O_5  and  C_20
REMARK    4  A    between atoms: N_6  and  C_9
REMARK    5  A    between atoms: C_13  and  C_14
REMARK                            x       y       z     vdW  Elec       q    Type
REMARK                         _______ _______ _______ _____ _____    ______ ____
ROOT
ATOM      4  O   UNL     1      -0.298  -1.060  24.352  0.00  0.00    -0.270 OA
ATOM      6  N   UNL     1       0.999   0.447  23.158  0.00  0.00    -0.304 N 
ATOM     13  C   UNL     1      -0.101   0.071  23.916  0.00  0.00    +0.244 C 
ATOM     21  H   UNL     1       1.041   1.370  22.738  0.00  0.00    +0.149 HD
ENDROOT
BRANCH   6   9
ATOM      1  O   UNL     1       3.957   0.848  22.253  0.00  0.00    -0.369 OA
ATOM      2  O   UNL     1       3.854  -1.833  23.716  0.00  0.00    -0.369 OA
ATOM      7  C   UNL     1       3.089  -0.621  23.896  0.00  0.00    +0.172 C 
ATOM      8  C   UNL     1       4.038   0.535  23.655  0.00  0.00    +0.179 C 
ATOM      9  C   UNL     1       2.060  -0.491  22.793  0.00  0.00    +0.130 C 
ATOM     10  C   UNL     1       5.377  -0.062  24.015  0.00  0.00    +0.171 C 
ATOM     11  C   UNL     1       2.894   0.087  21.659  0.00  0.00    +0.185 C 
ATOM     12  C   UNL     1       5.233  -1.486  23.525  0.00  0.00    +0.194 C 
BRANCH  10   3
ATOM      3  O   UNL     1       6.468   0.598  23.414  0.00  0.00    -0.387 OA
ATOM     22  H   UNL     1       6.609   1.436  23.885  0.00  0.00    +0.210 HD
ENDBRANCH  10   3
ENDBRANCH   6   9
BRANCH  13  14
ATOM     14  C   UNL     1      -1.104   1.135  24.180  0.00  0.00    +0.037 A 
ATOM     15  C   UNL     1      -0.787   2.144  25.065  0.00  0.00    +0.016 A 
ATOM     16  C   UNL     1      -2.320   1.080  23.531  0.00  0.00    +0.016 A 
ATOM     17  C   UNL     1      -1.730   3.143  25.314  0.00  0.00    +0.046 A 
ATOM     18  C   UNL     1      -3.263   2.078  23.779  0.00  0.00    +0.046 A 
ATOM     19  C   UNL     1      -2.967   3.109  24.671  0.00  0.00    +0.120 A 
BRANCH  19   5
ATOM      5  O   UNL     1      -3.887   4.083  24.914  0.00  0.00    -0.495 OA
ATOM     20  C   UNL     1      -5.136   3.672  25.465  0.00  0.00    +0.277 C 
ENDBRANCH  19   5
ENDBRANCH  13  14
TORSDOF 4
ENDMDL
MODEL 3
REMARK VINA RESULT:      -1.8     15.476     16.717
REMARK  Name = 11884337
REMARK  5 active torsions:
REMARK  status: ('A' for Active; 'I' for Inactive)
REMARK    1  A    between atoms: O_3  and  C_10
REMARK    2  A    between atoms: O_5  and  C_19
REMARK    3  A    between atoms: O_5  and  C_20
REMARK    4  A    between atoms: N_6  and  C_9
REMARK    5  A    between atoms: C_13  and  C_14
REMARK                            x       y       z     vdW  Elec       q    Type
REMARK                         _______ _______ _______ _____ _____    ______ ____
ROOT
ATOM      4  O   UNL     1       0.777  -0.422  21.654  0.00  0.00    -0.270 OA
ATOM      6  N   UNL     1       0.382   0.440  23.771  0.00  0.00    -0.304 N 
ATOM     13  C   UNL     1       1.187  -0.034  22.744  0.00  0.00    +0.244 C 
ATOM     21  H   UNL     1       0.779   0.639  24.683  0.00  0.00    +0.149 HD
ENDROOT
BRANCH   6   9
ATOM      1  O   UNL     1      -1.837   1.490  25.694  0.00  0.00    -0.369 OA
ATOM      2  O   UNL     1      -2.868   1.942  22.853  0.00  0.00    -0.369 OA
ATOM      7  C   UNL     1      -1.527   1.945  23.390  0.00  0.00    +0.172 C 
ATOM      8  C   UNL     1      -1.610   2.568  24.769  0.00  0.00    +0.179 C 
ATOM      9  C   UNL     1      -1.073   0.525  23.653  0.00  0.00    +0.130 C 
ATOM     10  C   UNL     1      -2.819   3.465  24.649  0.00  0.00    +0.171 C 
ATOM     11  C   UNL     1      -1.719   0.238  25.001  0.00  0.00    +0.185 C 
ATOM     12  C   UNL     1      -3.729   2.654  23.754  0.00  0.00    +0.194 C 
BRANCH  10   3
ATOM      3  O   UNL     1      -3.421   3.764  25.887  0.00  0.00    -0.387 OA
ATOM     22  H   UNL     1      -3.980   3.009  26.141  0.00  0.00    +0.210 HD
ENDBRANCH  10   3
ENDBRANCH   6   9
BRANCH  13  14
ATOM     14  C   UNL     1       2.644  -0.081  23.029  0.00  0.00    +0.037 A 
ATOM     15  C   UNL     1       3.180  -1.232  23.570  0.00  0.00    +0.016 A 
ATOM     16  C   UNL     1       3.416   1.027  22.745  0.00  0.00    +0.016 A 
ATOM     17  C   UNL     1       4.548  -1.276  23.839  0.00  0.00    +0.046 A 
ATOM     18  C   UNL     1       4.784   0.982  23.014  0.00  0.00    +0.046 A 
ATOM     19  C   UNL     1       5.350  -0.169  23.561  0.00  0.00    +0.120 A 
BRANCH  19   5
ATOM      5  O   UNL     1       6.685  -0.212  23.824  0.00  0.00    -0.495 OA
ATOM     20  C   UNL     1       7.539  -0.665  22.775  0.00  0.00    +0.277 C 
ENDBRANCH  19   5
ENDBRANCH  13  14
TORSDOF 4
ENDMDL
MODEL 4
REMARK VINA RESULT:      -1.5     15.807     17.434
REMARK  Name = 11884337
REMARK  5 active torsions:
REMARK  status: ('A' for Active; 'I' for Inactive)
REMARK    1  A    between atoms: O_3  and  C_10
REMARK    2  A    between atoms: O_5  and  C_19
REMARK    3  A    between atoms: O_5  and  C_20
REMARK    4  A    between atoms: N_6  and  C_9
REMARK    5  A    between atoms: C_13  and  C_14
REMARK                            x       y       z     vdW  Elec       q    Type
REMARK                         _______ _______ _______ _____ _____    ______ ____
ROOT
ATOM      4  O   UNL     1      -1.656   1.190  25.779  0.00  0.00    -0.270 OA
ATOM      6  N   UNL     1      -1.770   2.912  24.230  0.00  0.00    -0.304 N 
ATOM     13  C   UNL     1      -1.221   1.765  24.785  0.00  0.00    +0.244 C 
ATOM     21  H   UNL     1      -1.293   3.395  23.475  0.00  0.00    +0.149 HD
ENDROOT
BRANCH   6   9
ATOM      1  O   UNL     1      -4.791   2.842  23.458  0.00  0.00    -0.369 OA
ATOM      2  O   UNL     1      -4.678   3.331  26.472  0.00  0.00    -0.369 OA
ATOM      7  C   UNL     1      -3.794   2.601  25.593  0.00  0.00    +0.172 C 
ATOM      8  C   UNL     1      -4.669   1.923  24.558  0.00  0.00    +0.179 C 
ATOM      9  C   UNL     1      -2.952   3.568  24.788  0.00  0.00    +0.130 C 
ATOM     10  C   UNL     1      -5.977   1.759  25.294  0.00  0.00    +0.171 C 
ATOM     11  C   UNL     1      -3.907   3.954  23.669  0.00  0.00    +0.185 C 
ATOM     12  C   UNL     1      -6.036   3.022  26.125  0.00  0.00    +0.194 C 
BRANCH  10   3
ATOM      3  O   UNL     1      -7.091   1.634  24.440  0.00  0.00    -0.387 OA
ATOM     22  H   UNL     1      -7.338   0.695  24.402  0.00  0.00    +0.210 HD
ENDBRANCH  10   3
ENDBRANCH   6   9
BRANCH  13  14
ATOM     14  C   UNL     1      -0.005   1.235  24.115  0.00  0.00    +0.037 A 
ATOM     15  C   UNL     1       1.117   2.034  24.043  0.00  0.00    +0.016 A 
ATOM     16  C   UNL     1      -0.037  -0.039  23.586  0.00  0.00    +0.016 A 
ATOM     17  C   UNL     1       2.258   1.537  23.413  0.00  0.00    +0.046 A 
ATOM     18  C   UNL     1       1.104  -0.536  22.956  0.00  0.00    +0.046 A 
ATOM     19  C   UNL     1       2.251   0.252  22.870  0.00  0.00    +0.120 A 
BRANCH  19   5
ATOM      5  O   UNL     1       3.365  -0.232  22.254  0.00  0.00    -0.495 OA
ATOM     20  C   UNL     1       4.626   0.168  22.785  0.00  0.00    +0.277 C 
ENDBRANCH  19   5
ENDBRANCH  13  14
TORSDOF 4
ENDMDL
MODEL 5
REMARK VINA RESULT:      -0.3      1.064      1.576
REMARK  Name = 11884337
REMARK  5 active torsions:
REMARK  status: ('A' for Active; 'I' for Inactive)
REMARK    1  A    between atoms: O_3  and  C_10
REMARK    2  A    between atoms: O_5  and  C_19
REMARK    3  A    between atoms: O_5  and  C_20
REMARK    4  A    between atoms: N_6  and  C_9
REMARK    5  A    between atoms: C_13  and  C_14
REMARK                            x       y       z     vdW  Elec       q    Type
REMARK                         _______ _______ _______ _____ _____    ______ ____
ROOT
ATOM      4  O   UNL     1      -1.260 -10.776  11.830  0.00  0.00    -0.270 OA
ATOM      6  N   UNL     1      -2.383  -9.173  10.584  0.00  0.00    -0.304 N 
ATOM     13  C   UNL     1      -1.321  -9.652  11.339  0.00  0.00    +0.244 C 
ATOM     21  H   UNL     1      -2.415  -8.199  10.305  0.00  0.00    +0.149 HD
ENDROOT
BRANCH   6   9
ATOM      1  O   UNL     1      -4.994  -9.757  12.187  0.00  0.00    -0.369 OA
ATOM      2  O   UNL     1      -5.742  -9.906   9.228  0.00  0.00    -0.369 OA
ATOM      7  C   UNL     1      -4.751  -9.115   9.920  0.00  0.00    +0.172 C 
ATOM      8  C   UNL     1      -5.356  -8.724  11.253  0.00  0.00    +0.179 C 
ATOM      9  C   UNL     1      -3.566  -9.981  10.292  0.00  0.00    +0.130 C 
ATOM     10  C   UNL     1      -6.836  -8.737  10.955  0.00  0.00    +0.171 C 
ATOM     11  C   UNL     1      -4.061 -10.653  11.564  0.00  0.00    +0.185 C 
ATOM     12  C   UNL     1      -6.957  -9.897   9.992  0.00  0.00    +0.194 C 
BRANCH  10   3
ATOM      3  O   UNL     1      -7.639  -8.913  12.100  0.00  0.00    -0.387 OA
ATOM     22  H   UNL     1      -8.288  -8.189  12.127  0.00  0.00    +0.210 HD
ENDBRANCH  10   3
ENDBRANCH   6   9
BRANCH  13  14
ATOM     14  C   UNL     1      -0.204  -8.699  11.569  0.00  0.00    +0.037 A 
ATOM     15  C   UNL     1       1.042  -8.999  11.059  0.00  0.00    +0.016 A 
ATOM     16  C   UNL     1      -0.449  -7.546  12.285  0.00  0.00    +0.016 A 
ATOM     17  C   UNL     1       2.091  -8.104  11.275  0.00  0.00    +0.046 A 
ATOM     18  C   UNL     1       0.600  -6.651  12.502  0.00  0.00    +0.046 A 
ATOM     19  C   UNL     1       1.870  -6.931  11.996  0.00  0.00    +0.120 A 
BRANCH  19   5
ATOM      5  O   UNL     1       2.893  -6.059  12.208  0.00  0.00    -0.495 OA
ATOM     20  C   UNL     1       4.216  -6.549  12.000  0.00  0.00    +0.277 C 
ENDBRANCH  19   5
ENDBRANCH  13  14
TORSDOF 4
ENDMDL
MODEL 6
REMARK VINA RESULT:       0.5     15.750     17.635
REMARK  Name = 11884337
REMARK  5 active torsions:
REMARK  status: ('A' for Active; 'I' for Inactive)
REMARK    1  A    between atoms: O_3  and  C_10
REMARK    2  A    between atoms: O_5  and  C_19
REMARK    3  A    between atoms: O_5  and  C_20
REMARK    4  A    between atoms: N_6  and  C_9
REMARK    5  A    between atoms: C_13  and  C_14
REMARK                            x       y       z     vdW  Elec       q    Type
REMARK                         _______ _______ _______ _____ _____    ______ ____
ROOT
ATOM      4  O   UNL     1      -1.602  -0.534  25.375  0.00  0.00    -0.270 OA
ATOM      6  N   UNL     1      -1.774   1.766  25.121  0.00  0.00    -0.304 N 
ATOM     13  C   UNL     1      -1.178   0.527  24.925  0.00  0.00    +0.244 C 
ATOM     21  H   UNL     1      -1.309   2.613  24.814  0.00  0.00    +0.149 HD
ENDROOT
BRANCH   6   9
ATOM      1  O   UNL     1      -3.469   4.270  25.883  0.00  0.00    -0.369 OA
ATOM      2  O   UNL     1      -5.414   1.917  25.745  0.00  0.00    -0.369 OA
ATOM      7  C   UNL     1      -4.196   2.188  25.017  0.00  0.00    +0.172 C 
ATOM      8  C   UNL     1      -4.160   3.682  24.766  0.00  0.00    +0.179 C 
ATOM      9  C   UNL     1      -2.997   1.934  25.906  0.00  0.00    +0.130 C 
ATOM     10  C   UNL     1      -5.625   4.047  24.762  0.00  0.00    +0.171 C 
ATOM     11  C   UNL     1      -2.924   3.227  26.705  0.00  0.00    +0.185 C 
ATOM     12  C   UNL     1      -6.186   3.124  25.822  0.00  0.00    +0.194 C 
BRANCH  10   3
ATOM      3  O   UNL     1      -5.867   5.403  25.058  0.00  0.00    -0.387 OA
ATOM     22  H   UNL     1      -5.980   5.486  26.021  0.00  0.00    +0.210 HD
ENDBRANCH  10   3
ENDBRANCH   6   9
BRANCH  13  14
ATOM     14  C   UNL     1       0.074   0.527  24.125  0.00  0.00    +0.037 A 
ATOM     15  C   UNL     1       0.926   1.607  24.223  0.00  0.00    +0.016 A 
ATOM     16  C   UNL     1       0.343  -0.552  23.309  0.00  0.00    +0.016 A 
ATOM     17  C   UNL     1       2.102   1.607  23.471  0.00  0.00    +0.046 A 
ATOM     18  C   UNL     1       1.519  -0.552  22.557  0.00  0.00    +0.046 A 
ATOM     19  C   UNL     1       2.398   0.528  22.639  0.00  0.00    +0.120 A 
BRANCH  19   5
ATOM      5  O   UNL     1       3.544   0.529  21.904  0.00  0.00    -0.495 OA
ATOM     20  C   UNL     1       4.773   0.415  22.620  0.00  0.00    +0.277 C 
ENDBRANCH  19   5
ENDBRANCH  13  14
TORSDOF 4
ENDMDL
MODEL 7
REMARK VINA RESULT:       1.0     15.916     17.225
REMARK  Name = 11884337
REMARK  5 active torsions:
REMARK  status: ('A' for Active; 'I' for Inactive)
REMARK    1  A    between atoms: O_3  and  C_10
REMARK    2  A    between atoms: O_5  and  C_19
REMARK    3  A    between atoms: O_5  and  C_20
REMARK    4  A    between atoms: N_6  and  C_9
REMARK    5  A    between atoms: C_13  and  C_14
REMARK                            x       y       z     vdW  Elec       q    Type
REMARK                         _______ _______ _______ _____ _____    ______ ____
ROOT
ATOM      4  O   UNL     1      -0.554   3.127  23.951  0.00  0.00    -0.270 OA
ATOM      6  N   UNL     1      -1.924   1.417  23.189  0.00  0.00    -0.304 N 
ATOM     13  C   UNL     1      -0.711   1.965  23.585  0.00  0.00    +0.244 C 
ATOM     21  H   UNL     1      -1.959   0.483  22.794  0.00  0.00    +0.149 HD
ENDROOT
BRANCH   6   9
ATOM      1  O   UNL     1      -4.582   1.196  24.805  0.00  0.00    -0.369 OA
ATOM      2  O   UNL     1      -4.239   4.150  24.099  0.00  0.00    -0.369 OA
ATOM      7  C   UNL     1      -3.265   3.115  24.359  0.00  0.00    +0.172 C 
ATOM      8  C   UNL     1      -3.838   2.242  25.457  0.00  0.00    +0.179 C 
ATOM      9  C   UNL     1      -3.165   2.189  23.165  0.00  0.00    +0.130 C 
ATOM     10  C   UNL     1      -4.747   3.197  26.192  0.00  0.00    +0.171 C 
ATOM     11  C   UNL     1      -4.353   1.265  23.389  0.00  0.00    +0.185 C 
ATOM     12  C   UNL     1      -5.294   4.046  25.066  0.00  0.00    +0.194 C 
BRANCH  10   3
ATOM      3  O   UNL     1      -5.771   2.554  26.917  0.00  0.00    -0.387 OA
ATOM     22  H   UNL     1      -5.685   2.811  27.851  0.00  0.00    +0.210 HD
ENDBRANCH  10   3
ENDBRANCH   6   9
BRANCH  13  14
ATOM     14  C   UNL     1       0.463   1.057  23.529  0.00  0.00    +0.037 A 
ATOM     15  C   UNL     1       0.268  -0.296  23.716  0.00  0.00    +0.016 A 
ATOM     16  C   UNL     1       1.711   1.595  23.292  0.00  0.00    +0.016 A 
ATOM     17  C   UNL     1       1.371  -1.149  23.664  0.00  0.00    +0.046 A 
ATOM     18  C   UNL     1       2.814   0.742  23.240  0.00  0.00    +0.046 A 
ATOM     19  C   UNL     1       2.644  -0.630  23.426  0.00  0.00    +0.120 A 
BRANCH  19   5
ATOM      5  O   UNL     1       3.720  -1.462  23.376  0.00  0.00    -0.495 OA
ATOM     20  C   UNL     1       4.964  -0.942  23.842  0.00  0.00    +0.277 C 
ENDBRANCH  19   5
ENDBRANCH  13  14
TORSDOF 4
ENDMDL
MODEL 8
REMARK VINA RESULT:       1.1     15.237     16.440
REMARK  Name = 11884337
REMARK  5 active torsions:
REMARK  status: ('A' for Active; 'I' for Inactive)
REMARK    1  A    between atoms: O_3  and  C_10
REMARK    2  A    between atoms: O_5  and  C_19
REMARK    3  A    between atoms: O_5  and  C_20
REMARK    4  A    between atoms: N_6  and  C_9
REMARK    5  A    between atoms: C_13  and  C_14
REMARK                            x       y       z     vdW  Elec       q    Type
REMARK                         _______ _______ _______ _____ _____    ______ ____
ROOT
ATOM      4  O   UNL     1      -1.523   1.435  23.109  0.00  0.00    -0.270 OA
ATOM      6  N   UNL     1      -1.303  -0.613  24.175  0.00  0.00    -0.304 N 
ATOM     13  C   UNL     1      -0.829   0.495  23.485  0.00  0.00    +0.244 C 
ATOM     21  H   UNL     1      -0.693  -1.403  24.357  0.00  0.00    +0.149 HD
ENDROOT
BRANCH   6   9
ATOM      1  O   UNL     1      -3.162   0.884  26.182  0.00  0.00    -0.369 OA
ATOM      2  O   UNL     1      -4.952  -0.092  23.906  0.00  0.00    -0.369 OA
ATOM      7  C   UNL     1      -3.566   0.316  23.918  0.00  0.00    +0.172 C 
ATOM      8  C   UNL     1      -3.458   1.465  24.900  0.00  0.00    +0.179 C 
ATOM      9  C   UNL     1      -2.712  -0.774  24.530  0.00  0.00    +0.130 C 
ATOM     10  C   UNL     1      -4.847   2.057  24.864  0.00  0.00    +0.171 C 
ATOM     11  C   UNL     1      -2.903  -0.518  26.018  0.00  0.00    +0.185 C 
ATOM     12  C   UNL     1      -5.713   0.827  24.704  0.00  0.00    +0.194 C 
BRANCH  10   3
ATOM      3  O   UNL     1      -5.176   2.790  26.021  0.00  0.00    -0.387 OA
ATOM     22  H   UNL     1      -5.357   2.157  26.737  0.00  0.00    +0.210 HD
ENDBRANCH  10   3
ENDBRANCH   6   9
BRANCH  13  14
ATOM     14  C   UNL     1       0.624   0.497  23.178  0.00  0.00    +0.037 A 
ATOM     15  C   UNL     1       1.423   1.471  23.741  0.00  0.00    +0.016 A 
ATOM     16  C   UNL     1       1.129  -0.474  22.337  0.00  0.00    +0.016 A 
ATOM     17  C   UNL     1       2.788   1.473  23.451  0.00  0.00    +0.046 A 
ATOM     18  C   UNL     1       2.494  -0.471  22.048  0.00  0.00    +0.046 A 
ATOM     19  C   UNL     1       3.323   0.502  22.605  0.00  0.00    +0.120 A 
BRANCH  19   5
ATOM      5  O   UNL     1       4.655   0.506  22.321  0.00  0.00    -0.495 OA
ATOM     20  C   UNL     1       5.540   0.091  23.359  0.00  0.00    +0.277 C 
ENDBRANCH  19   5
ENDBRANCH  13  14
TORSDOF 4
ENDMDL
MODEL 9
REMARK VINA RESULT:       1.1     15.246     18.092
REMARK  Name = 11884337
REMARK  5 active torsions:
REMARK  status: ('A' for Active; 'I' for Inactive)
REMARK    1  A    between atoms: O_3  and  C_10
REMARK    2  A    between atoms: O_5  and  C_19
REMARK    3  A    between atoms: O_5  and  C_20
REMARK    4  A    between atoms: N_6  and  C_9
REMARK    5  A    between atoms: C_13  and  C_14
REMARK                            x       y       z     vdW  Elec       q    Type
REMARK                         _______ _______ _______ _____ _____    ______ ____
ROOT
ATOM      4  O   UNL     1      -2.373  -0.290  24.357  0.00  0.00    -0.270 OA
ATOM      6  N   UNL     1      -0.927   1.357  25.118  0.00  0.00    -0.304 N 
ATOM     13  C   UNL     1      -2.177   0.831  24.818  0.00  0.00    +0.244 C 
ATOM     21  H   UNL     1      -0.832   2.329  25.392  0.00  0.00    +0.149 HD
ENDROOT
BRANCH   6   9
ATOM      1  O   UNL     1      -0.113  -0.852  23.073  0.00  0.00    -0.369 OA
ATOM      2  O   UNL     1       2.440   0.682  23.753  0.00  0.00    -0.369 OA
ATOM      7  C   UNL     1       1.062   1.109  23.692  0.00  0.00    +0.172 C 
ATOM      8  C   UNL     1       0.426   0.368  22.533  0.00  0.00    +0.179 C 
ATOM      9  C   UNL     1       0.311   0.609  24.907  0.00  0.00    +0.130 C 
ATOM     10  C   UNL     1       1.605   0.104  21.628  0.00  0.00    +0.171 C 
ATOM     11  C   UNL     1      -0.011  -0.823  24.504  0.00  0.00    +0.185 C 
ATOM     12  C   UNL     1       2.716  -0.156  22.621  0.00  0.00    +0.194 C 
BRANCH  10   3
ATOM      3  O   UNL     1       1.410  -0.984  20.754  0.00  0.00    -0.387 OA
ATOM     22  H   UNL     1       1.000  -0.646  19.939  0.00  0.00    +0.210 HD
ENDBRANCH  10   3
ENDBRANCH   6   9
BRANCH  13  14
ATOM     14  C   UNL     1      -3.336   1.727  25.066  0.00  0.00    +0.037 A 
ATOM     15  C   UNL     1      -4.604   1.185  25.081  0.00  0.00    +0.016 A 
ATOM     16  C   UNL     1      -3.107   3.072  25.271  0.00  0.00    +0.016 A 
ATOM     17  C   UNL     1      -5.693   2.027  25.313  0.00  0.00    +0.046 A 
ATOM     18  C   UNL     1      -4.196   3.913  25.502  0.00  0.00    +0.046 A 
ATOM     19  C   UNL     1      -5.488   3.390  25.523  0.00  0.00    +0.120 A 
BRANCH  19   5
ATOM      5  O   UNL     1      -6.551   4.211  25.747  0.00  0.00    -0.495 OA
ATOM     20  C   UNL     1      -6.416   5.572  25.341  0.00  0.00    +0.277 C 
ENDBRANCH  19   5
ENDBRANCH  13  14
TORSDOF 4
ENDMDL
