MODEL 1
REMARK VINA RESULT:      -0.9      0.000      0.000
REMARK  Name = 25338464
REMARK  6 active torsions:
REMARK  status: ('A' for Active; 'I' for Inactive)
REMARK    1  A    between atoms: S_1  and  N_6
REMARK    2  A    between atoms: S_1  and  C_17
REMARK    3  A    between atoms: N_5  and  C_16
REMARK    4  A    between atoms: N_6  and  C_11
REMARK    5  A    between atoms: C_12  and  C_15
REMARK    6  A    between atoms: C_18  and  C_22
REMARK                            x       y       z     vdW  Elec       q    Type
REMARK                         _______ _______ _______ _____ _____    ______ ____
ROOT
ATOM      5  N   UNL     1      -2.390  -1.531  24.907  0.00  0.00    -0.293 NA
ATOM     11  C   UNL     1      -4.228  -0.149  24.525  0.00  0.00    +0.092 C 
ATOM     12  C   UNL     1      -2.133  -0.967  23.568  0.00  0.00    +0.147 C 
ATOM     13  C   UNL     1      -3.259   0.065  23.362  0.00  0.00    +0.050 C 
ATOM     14  C   UNL     1      -3.846  -1.514  25.078  0.00  0.00    +0.105 C 
ATOM     16  C   UNL     1      -1.838  -2.869  25.081  0.00  0.00    +0.105 C 
ENDROOT
BRANCH  12  15
ATOM      2  O   UNL     1      -0.705   0.967  23.136  0.00  0.00    -0.336 OA
ATOM      7  N   UNL     1       0.419  -0.929  23.530  0.00  0.00    -0.190 NA
ATOM      8  N   UNL     1       0.654   1.294  23.049  0.00  0.00    -0.056 NA
ATOM     15  C   UNL     1      -0.755  -0.360  23.422  0.00  0.00    +0.245 A 
ATOM     18  C   UNL     1       1.252   0.124  23.293  0.00  0.00    +0.202 A 
BRANCH  18  22
ATOM     10  N   UNL     1       5.458  -0.315  23.341  0.00  0.00    -0.263 NA
ATOM     22  C   UNL     1       2.678  -0.025  23.309  0.00  0.00    +0.025 A 
ATOM     27  C   UNL     1       3.251  -1.217  23.739  0.00  0.00    +0.031 A 
ATOM     28  C   UNL     1       3.494   1.022  22.895  0.00  0.00    +0.031 A 
ATOM     30  C   UNL     1       4.634  -1.310  23.736  0.00  0.00    +0.111 A 
ATOM     31  C   UNL     1       4.867   0.828  22.929  0.00  0.00    +0.111 A 
ENDBRANCH  18  22
ENDBRANCH  12  15
BRANCH  11   6
ATOM      6  N   UNL     1      -4.091   0.881  25.527  0.00  0.00    -0.186 NA
ATOM     32  H   UNL     1      -3.744   0.610  26.455  0.00  0.00    +0.148 HD
BRANCH   6   1
ATOM      1  S   UNL     1      -4.844   2.384  25.299  0.00  0.00    +0.061 S 
ATOM      3  O   UNL     1      -5.560   2.755  26.504  0.00  0.00    -0.153 OA
ATOM      4  O   UNL     1      -5.525   2.375  24.018  0.00  0.00    -0.153 OA
BRANCH   1  17
ATOM      9  N   UNL     1      -1.998   1.812  26.013  0.00  0.00    -0.253 NA
ATOM     17  C   UNL     1      -3.456   3.467  25.136  0.00  0.00    +0.131 A 
ATOM     19  C   UNL     1      -2.183   3.050  25.516  0.00  0.00    +0.097 A 
ATOM     20  C   UNL     1      -3.683   4.744  24.618  0.00  0.00    +0.031 A 
ATOM     21  C   UNL     1      -1.114   3.957  25.364  0.00  0.00    +0.002 A 
ATOM     23  C   UNL     1      -2.625   5.633  24.471  0.00  0.00    +0.003 A 
ATOM     24  C   UNL     1      -1.343   5.242  24.842  0.00  0.00    +0.010 A 
ATOM     25  C   UNL     1       0.168   3.538  25.746  0.00  0.00    +0.011 A 
ATOM     26  C   UNL     1      -0.745   1.446  26.370  0.00  0.00    +0.111 A 
ATOM     29  C   UNL     1       0.361   2.263  26.259  0.00  0.00    +0.020 A 
ENDBRANCH   1  17
ENDBRANCH   6   1
ENDBRANCH  11   6
TORSDOF 5
ENDMDL
MODEL 2
REMARK VINA RESULT:      -0.9      1.467      3.899
REMARK  Name = 25338464
REMARK  6 active torsions:
REMARK  status: ('A' for Active; 'I' for Inactive)
REMARK    1  A    between atoms: S_1  and  N_6
REMARK    2  A    between atoms: S_1  and  C_17
REMARK    3  A    between atoms: N_5  and  C_16
REMARK    4  A    between atoms: N_6  and  C_11
REMARK    5  A    between atoms: C_12  and  C_15
REMARK    6  A    between atoms: C_18  and  C_22
REMARK                            x       y       z     vdW  Elec       q    Type
REMARK                         _______ _______ _______ _____ _____    ______ ____
ROOT
ATOM      5  N   UNL     1      -2.400   2.267  22.909  0.00  0.00    -0.293 NA
ATOM     11  C   UNL     1      -2.872   3.126  25.023  0.00  0.00    +0.092 C 
ATOM     12  C   UNL     1      -1.084   2.704  23.412  0.00  0.00    +0.147 C 
ATOM     13  C   UNL     1      -1.351   3.134  24.868  0.00  0.00    +0.050 C 
ATOM     14  C   UNL     1      -3.390   3.104  23.594  0.00  0.00    +0.105 C 
ATOM     16  C   UNL     1      -2.519   2.361  21.458  0.00  0.00    +0.105 C 
ENDROOT
BRANCH  12  15
ATOM      2  O   UNL     1      -0.426   0.400  22.934  0.00  0.00    -0.336 OA
ATOM      7  N   UNL     1       1.273   1.730  23.531  0.00  0.00    -0.190 NA
ATOM      8  N   UNL     1       0.722  -0.401  22.910  0.00  0.00    -0.056 NA
ATOM     15  C   UNL     1      -0.013   1.639  23.309  0.00  0.00    +0.245 A 
ATOM     18  C   UNL     1       1.682   0.455  23.273  0.00  0.00    +0.202 A 
BRANCH  18  22
ATOM     10  N   UNL     1       5.741  -0.687  23.609  0.00  0.00    -0.263 NA
ATOM     22  C   UNL     1       3.058   0.067  23.387  0.00  0.00    +0.025 A 
ATOM     27  C   UNL     1       3.390  -1.236  23.742  0.00  0.00    +0.031 A 
ATOM     28  C   UNL     1       4.066   0.993  23.142  0.00  0.00    +0.031 A 
ATOM     30  C   UNL     1       4.734  -1.559  23.839  0.00  0.00    +0.111 A 
ATOM     31  C   UNL     1       5.381   0.570  23.266  0.00  0.00    +0.111 A 
ENDBRANCH  18  22
ENDBRANCH  12  15
BRANCH  11   6
ATOM      6  N   UNL     1      -3.324   1.973  25.765  0.00  0.00    -0.186 NA
ATOM     32  H   UNL     1      -2.655   1.508  26.391  0.00  0.00    +0.148 HD
BRANCH   6   1
ATOM      1  S   UNL     1      -4.763   1.194  25.318  0.00  0.00    +0.061 S 
ATOM      3  O   UNL     1      -5.344   1.869  24.174  0.00  0.00    -0.153 OA
ATOM      4  O   UNL     1      -5.556   0.961  26.510  0.00  0.00    -0.153 OA
BRANCH   1  17
ATOM      9  N   UNL     1      -2.094  -0.034  25.867  0.00  0.00    -0.253 NA
ATOM     17  C   UNL     1      -4.173  -0.382  24.777  0.00  0.00    +0.131 A 
ATOM     19  C   UNL     1      -2.894  -0.816  25.119  0.00  0.00    +0.097 A 
ATOM     20  C   UNL     1      -5.029  -1.168  24.002  0.00  0.00    +0.031 A 
ATOM     21  C   UNL     1      -2.478  -2.083  24.658  0.00  0.00    +0.002 A 
ATOM     23  C   UNL     1      -4.613  -2.414  23.552  0.00  0.00    +0.003 A 
ATOM     24  C   UNL     1      -3.340  -2.873  23.878  0.00  0.00    +0.010 A 
ATOM     25  C   UNL     1      -1.191  -2.520  25.001  0.00  0.00    +0.011 A 
ATOM     26  C   UNL     1      -0.859  -0.493  26.177  0.00  0.00    +0.111 A 
ATOM     29  C   UNL     1      -0.364  -1.716  25.772  0.00  0.00    +0.020 A 
ENDBRANCH   1  17
ENDBRANCH   6   1
ENDBRANCH  11   6
TORSDOF 5
ENDMDL
MODEL 3
REMARK VINA RESULT:      -0.2      1.821      4.405
REMARK  Name = 25338464
REMARK  6 active torsions:
REMARK  status: ('A' for Active; 'I' for Inactive)
REMARK    1  A    between atoms: S_1  and  N_6
REMARK    2  A    between atoms: S_1  and  C_17
REMARK    3  A    between atoms: N_5  and  C_16
REMARK    4  A    between atoms: N_6  and  C_11
REMARK    5  A    between atoms: C_12  and  C_15
REMARK    6  A    between atoms: C_18  and  C_22
REMARK                            x       y       z     vdW  Elec       q    Type
REMARK                         _______ _______ _______ _____ _____    ______ ____
ROOT
ATOM      5  N   UNL     1      -2.054   4.806  25.147  0.00  0.00    -0.293 NA
ATOM     11  C   UNL     1      -4.026   4.318  26.290  0.00  0.00    +0.092 C 
ATOM     12  C   UNL     1      -1.652   3.766  26.113  0.00  0.00    +0.147 C 
ATOM     13  C   UNL     1      -2.973   3.322  26.773  0.00  0.00    +0.050 C 
ATOM     14  C   UNL     1      -3.213   5.481  25.741  0.00  0.00    +0.105 C 
ATOM     16  C   UNL     1      -0.981   5.743  24.834  0.00  0.00    +0.105 C 
ENDROOT
BRANCH  12  15
ATOM      2  O   UNL     1      -1.171   1.375  25.971  0.00  0.00    -0.336 OA
ATOM      7  N   UNL     1      -0.014   2.628  24.520  0.00  0.00    -0.190 NA
ATOM      8  N   UNL     1      -0.369   0.487  25.244  0.00  0.00    -0.056 NA
ATOM     15  C   UNL     1      -0.902   2.613  25.482  0.00  0.00    +0.245 A 
ATOM     18  C   UNL     1       0.284   1.301  24.409  0.00  0.00    +0.202 A 
BRANCH  18  22
ATOM     10  N   UNL     1       3.097  -0.115  21.586  0.00  0.00    -0.263 NA
ATOM     22  C   UNL     1       1.238   0.821  23.452  0.00  0.00    +0.025 A 
ATOM     27  C   UNL     1       2.543   1.302  23.465  0.00  0.00    +0.031 A 
ATOM     28  C   UNL     1       0.862  -0.127  22.507  0.00  0.00    +0.031 A 
ATOM     30  C   UNL     1       3.426   0.807  22.518  0.00  0.00    +0.111 A 
ATOM     31  C   UNL     1       1.820  -0.559  21.603  0.00  0.00    +0.111 A 
ENDBRANCH  18  22
ENDBRANCH  12  15
BRANCH  11   6
ATOM      6  N   UNL     1      -4.874   3.744  25.273  0.00  0.00    -0.186 NA
ATOM     32  H   UNL     1      -5.120   4.327  24.463  0.00  0.00    +0.148 HD
BRANCH   6   1
ATOM      1  S   UNL     1      -5.738   2.321  25.599  0.00  0.00    +0.061 S 
ATOM      3  O   UNL     1      -6.970   2.316  24.834  0.00  0.00    -0.153 OA
ATOM      4  O   UNL     1      -5.770   2.115  27.035  0.00  0.00    -0.153 OA
BRANCH   1  17
ATOM      9  N   UNL     1      -3.911   2.581  23.249  0.00  0.00    -0.253 NA
ATOM     17  C   UNL     1      -4.673   1.083  24.924  0.00  0.00    +0.131 A 
ATOM     19  C   UNL     1      -3.876   1.360  23.817  0.00  0.00    +0.097 A 
ATOM     20  C   UNL     1      -4.662  -0.172  25.537  0.00  0.00    +0.031 A 
ATOM     21  C   UNL     1      -3.046   0.333  23.322  0.00  0.00    +0.002 A 
ATOM     23  C   UNL     1      -3.843  -1.180  25.045  0.00  0.00    +0.003 A 
ATOM     24  C   UNL     1      -3.036  -0.930  23.939  0.00  0.00    +0.010 A 
ATOM     25  C   UNL     1      -2.244   0.612  22.207  0.00  0.00    +0.011 A 
ATOM     26  C   UNL     1      -3.120   2.809  22.175  0.00  0.00    +0.111 A 
ATOM     29  C   UNL     1      -2.278   1.868  21.620  0.00  0.00    +0.020 A 
ENDBRANCH   1  17
ENDBRANCH   6   1
ENDBRANCH  11   6
TORSDOF 5
ENDMDL
MODEL 4
REMARK VINA RESULT:       0.5      1.687      4.238
REMARK  Name = 25338464
REMARK  6 active torsions:
REMARK  status: ('A' for Active; 'I' for Inactive)
REMARK    1  A    between atoms: S_1  and  N_6
REMARK    2  A    between atoms: S_1  and  C_17
REMARK    3  A    between atoms: N_5  and  C_16
REMARK    4  A    between atoms: N_6  and  C_11
REMARK    5  A    between atoms: C_12  and  C_15
REMARK    6  A    between atoms: C_18  and  C_22
REMARK                            x       y       z     vdW  Elec       q    Type
REMARK                         _______ _______ _______ _____ _____    ______ ____
ROOT
ATOM      5  N   UNL     1      -1.979   4.920  25.104  0.00  0.00    -0.293 NA
ATOM     11  C   UNL     1      -3.996   4.464  26.178  0.00  0.00    +0.092 C 
ATOM     12  C   UNL     1      -1.625   3.880  26.088  0.00  0.00    +0.147 C 
ATOM     13  C   UNL     1      -2.973   3.457  26.704  0.00  0.00    +0.050 C 
ATOM     14  C   UNL     1      -3.149   5.613  25.653  0.00  0.00    +0.105 C 
ATOM     16  C   UNL     1      -0.883   5.842  24.824  0.00  0.00    +0.105 C 
ENDROOT
BRANCH  12  15
ATOM      2  O   UNL     1      -1.096   1.495  26.044  0.00  0.00    -0.336 OA
ATOM      7  N   UNL     1      -0.008   2.702  24.503  0.00  0.00    -0.190 NA
ATOM      8  N   UNL     1      -0.295   0.591  25.335  0.00  0.00    -0.056 NA
ATOM     15  C   UNL     1      -0.867   2.715  25.490  0.00  0.00    +0.245 A 
ATOM     18  C   UNL     1       0.316   1.378  24.445  0.00  0.00    +0.202 A 
BRANCH  18  22
ATOM     10  N   UNL     1       3.078  -0.112  21.610  0.00  0.00    -0.263 NA
ATOM     22  C   UNL     1       1.252   0.873  23.484  0.00  0.00    +0.025 A 
ATOM     27  C   UNL     1       0.853  -0.083  22.555  0.00  0.00    +0.031 A 
ATOM     28  C   UNL     1       2.563   1.337  23.475  0.00  0.00    +0.031 A 
ATOM     30  C   UNL     1       1.796  -0.539  21.648  0.00  0.00    +0.111 A 
ATOM     31  C   UNL     1       3.430   0.817  22.527  0.00  0.00    +0.111 A 
ENDBRANCH  18  22
ENDBRANCH  12  15
BRANCH  11   6
ATOM      6  N   UNL     1      -4.815   3.895  25.135  0.00  0.00    -0.186 NA
ATOM     32  H   UNL     1      -5.287   4.537  24.486  0.00  0.00    +0.148 HD
BRANCH   6   1
ATOM      1  S   UNL     1      -5.289   2.269  25.226  0.00  0.00    +0.061 S 
ATOM      3  O   UNL     1      -6.592   2.108  24.610  0.00  0.00    -0.153 OA
ATOM      4  O   UNL     1      -5.055   1.790  26.576  0.00  0.00    -0.153 OA
BRANCH   1  17
ATOM      9  N   UNL     1      -4.199  -0.502  25.486  0.00  0.00    -0.253 NA
ATOM     17  C   UNL     1      -4.095   1.481  24.187  0.00  0.00    +0.131 A 
ATOM     19  C   UNL     1      -3.686   0.175  24.441  0.00  0.00    +0.097 A 
ATOM     20  C   UNL     1      -3.584   2.212  23.113  0.00  0.00    +0.031 A 
ATOM     21  C   UNL     1      -2.731  -0.401  23.578  0.00  0.00    +0.002 A 
ATOM     23  C   UNL     1      -2.643   1.639  22.266  0.00  0.00    +0.003 A 
ATOM     24  C   UNL     1      -2.216   0.335  22.496  0.00  0.00    +0.010 A 
ATOM     25  C   UNL     1      -2.318  -1.716  23.833  0.00  0.00    +0.011 A 
ATOM     26  C   UNL     1      -3.774  -1.770  25.697  0.00  0.00    +0.111 A 
ATOM     29  C   UNL     1      -2.845  -2.416  24.909  0.00  0.00    +0.020 A 
ENDBRANCH   1  17
ENDBRANCH   6   1
ENDBRANCH  11   6
TORSDOF 5
ENDMDL
MODEL 5
REMARK VINA RESULT:       1.1      0.879      2.155
REMARK  Name = 25338464
REMARK  6 active torsions:
REMARK  status: ('A' for Active; 'I' for Inactive)
REMARK    1  A    between atoms: S_1  and  N_6
REMARK    2  A    between atoms: S_1  and  C_17
REMARK    3  A    between atoms: N_5  and  C_16
REMARK    4  A    between atoms: N_6  and  C_11
REMARK    5  A    between atoms: C_12  and  C_15
REMARK    6  A    between atoms: C_18  and  C_22
REMARK                            x       y       z     vdW  Elec       q    Type
REMARK                         _______ _______ _______ _____ _____    ______ ____
ROOT
ATOM      5  N   UNL     1      -2.195  -2.178  25.008  0.00  0.00    -0.293 NA
ATOM     11  C   UNL     1      -4.212  -1.078  24.619  0.00  0.00    +0.092 C 
ATOM     12  C   UNL     1      -2.046  -1.644  23.640  0.00  0.00    +0.147 C 
ATOM     13  C   UNL     1      -3.307  -0.785  23.422  0.00  0.00    +0.050 C 
ATOM     14  C   UNL     1      -3.636  -2.352  25.217  0.00  0.00    +0.105 C 
ATOM     16  C   UNL     1      -1.460  -3.420  25.222  0.00  0.00    +0.105 C 
ENDROOT
BRANCH  12  15
ATOM      2  O   UNL     1      -0.906   0.435  23.053  0.00  0.00    -0.336 OA
ATOM      7  N   UNL     1       0.475  -1.253  23.563  0.00  0.00    -0.190 NA
ATOM      8  N   UNL     1       0.393   0.942  22.925  0.00  0.00    -0.056 NA
ATOM     15  C   UNL     1      -0.767  -0.862  23.433  0.00  0.00    +0.245 A 
ATOM     18  C   UNL     1       1.151  -0.112  23.241  0.00  0.00    +0.202 A 
BRANCH  18  22
ATOM     10  N   UNL     1       5.377   0.046  23.259  0.00  0.00    -0.263 NA
ATOM     22  C   UNL     1       2.584  -0.059  23.247  0.00  0.00    +0.025 A 
ATOM     27  C   UNL     1       3.242   1.084  22.804  0.00  0.00    +0.031 A 
ATOM     28  C   UNL     1       3.321  -1.148  23.697  0.00  0.00    +0.031 A 
ATOM     30  C   UNL     1       4.627   1.085  22.829  0.00  0.00    +0.111 A 
ATOM     31  C   UNL     1       4.704  -1.047  23.682  0.00  0.00    +0.111 A 
ENDBRANCH  18  22
ENDBRANCH  12  15
BRANCH  11   6
ATOM      6  N   UNL     1      -4.198   0.005  25.573  0.00  0.00    -0.186 NA
ATOM     32  H   UNL     1      -4.407  -0.214  26.555  0.00  0.00    +0.148 HD
BRANCH   6   1
ATOM      1  S   UNL     1      -4.226   1.611  25.028  0.00  0.00    +0.061 S 
ATOM      3  O   UNL     1      -5.117   2.391  25.864  0.00  0.00    -0.153 OA
ATOM      4  O   UNL     1      -4.390   1.611  23.587  0.00  0.00    -0.153 OA
BRANCH   1  17
ATOM      9  N   UNL     1      -3.047   4.313  24.539  0.00  0.00    -0.253 NA
ATOM     17  C   UNL     1      -2.571   2.138  25.358  0.00  0.00    +0.131 A 
ATOM     19  C   UNL     1      -2.171   3.441  25.071  0.00  0.00    +0.097 A 
ATOM     20  C   UNL     1      -1.689   1.207  25.910  0.00  0.00    +0.031 A 
ATOM     21  C   UNL     1      -0.838   3.804  25.355  0.00  0.00    +0.002 A 
ATOM     23  C   UNL     1      -0.377   1.571  26.188  0.00  0.00    +0.003 A 
ATOM     24  C   UNL     1       0.049   2.867  25.912  0.00  0.00    +0.010 A 
ATOM     25  C   UNL     1      -0.436   5.115  25.067  0.00  0.00    +0.011 A 
ATOM     26  C   UNL     1      -2.619   5.570  24.276  0.00  0.00    +0.111 A 
ATOM     29  C   UNL     1      -1.336   6.017  24.518  0.00  0.00    +0.020 A 
ENDBRANCH   1  17
ENDBRANCH   6   1
ENDBRANCH  11   6
TORSDOF 5
ENDMDL
MODEL 6
REMARK VINA RESULT:       1.8      1.578      2.156
REMARK  Name = 25338464
REMARK  6 active torsions:
REMARK  status: ('A' for Active; 'I' for Inactive)
REMARK    1  A    between atoms: S_1  and  N_6
REMARK    2  A    between atoms: S_1  and  C_17
REMARK    3  A    between atoms: N_5  and  C_16
REMARK    4  A    between atoms: N_6  and  C_11
REMARK    5  A    between atoms: C_12  and  C_15
REMARK    6  A    between atoms: C_18  and  C_22
REMARK                            x       y       z     vdW  Elec       q    Type
REMARK                         _______ _______ _______ _____ _____    ______ ____
ROOT
ATOM      5  N   UNL     1      -2.139  -1.006  25.832  0.00  0.00    -0.293 NA
ATOM     11  C   UNL     1      -3.939  -1.862  24.623  0.00  0.00    +0.092 C 
ATOM     12  C   UNL     1      -1.517  -1.983  24.918  0.00  0.00    +0.147 C 
ATOM     13  C   UNL     1      -2.669  -2.449  24.007  0.00  0.00    +0.050 C 
ATOM     14  C   UNL     1      -3.519  -1.463  26.030  0.00  0.00    +0.105 C 
ATOM     16  C   UNL     1      -1.426  -0.867  27.096  0.00  0.00    +0.105 C 
ENDROOT
BRANCH  12  15
ATOM      2  O   UNL     1      -0.615  -0.991  22.876  0.00  0.00    -0.336 OA
ATOM      7  N   UNL     1       0.902  -1.284  24.497  0.00  0.00    -0.190 NA
ATOM      8  N   UNL     1       0.600  -0.523  22.362  0.00  0.00    -0.056 NA
ATOM     15  C   UNL     1      -0.349  -1.421  24.137  0.00  0.00    +0.245 A 
ATOM     18  C   UNL     1       1.446  -0.729  23.376  0.00  0.00    +0.202 A 
BRANCH  18  22
ATOM     10  N   UNL     1       5.550   0.268  23.156  0.00  0.00    -0.263 NA
ATOM     22  C   UNL     1       2.837  -0.391  23.301  0.00  0.00    +0.025 A 
ATOM     27  C   UNL     1       3.796  -1.262  23.808  0.00  0.00    +0.031 A 
ATOM     28  C   UNL     1       3.234   0.809  22.721  0.00  0.00    +0.031 A 
ATOM     30  C   UNL     1       5.127  -0.889  23.712  0.00  0.00    +0.111 A 
ATOM     31  C   UNL     1       4.591   1.090  22.674  0.00  0.00    +0.111 A 
ENDBRANCH  18  22
ENDBRANCH  12  15
BRANCH  11   6
ATOM      6  N   UNL     1      -4.417  -0.724  23.875  0.00  0.00    -0.186 NA
ATOM     32  H   UNL     1      -4.296  -0.732  22.855  0.00  0.00    +0.148 HD
BRANCH   6   1
ATOM      1  S   UNL     1      -4.794   0.719  24.683  0.00  0.00    +0.061 S 
ATOM      3  O   UNL     1      -4.781   0.490  26.115  0.00  0.00    -0.153 OA
ATOM      4  O   UNL     1      -5.954   1.318  24.049  0.00  0.00    -0.153 OA
BRANCH   1  17
ATOM      9  N   UNL     1      -3.993   3.292  25.975  0.00  0.00    -0.253 NA
ATOM     17  C   UNL     1      -3.406   1.736  24.282  0.00  0.00    +0.131 A 
ATOM     19  C   UNL     1      -3.165   2.916  24.982  0.00  0.00    +0.097 A 
ATOM     20  C   UNL     1      -2.568   1.317  23.247  0.00  0.00    +0.031 A 
ATOM     21  C   UNL     1      -2.042   3.687  24.618  0.00  0.00    +0.002 A 
ATOM     23  C   UNL     1      -1.463   2.081  22.892  0.00  0.00    +0.003 A 
ATOM     24  C   UNL     1      -1.199   3.264  23.576  0.00  0.00    +0.010 A 
ATOM     25  C   UNL     1      -1.799   4.874  25.322  0.00  0.00    +0.011 A 
ATOM     26  C   UNL     1      -3.723   4.444  26.631  0.00  0.00    +0.111 A 
ATOM     29  C   UNL     1      -2.651   5.264  26.346  0.00  0.00    +0.020 A 
ENDBRANCH   1  17
ENDBRANCH   6   1
ENDBRANCH  11   6
TORSDOF 5
ENDMDL
