MODEL 1
REMARK VINA RESULT:      -5.0      0.000      0.000
REMARK  Name = 75536691
REMARK  9 active torsions:
REMARK  status: ('A' for Active; 'I' for Inactive)
REMARK    1  A    between atoms: S_1  and  N_7
REMARK    2  A    between atoms: S_1  and  C_17
REMARK    3  A    between atoms: O_3  and  C_11
REMARK    4  A    between atoms: N_6  and  C_10
REMARK    5  A    between atoms: N_6  and  C_15
REMARK    6  A    between atoms: N_7  and  C_14
REMARK    7  A    between atoms: N_8  and  C_19
REMARK    8  A    between atoms: C_12  and  C_14
REMARK    9  A    between atoms: C_15  and  C_16
REMARK                            x       y       z     vdW  Elec       q    Type
REMARK                         _______ _______ _______ _____ _____    ______ ____
ROOT
ATOM      2  O   UNL     1      -0.232   3.272  23.626  0.00  0.00    -0.371 OA
ATOM     10  C   UNL     1      -1.138   3.845  25.747  0.00  0.00    +0.111 C 
ATOM     11  C   UNL     1      -0.468   2.486  25.844  0.00  0.00    +0.164 C 
ATOM     12  C   UNL     1       0.465   2.531  24.641  0.00  0.00    +0.164 C 
ATOM     13  C   UNL     1      -1.320   3.982  24.243  0.00  0.00    +0.181 C 
ENDROOT
BRANCH  11   3
ATOM      3  O   UNL     1       0.240   2.313  27.056  0.00  0.00    -0.388 OA
ATOM     27  H   UNL     1       0.837   3.072  27.172  0.00  0.00    +0.210 HD
ENDBRANCH  11   3
BRANCH  10   6
ATOM      6  N   UNL     1      -2.391   3.932  26.478  0.00  0.00    -0.302 NA
ATOM     26  H   UNL     1      -2.281   4.591  27.250  0.00  0.00    +0.123 HD
BRANCH   6  15
ATOM     15  C   UNL     1      -3.472   4.391  25.615  0.00  0.00    +0.156 C 
BRANCH  15  16
ATOM      8  N   UNL     1      -4.811   2.607  24.452  0.00  0.00    -0.336 N 
ATOM      9  N   UNL     1      -5.482   3.163  26.494  0.00  0.00    -0.239 NA
ATOM     16  C   UNL     1      -4.599   3.393  25.549  0.00  0.00    +0.123 A 
ATOM     18  C   UNL     1      -5.899   1.823  24.714  0.00  0.00    +0.106 A 
ATOM     19  C   UNL     1      -4.038   2.591  23.232  0.00  0.00    +0.150 C 
ATOM     20  C   UNL     1      -6.296   2.184  25.979  0.00  0.00    +0.130 A 
ENDBRANCH  15  16
ENDBRANCH   6  15
ENDBRANCH  10   6
BRANCH  12  14
ATOM     14  C   UNL     1       0.831   1.156  24.114  0.00  0.00    +0.140 C 
BRANCH  14   7
ATOM      7  N   UNL     1      -0.383   0.322  24.023  0.00  0.00    -0.187 NA
ATOM     28  H   UNL     1      -1.195   0.762  23.573  0.00  0.00    +0.148 HD
BRANCH   7   1
ATOM      1  S   UNL     1      -0.658  -0.910  25.165  0.00  0.00    +0.058 S 
ATOM      4  O   UNL     1      -0.846  -0.316  26.474  0.00  0.00    -0.153 OA
ATOM      5  O   UNL     1       0.324  -1.959  24.972  0.00  0.00    -0.153 OA
BRANCH   1  17
ATOM     17  C   UNL     1      -2.215  -1.556  24.631  0.00  0.00    +0.105 A 
ATOM     21  C   UNL     1      -3.251  -0.685  24.290  0.00  0.00    +0.028 A 
ATOM     22  C   UNL     1      -2.409  -2.934  24.555  0.00  0.00    +0.028 A 
ATOM     23  C   UNL     1      -4.481  -1.195  23.873  0.00  0.00    +0.002 A 
ATOM     24  C   UNL     1      -3.639  -3.444  24.138  0.00  0.00    +0.002 A 
ATOM     25  C   UNL     1      -4.675  -2.574  23.797  0.00  0.00    +0.000 A 
ENDBRANCH   1  17
ENDBRANCH   7   1
ENDBRANCH  14   7
ENDBRANCH  12  14
TORSDOF 8
ENDMDL
MODEL 2
REMARK VINA RESULT:      -5.0      2.821      5.953
REMARK  Name = 75536691
REMARK  9 active torsions:
REMARK  status: ('A' for Active; 'I' for Inactive)
REMARK    1  A    between atoms: S_1  and  N_7
REMARK    2  A    between atoms: S_1  and  C_17
REMARK    3  A    between atoms: O_3  and  C_11
REMARK    4  A    between atoms: N_6  and  C_10
REMARK    5  A    between atoms: N_6  and  C_15
REMARK    6  A    between atoms: N_7  and  C_14
REMARK    7  A    between atoms: N_8  and  C_19
REMARK    8  A    between atoms: C_12  and  C_14
REMARK    9  A    between atoms: C_15  and  C_16
REMARK                            x       y       z     vdW  Elec       q    Type
REMARK                         _______ _______ _______ _____ _____    ______ ____
ROOT
ATOM      2  O   UNL     1      -0.260   3.339  25.624  0.00  0.00    -0.371 OA
ATOM     10  C   UNL     1       0.298   1.652  24.047  0.00  0.00    +0.111 C 
ATOM     11  C   UNL     1      -1.194   1.919  23.980  0.00  0.00    +0.164 C 
ATOM     12  C   UNL     1      -1.273   3.305  24.606  0.00  0.00    +0.164 C 
ATOM     13  C   UNL     1       0.649   2.247  25.402  0.00  0.00    +0.181 C 
ENDROOT
BRANCH  11   3
ATOM      3  O   UNL     1      -1.690   1.908  22.655  0.00  0.00    -0.388 OA
ATOM     27  H   UNL     1      -1.479   1.048  22.257  0.00  0.00    +0.210 HD
ENDBRANCH  11   3
BRANCH  10   6
ATOM      6  N   UNL     1       0.645   0.245  23.941  0.00  0.00    -0.302 NA
ATOM     26  H   UNL     1      -0.211  -0.305  23.861  0.00  0.00    +0.123 HD
BRANCH   6  15
ATOM     15  C   UNL     1       1.477  -0.004  22.768  0.00  0.00    +0.156 C 
BRANCH  15  16
ATOM      8  N   UNL     1       3.910   0.597  22.986  0.00  0.00    -0.336 N 
ATOM      9  N   UNL     1       3.338  -1.441  23.657  0.00  0.00    -0.239 NA
ATOM     16  C   UNL     1       2.902  -0.311  23.147  0.00  0.00    +0.123 A 
ATOM     18  C   UNL     1       5.065   0.010  23.422  0.00  0.00    +0.106 A 
ATOM     19  C   UNL     1       3.796   1.936  22.456  0.00  0.00    +0.150 C 
ATOM     20  C   UNL     1       4.687  -1.247  23.830  0.00  0.00    +0.130 A 
ENDBRANCH  15  16
ENDBRANCH   6  15
ENDBRANCH  10   6
BRANCH  12  14
ATOM     14  C   UNL     1      -2.628   3.610  25.218  0.00  0.00    +0.140 C 
BRANCH  14   7
ATOM      7  N   UNL     1      -3.237   2.364  25.721  0.00  0.00    -0.187 NA
ATOM     28  H   UNL     1      -2.610   1.741  26.247  0.00  0.00    +0.148 HD
BRANCH   7   1
ATOM      1  S   UNL     1      -4.566   1.676  24.909  0.00  0.00    +0.058 S 
ATOM      4  O   UNL     1      -4.603   2.169  23.546  0.00  0.00    -0.153 OA
ATOM      5  O   UNL     1      -5.739   1.779  25.756  0.00  0.00    -0.153 OA
BRANCH   1  17
ATOM     17  C   UNL     1      -4.114  -0.032  24.859  0.00  0.00    +0.105 A 
ATOM     21  C   UNL     1      -4.555  -0.838  23.809  0.00  0.00    +0.028 A 
ATOM     22  C   UNL     1      -3.321  -0.575  25.869  0.00  0.00    +0.028 A 
ATOM     23  C   UNL     1      -4.202  -2.188  23.770  0.00  0.00    +0.002 A 
ATOM     24  C   UNL     1      -2.969  -1.924  25.831  0.00  0.00    +0.002 A 
ATOM     25  C   UNL     1      -3.409  -2.730  24.781  0.00  0.00    +0.000 A 
ENDBRANCH   1  17
ENDBRANCH   7   1
ENDBRANCH  14   7
ENDBRANCH  12  14
TORSDOF 8
ENDMDL
MODEL 3
REMARK VINA RESULT:      -4.5      2.935      6.926
REMARK  Name = 75536691
REMARK  9 active torsions:
REMARK  status: ('A' for Active; 'I' for Inactive)
REMARK    1  A    between atoms: S_1  and  N_7
REMARK    2  A    between atoms: S_1  and  C_17
REMARK    3  A    between atoms: O_3  and  C_11
REMARK    4  A    between atoms: N_6  and  C_10
REMARK    5  A    between atoms: N_6  and  C_15
REMARK    6  A    between atoms: N_7  and  C_14
REMARK    7  A    between atoms: N_8  and  C_19
REMARK    8  A    between atoms: C_12  and  C_14
REMARK    9  A    between atoms: C_15  and  C_16
REMARK                            x       y       z     vdW  Elec       q    Type
REMARK                         _______ _______ _______ _____ _____    ______ ____
ROOT
ATOM      2  O   UNL     1      -1.808  -2.155  23.957  0.00  0.00    -0.371 OA
ATOM     10  C   UNL     1       0.104  -0.792  24.321  0.00  0.00    +0.111 C 
ATOM     11  C   UNL     1      -1.061  -0.236  25.120  0.00  0.00    +0.164 C 
ATOM     12  C   UNL     1      -1.970  -1.455  25.202  0.00  0.00    +0.164 C 
ATOM     13  C   UNL     1      -0.618  -1.671  23.311  0.00  0.00    +0.181 C 
ENDROOT
BRANCH  11   3
ATOM      3  O   UNL     1      -0.673   0.221  26.402  0.00  0.00    -0.388 OA
ATOM     27  H   UNL     1       0.252  -0.038  26.552  0.00  0.00    +0.210 HD
ENDBRANCH  11   3
BRANCH  10   6
ATOM      6  N   UNL     1       0.924   0.231  23.696  0.00  0.00    -0.302 NA
ATOM     26  H   UNL     1       1.503   0.677  24.409  0.00  0.00    +0.123 HD
BRANCH   6  15
ATOM     15  C   UNL     1       1.793  -0.343  22.675  0.00  0.00    +0.156 C 
BRANCH  15  16
ATOM      8  N   UNL     1       4.128   0.535  23.001  0.00  0.00    -0.336 N 
ATOM      9  N   UNL     1       3.736  -1.515  23.757  0.00  0.00    -0.239 NA
ATOM     16  C   UNL     1       3.215  -0.470  23.156  0.00  0.00    +0.123 A 
ATOM     18  C   UNL     1       5.308   0.103  23.539  0.00  0.00    +0.106 A 
ATOM     19  C   UNL     1       3.906   1.823  22.385  0.00  0.00    +0.150 C 
ATOM     20  C   UNL     1       5.042  -1.164  23.999  0.00  0.00    +0.130 A 
ENDBRANCH  15  16
ENDBRANCH   6  15
ENDBRANCH  10   6
BRANCH  12  14
ATOM     14  C   UNL     1      -3.432  -1.101  25.406  0.00  0.00    +0.140 C 
BRANCH  14   7
ATOM      7  N   UNL     1      -3.559   0.345  25.668  0.00  0.00    -0.187 NA
ATOM     28  H   UNL     1      -3.801   0.605  26.633  0.00  0.00    +0.148 HD
BRANCH   7   1
ATOM      1  S   UNL     1      -3.997   1.404  24.410  0.00  0.00    +0.058 S 
ATOM      4  O   UNL     1      -5.356   1.864  24.622  0.00  0.00    -0.153 OA
ATOM      5  O   UNL     1      -3.615   0.813  23.142  0.00  0.00    -0.153 OA
BRANCH   1  17
ATOM     17  C   UNL     1      -2.910   2.769  24.691  0.00  0.00    +0.105 A 
ATOM     21  C   UNL     1      -3.312   3.822  25.514  0.00  0.00    +0.028 A 
ATOM     22  C   UNL     1      -1.654   2.797  24.087  0.00  0.00    +0.028 A 
ATOM     23  C   UNL     1      -2.456   4.902  25.733  0.00  0.00    +0.002 A 
ATOM     24  C   UNL     1      -0.798   3.877  24.306  0.00  0.00    +0.002 A 
ATOM     25  C   UNL     1      -1.199   4.929  25.129  0.00  0.00    +0.000 A 
ENDBRANCH   1  17
ENDBRANCH   7   1
ENDBRANCH  14   7
ENDBRANCH  12  14
TORSDOF 8
ENDMDL
MODEL 4
REMARK VINA RESULT:      -4.4      1.997      3.896
REMARK  Name = 75536691
REMARK  9 active torsions:
REMARK  status: ('A' for Active; 'I' for Inactive)
REMARK    1  A    between atoms: S_1  and  N_7
REMARK    2  A    between atoms: S_1  and  C_17
REMARK    3  A    between atoms: O_3  and  C_11
REMARK    4  A    between atoms: N_6  and  C_10
REMARK    5  A    between atoms: N_6  and  C_15
REMARK    6  A    between atoms: N_7  and  C_14
REMARK    7  A    between atoms: N_8  and  C_19
REMARK    8  A    between atoms: C_12  and  C_14
REMARK    9  A    between atoms: C_15  and  C_16
REMARK                            x       y       z     vdW  Elec       q    Type
REMARK                         _______ _______ _______ _____ _____    ______ ____
ROOT
ATOM      2  O   UNL     1       0.540  -1.097  23.334  0.00  0.00    -0.371 OA
ATOM     10  C   UNL     1       0.454   1.078  24.286  0.00  0.00    +0.111 C 
ATOM     11  C   UNL     1      -0.600   0.207  24.944  0.00  0.00    +0.164 C 
ATOM     12  C   UNL     1      -0.067  -1.185  24.634  0.00  0.00    +0.164 C 
ATOM     13  C   UNL     1       0.745   0.291  23.018  0.00  0.00    +0.181 C 
ENDROOT
BRANCH  11   3
ATOM      3  O   UNL     1      -0.703   0.434  26.337  0.00  0.00    -0.388 OA
ATOM     27  H   UNL     1      -0.612   1.389  26.497  0.00  0.00    +0.210 HD
ENDBRANCH  11   3
BRANCH  10   6
ATOM      6  N   UNL     1       0.007   2.435  24.020  0.00  0.00    -0.302 NA
ATOM     26  H   UNL     1      -0.970   2.413  23.725  0.00  0.00    +0.123 HD
BRANCH   6  15
ATOM     15  C   UNL     1       0.122   3.269  25.210  0.00  0.00    +0.156 C 
BRANCH  15  16
ATOM      8  N   UNL     1      -1.713   4.983  25.362  0.00  0.00    -0.336 N 
ATOM      9  N   UNL     1      -2.057   3.078  26.448  0.00  0.00    -0.239 NA
ATOM     16  C   UNL     1      -1.222   3.751  25.689  0.00  0.00    +0.123 A 
ATOM     18  C   UNL     1      -2.941   5.105  25.950  0.00  0.00    +0.106 A 
ATOM     19  C   UNL     1      -1.068   5.986  24.545  0.00  0.00    +0.150 C 
ATOM     20  C   UNL     1      -3.131   3.918  26.615  0.00  0.00    +0.130 A 
ENDBRANCH  15  16
ENDBRANCH   6  15
ENDBRANCH  10   6
BRANCH  12  14
ATOM     14  C   UNL     1      -1.145  -2.253  24.626  0.00  0.00    +0.140 C 
BRANCH  14   7
ATOM      7  N   UNL     1      -2.297  -1.788  23.829  0.00  0.00    -0.187 NA
ATOM     28  H   UNL     1      -2.067  -1.247  22.986  0.00  0.00    +0.148 HD
BRANCH   7   1
ATOM      1  S   UNL     1      -3.799  -1.517  24.580  0.00  0.00    +0.058 S 
ATOM      4  O   UNL     1      -3.660  -1.697  26.012  0.00  0.00    -0.153 OA
ATOM      5  O   UNL     1      -4.828  -2.234  23.850  0.00  0.00    -0.153 OA
BRANCH   1  17
ATOM     17  C   UNL     1      -4.053   0.205  24.271  0.00  0.00    +0.105 A 
ATOM     21  C   UNL     1      -5.071   0.890  24.935  0.00  0.00    +0.028 A 
ATOM     22  C   UNL     1      -3.238   0.878  23.361  0.00  0.00    +0.028 A 
ATOM     23  C   UNL     1      -5.274   2.248  24.688  0.00  0.00    +0.002 A 
ATOM     24  C   UNL     1      -3.441   2.236  23.114  0.00  0.00    +0.002 A 
ATOM     25  C   UNL     1      -4.459   2.921  23.777  0.00  0.00    +0.000 A 
ENDBRANCH   1  17
ENDBRANCH   7   1
ENDBRANCH  14   7
ENDBRANCH  12  14
TORSDOF 8
ENDMDL
MODEL 5
REMARK VINA RESULT:      -4.2      1.800      4.782
REMARK  Name = 75536691
REMARK  9 active torsions:
REMARK  status: ('A' for Active; 'I' for Inactive)
REMARK    1  A    between atoms: S_1  and  N_7
REMARK    2  A    between atoms: S_1  and  C_17
REMARK    3  A    between atoms: O_3  and  C_11
REMARK    4  A    between atoms: N_6  and  C_10
REMARK    5  A    between atoms: N_6  and  C_15
REMARK    6  A    between atoms: N_7  and  C_14
REMARK    7  A    between atoms: N_8  and  C_19
REMARK    8  A    between atoms: C_12  and  C_14
REMARK    9  A    between atoms: C_15  and  C_16
REMARK                            x       y       z     vdW  Elec       q    Type
REMARK                         _______ _______ _______ _____ _____    ______ ____
ROOT
ATOM      2  O   UNL     1      -1.599  -1.034  26.450  0.00  0.00    -0.371 OA
ATOM     10  C   UNL     1      -3.535  -1.692  25.242  0.00  0.00    +0.111 C 
ATOM     11  C   UNL     1      -2.321  -1.827  24.342  0.00  0.00    +0.164 C 
ATOM     12  C   UNL     1      -1.200  -1.895  25.371  0.00  0.00    +0.164 C 
ATOM     13  C   UNL     1      -3.006  -0.764  26.324  0.00  0.00    +0.181 C 
ENDROOT
BRANCH  11   3
ATOM      3  O   UNL     1      -2.367  -2.988  23.534  0.00  0.00    -0.388 OA
ATOM     27  H   UNL     1      -2.376  -2.711  22.603  0.00  0.00    +0.210 HD
ENDBRANCH  11   3
BRANCH  10   6
ATOM      6  N   UNL     1      -4.707  -1.160  24.565  0.00  0.00    -0.302 NA
ATOM     26  H   UNL     1      -5.437  -0.979  25.254  0.00  0.00    +0.123 HD
BRANCH   6  15
ATOM     15  C   UNL     1      -4.393   0.085  23.872  0.00  0.00    +0.156 C 
BRANCH  15  16
ATOM      8  N   UNL     1      -4.567   2.565  24.259  0.00  0.00    -0.336 N 
ATOM      9  N   UNL     1      -5.637   1.267  25.709  0.00  0.00    -0.239 NA
ATOM     16  C   UNL     1      -4.881   1.289  24.634  0.00  0.00    +0.123 A 
ATOM     18  C   UNL     1      -5.161   3.412  25.152  0.00  0.00    +0.106 A 
ATOM     19  C   UNL     1      -3.759   2.964  23.131  0.00  0.00    +0.150 C 
ATOM     20  C   UNL     1      -5.815   2.589  26.037  0.00  0.00    +0.130 A 
ENDBRANCH  15  16
ENDBRANCH   6  15
ENDBRANCH  10   6
BRANCH  12  14
ATOM     14  C   UNL     1       0.144  -1.446  24.825  0.00  0.00    +0.140 C 
BRANCH  14   7
ATOM      7  N   UNL     1       0.339  -0.011  25.108  0.00  0.00    -0.187 NA
ATOM     28  H   UNL     1      -0.003   0.315  26.021  0.00  0.00    +0.148 HD
BRANCH   7   1
ATOM      1  S   UNL     1       0.418   1.107  23.827  0.00  0.00    +0.058 S 
ATOM      4  O   UNL     1      -0.401   0.635  22.726  0.00  0.00    -0.153 OA
ATOM      5  O   UNL     1       1.804   1.470  23.603  0.00  0.00    -0.153 OA
BRANCH   1  17
ATOM     17  C   UNL     1      -0.379   2.519  24.530  0.00  0.00    +0.105 A 
ATOM     21  C   UNL     1      -1.183   2.375  25.662  0.00  0.00    +0.028 A 
ATOM     22  C   UNL     1      -0.208   3.777  23.953  0.00  0.00    +0.028 A 
ATOM     23  C   UNL     1      -1.815   3.489  26.215  0.00  0.00    +0.002 A 
ATOM     24  C   UNL     1      -0.840   4.891  24.506  0.00  0.00    +0.002 A 
ATOM     25  C   UNL     1      -1.643   4.747  25.637  0.00  0.00    +0.000 A 
ENDBRANCH   1  17
ENDBRANCH   7   1
ENDBRANCH  14   7
ENDBRANCH  12  14
TORSDOF 8
ENDMDL
MODEL 6
REMARK VINA RESULT:      -3.9      2.169      4.709
REMARK  Name = 75536691
REMARK  9 active torsions:
REMARK  status: ('A' for Active; 'I' for Inactive)
REMARK    1  A    between atoms: S_1  and  N_7
REMARK    2  A    between atoms: S_1  and  C_17
REMARK    3  A    between atoms: O_3  and  C_11
REMARK    4  A    between atoms: N_6  and  C_10
REMARK    5  A    between atoms: N_6  and  C_15
REMARK    6  A    between atoms: N_7  and  C_14
REMARK    7  A    between atoms: N_8  and  C_19
REMARK    8  A    between atoms: C_12  and  C_14
REMARK    9  A    between atoms: C_15  and  C_16
REMARK                            x       y       z     vdW  Elec       q    Type
REMARK                         _______ _______ _______ _____ _____    ______ ____
ROOT
ATOM      2  O   UNL     1      -2.531   3.207  23.350  0.00  0.00    -0.371 OA
ATOM     10  C   UNL     1      -4.592   2.361  24.173  0.00  0.00    +0.111 C 
ATOM     11  C   UNL     1      -3.929   3.192  25.256  0.00  0.00    +0.164 C 
ATOM     12  C   UNL     1      -2.975   4.043  24.431  0.00  0.00    +0.164 C 
ATOM     13  C   UNL     1      -3.417   2.079  23.250  0.00  0.00    +0.181 C 
ENDROOT
BRANCH  11   3
ATOM      3  O   UNL     1      -4.854   3.983  25.978  0.00  0.00    -0.388 OA
ATOM     27  H   UNL     1      -4.362   4.504  26.635  0.00  0.00    +0.210 HD
ENDBRANCH  11   3
BRANCH  10   6
ATOM      6  N   UNL     1      -5.224   1.150  24.670  0.00  0.00    -0.302 NA
ATOM     26  H   UNL     1      -5.492   0.564  23.878  0.00  0.00    +0.123 HD
BRANCH   6  15
ATOM     15  C   UNL     1      -4.315   0.397  25.527  0.00  0.00    +0.156 C 
BRANCH  15  16
ATOM      8  N   UNL     1      -2.825  -1.618  25.309  0.00  0.00    -0.336 N 
ATOM      9  N   UNL     1      -4.595  -1.557  23.970  0.00  0.00    -0.239 NA
ATOM     16  C   UNL     1      -3.936  -0.927  24.916  0.00  0.00    +0.123 A 
ATOM     18  C   UNL     1      -2.771  -2.765  24.566  0.00  0.00    +0.106 A 
ATOM     19  C   UNL     1      -1.872  -1.228  26.322  0.00  0.00    +0.150 C 
ATOM     20  C   UNL     1      -3.873  -2.704  23.747  0.00  0.00    +0.130 A 
ENDBRANCH  15  16
ENDBRANCH   6  15
ENDBRANCH  10   6
BRANCH  12  14
ATOM     14  C   UNL     1      -1.778   4.540  25.221  0.00  0.00    +0.140 C 
BRANCH  14   7
ATOM      7  N   UNL     1      -0.573   3.789  24.820  0.00  0.00    -0.187 NA
ATOM     28  H   UNL     1      -0.300   3.876  23.832  0.00  0.00    +0.148 HD
BRANCH   7   1
ATOM      1  S   UNL     1      -0.129   2.378  25.660  0.00  0.00    +0.058 S 
ATOM      4  O   UNL     1      -1.321   1.725  26.166  0.00  0.00    -0.153 OA
ATOM      5  O   UNL     1       0.970   2.688  26.555  0.00  0.00    -0.153 OA
BRANCH   1  17
ATOM     17  C   UNL     1       0.531   1.376  24.361  0.00  0.00    +0.105 A 
ATOM     21  C   UNL     1      -0.232   0.339  23.825  0.00  0.00    +0.028 A 
ATOM     22  C   UNL     1       1.815   1.620  23.875  0.00  0.00    +0.028 A 
ATOM     23  C   UNL     1       0.289  -0.455  22.803  0.00  0.00    +0.002 A 
ATOM     24  C   UNL     1       2.337   0.827  22.853  0.00  0.00    +0.002 A 
ATOM     25  C   UNL     1       1.574  -0.210  22.317  0.00  0.00    +0.000 A 
ENDBRANCH   1  17
ENDBRANCH   7   1
ENDBRANCH  14   7
ENDBRANCH  12  14
TORSDOF 8
ENDMDL
MODEL 7
REMARK VINA RESULT:      -2.8      2.383      5.108
REMARK  Name = 75536691
REMARK  9 active torsions:
REMARK  status: ('A' for Active; 'I' for Inactive)
REMARK    1  A    between atoms: S_1  and  N_7
REMARK    2  A    between atoms: S_1  and  C_17
REMARK    3  A    between atoms: O_3  and  C_11
REMARK    4  A    between atoms: N_6  and  C_10
REMARK    5  A    between atoms: N_6  and  C_15
REMARK    6  A    between atoms: N_7  and  C_14
REMARK    7  A    between atoms: N_8  and  C_19
REMARK    8  A    between atoms: C_12  and  C_14
REMARK    9  A    between atoms: C_15  and  C_16
REMARK                            x       y       z     vdW  Elec       q    Type
REMARK                         _______ _______ _______ _____ _____    ______ ____
ROOT
ATOM      2  O   UNL     1       1.655   1.976  24.072  0.00  0.00    -0.371 OA
ATOM     10  C   UNL     1       0.355   0.361  22.912  0.00  0.00    +0.111 C 
ATOM     11  C   UNL     1      -0.562   1.210  23.772  0.00  0.00    +0.164 C 
ATOM     12  C   UNL     1       0.300   2.447  23.989  0.00  0.00    +0.164 C 
ATOM     13  C   UNL     1       1.707   0.636  23.553  0.00  0.00    +0.181 C 
ENDROOT
BRANCH  11   3
ATOM      3  O   UNL     1      -1.781   1.523  23.125  0.00  0.00    -0.388 OA
ATOM     27  H   UNL     1      -1.614   1.578  22.169  0.00  0.00    +0.210 HD
ENDBRANCH  11   3
BRANCH  10   6
ATOM      6  N   UNL     1       0.009  -1.051  22.907  0.00  0.00    -0.302 NA
ATOM     26  H   UNL     1       0.746  -1.574  22.433  0.00  0.00    +0.123 HD
BRANCH   6  15
ATOM     15  C   UNL     1      -0.132  -1.562  24.266  0.00  0.00    +0.156 C 
BRANCH  15  16
ATOM      8  N   UNL     1      -2.228  -1.453  25.652  0.00  0.00    -0.336 N 
ATOM      9  N   UNL     1      -2.295  -2.782  23.875  0.00  0.00    -0.239 NA
ATOM     16  C   UNL     1      -1.555  -1.951  24.573  0.00  0.00    +0.123 A 
ATOM     18  C   UNL     1      -3.481  -2.001  25.642  0.00  0.00    +0.106 A 
ATOM     19  C   UNL     1      -1.728  -0.519  26.634  0.00  0.00    +0.150 C 
ATOM     20  C   UNL     1      -3.498  -2.818  24.536  0.00  0.00    +0.130 A 
ENDBRANCH  15  16
ENDBRANCH   6  15
ENDBRANCH  10   6
BRANCH  12  14
ATOM     14  C   UNL     1      -0.057   3.214  25.249  0.00  0.00    +0.140 C 
BRANCH  14   7
ATOM      7  N   UNL     1      -1.418   2.847  25.684  0.00  0.00    -0.187 NA
ATOM     28  H   UNL     1      -1.656   1.849  25.613  0.00  0.00    +0.148 HD
BRANCH   7   1
ATOM      1  S   UNL     1      -2.678   3.988  25.594  0.00  0.00    +0.058 S 
ATOM      4  O   UNL     1      -2.515   4.790  24.396  0.00  0.00    -0.153 OA
ATOM      5  O   UNL     1      -2.827   4.628  26.887  0.00  0.00    -0.153 OA
BRANCH   1  17
ATOM     17  C   UNL     1      -4.090   2.950  25.365  0.00  0.00    +0.105 A 
ATOM     21  C   UNL     1      -3.933   1.662  24.851  0.00  0.00    +0.028 A 
ATOM     22  C   UNL     1      -5.361   3.418  25.695  0.00  0.00    +0.028 A 
ATOM     23  C   UNL     1      -5.048   0.844  24.667  0.00  0.00    +0.002 A 
ATOM     24  C   UNL     1      -6.476   2.600  25.510  0.00  0.00    +0.002 A 
ATOM     25  C   UNL     1      -6.320   1.313  24.997  0.00  0.00    +0.000 A 
ENDBRANCH   1  17
ENDBRANCH   7   1
ENDBRANCH  14   7
ENDBRANCH  12  14
TORSDOF 8
ENDMDL
MODEL 8
REMARK VINA RESULT:      -2.6      2.474      5.117
REMARK  Name = 75536691
REMARK  9 active torsions:
REMARK  status: ('A' for Active; 'I' for Inactive)
REMARK    1  A    between atoms: S_1  and  N_7
REMARK    2  A    between atoms: S_1  and  C_17
REMARK    3  A    between atoms: O_3  and  C_11
REMARK    4  A    between atoms: N_6  and  C_10
REMARK    5  A    between atoms: N_6  and  C_15
REMARK    6  A    between atoms: N_7  and  C_14
REMARK    7  A    between atoms: N_8  and  C_19
REMARK    8  A    between atoms: C_12  and  C_14
REMARK    9  A    between atoms: C_15  and  C_16
REMARK                            x       y       z     vdW  Elec       q    Type
REMARK                         _______ _______ _______ _____ _____    ______ ____
ROOT
ATOM      2  O   UNL     1      -1.538  -0.438  25.753  0.00  0.00    -0.371 OA
ATOM     10  C   UNL     1      -3.811  -0.154  25.124  0.00  0.00    +0.111 C 
ATOM     11  C   UNL     1      -3.147  -1.119  24.159  0.00  0.00    +0.164 C 
ATOM     12  C   UNL     1      -1.949  -1.577  24.980  0.00  0.00    +0.164 C 
ATOM     13  C   UNL     1      -2.603   0.528  25.746  0.00  0.00    +0.181 C 
ENDROOT
BRANCH  11   3
ATOM      3  O   UNL     1      -3.988  -2.199  23.803  0.00  0.00    -0.388 OA
ATOM     27  H   UNL     1      -3.432  -2.982  23.653  0.00  0.00    +0.210 HD
ENDBRANCH  11   3
BRANCH  10   6
ATOM      6  N   UNL     1      -4.721   0.780  24.482  0.00  0.00    -0.302 NA
ATOM     26  H   UNL     1      -5.576   0.288  24.222  0.00  0.00    +0.123 HD
BRANCH   6  15
ATOM     15  C   UNL     1      -5.062   1.880  25.378  0.00  0.00    +0.156 C 
BRANCH  15  16
ATOM      8  N   UNL     1      -3.383   3.339  24.203  0.00  0.00    -0.336 N 
ATOM      9  N   UNL     1      -3.609   3.665  26.387  0.00  0.00    -0.239 NA
ATOM     16  C   UNL     1      -4.020   2.967  25.353  0.00  0.00    +0.123 A 
ATOM     18  C   UNL     1      -2.509   4.339  24.523  0.00  0.00    +0.106 A 
ATOM     19  C   UNL     1      -3.584   2.789  22.882  0.00  0.00    +0.150 C 
ATOM     20  C   UNL     1      -2.665   4.522  25.877  0.00  0.00    +0.130 A 
ENDBRANCH  15  16
ENDBRANCH   6  15
ENDBRANCH  10   6
BRANCH  12  14
ATOM     14  C   UNL     1      -0.791  -2.067  24.130  0.00  0.00    +0.140 C 
BRANCH  14   7
ATOM      7  N   UNL     1       0.384  -1.201  24.349  0.00  0.00    -0.187 NA
ATOM     28  H   UNL     1       0.617  -1.004  25.330  0.00  0.00    +0.148 HD
BRANCH   7   1
ATOM      1  S   UNL     1       0.838  -0.066  23.165  0.00  0.00    +0.058 S 
ATOM      4  O   UNL     1       0.407   1.256  23.577  0.00  0.00    -0.153 OA
ATOM      5  O   UNL     1       0.476  -0.578  21.857  0.00  0.00    -0.153 OA
BRANCH   1  17
ATOM     17  C   UNL     1       2.602  -0.121  23.270  0.00  0.00    +0.105 A 
ATOM     21  C   UNL     1       3.358   0.986  22.880  0.00  0.00    +0.028 A 
ATOM     22  C   UNL     1       3.238  -1.270  23.738  0.00  0.00    +0.028 A 
ATOM     23  C   UNL     1       4.750   0.942  22.959  0.00  0.00    +0.002 A 
ATOM     24  C   UNL     1       4.630  -1.314  23.817  0.00  0.00    +0.002 A 
ATOM     25  C   UNL     1       5.386  -0.208  23.427  0.00  0.00    +0.000 A 
ENDBRANCH   1  17
ENDBRANCH   7   1
ENDBRANCH  14   7
ENDBRANCH  12  14
TORSDOF 8
ENDMDL
MODEL 9
REMARK VINA RESULT:      -2.6      2.691      4.852
REMARK  Name = 75536691
REMARK  9 active torsions:
REMARK  status: ('A' for Active; 'I' for Inactive)
REMARK    1  A    between atoms: S_1  and  N_7
REMARK    2  A    between atoms: S_1  and  C_17
REMARK    3  A    between atoms: O_3  and  C_11
REMARK    4  A    between atoms: N_6  and  C_10
REMARK    5  A    between atoms: N_6  and  C_15
REMARK    6  A    between atoms: N_7  and  C_14
REMARK    7  A    between atoms: N_8  and  C_19
REMARK    8  A    between atoms: C_12  and  C_14
REMARK    9  A    between atoms: C_15  and  C_16
REMARK                            x       y       z     vdW  Elec       q    Type
REMARK                         _______ _______ _______ _____ _____    ______ ____
ROOT
ATOM      2  O   UNL     1      -0.732   0.354  25.798  0.00  0.00    -0.371 OA
ATOM     10  C   UNL     1      -2.195   1.963  24.843  0.00  0.00    +0.111 C 
ATOM     11  C   UNL     1      -2.024   0.811  23.871  0.00  0.00    +0.164 C 
ATOM     12  C   UNL     1      -1.544  -0.292  24.804  0.00  0.00    +0.164 C 
ATOM     13  C   UNL     1      -0.995   1.767  25.755  0.00  0.00    +0.181 C 
ENDROOT
BRANCH  11   3
ATOM      3  O   UNL     1      -3.230   0.464  23.218  0.00  0.00    -0.388 OA
ATOM     27  H   UNL     1      -3.437   1.157  22.569  0.00  0.00    +0.210 HD
ENDBRANCH  11   3
BRANCH  10   6
ATOM      6  N   UNL     1      -2.211   3.269  24.203  0.00  0.00    -0.302 NA
ATOM     26  H   UNL     1      -1.602   3.248  23.385  0.00  0.00    +0.123 HD
BRANCH   6  15
ATOM     15  C   UNL     1      -3.559   3.629  23.779  0.00  0.00    +0.156 C 
BRANCH  15  16
ATOM      8  N   UNL     1      -4.765   3.336  25.967  0.00  0.00    -0.336 N 
ATOM      9  N   UNL     1      -5.472   2.076  24.281  0.00  0.00    -0.239 NA
ATOM     16  C   UNL     1      -4.610   2.996  24.653  0.00  0.00    +0.123 A 
ATOM     18  C   UNL     1      -5.793   2.585  26.466  0.00  0.00    +0.106 A 
ATOM     19  C   UNL     1      -3.996   4.307  26.710  0.00  0.00    +0.150 C 
ATOM     20  C   UNL     1      -6.213   1.815  25.407  0.00  0.00    +0.130 A 
ENDBRANCH  15  16
ENDBRANCH   6  15
ENDBRANCH  10   6
BRANCH  12  14
ATOM     14  C   UNL     1      -0.737  -1.367  24.099  0.00  0.00    +0.140 C 
BRANCH  14   7
ATOM      7  N   UNL     1       0.695  -1.013  24.135  0.00  0.00    -0.187 NA
ATOM     28  H   UNL     1       1.135  -1.022  25.064  0.00  0.00    +0.148 HD
BRANCH   7   1
ATOM      1  S   UNL     1       1.352   0.005  22.940  0.00  0.00    +0.058 S 
ATOM      4  O   UNL     1       0.979   1.378  23.221  0.00  0.00    -0.153 OA
ATOM      5  O   UNL     1       1.090  -0.571  21.635  0.00  0.00    -0.153 OA
BRANCH   1  17
ATOM     17  C   UNL     1       3.087  -0.160  23.238  0.00  0.00    +0.105 A 
ATOM     21  C   UNL     1       3.941   0.917  22.997  0.00  0.00    +0.028 A 
ATOM     22  C   UNL     1       3.602  -1.366  23.709  0.00  0.00    +0.028 A 
ATOM     23  C   UNL     1       5.310   0.787  23.228  0.00  0.00    +0.002 A 
ATOM     24  C   UNL     1       4.972  -1.497  23.940  0.00  0.00    +0.002 A 
ATOM     25  C   UNL     1       5.826  -0.421  23.700  0.00  0.00    +0.000 A 
ENDBRANCH   1  17
ENDBRANCH   7   1
ENDBRANCH  14   7
ENDBRANCH  12  14
TORSDOF 8
ENDMDL
MODEL 10
REMARK VINA RESULT:      -2.6      2.160      5.055
REMARK  Name = 75536691
REMARK  9 active torsions:
REMARK  status: ('A' for Active; 'I' for Inactive)
REMARK    1  A    between atoms: S_1  and  N_7
REMARK    2  A    between atoms: S_1  and  C_17
REMARK    3  A    between atoms: O_3  and  C_11
REMARK    4  A    between atoms: N_6  and  C_10
REMARK    5  A    between atoms: N_6  and  C_15
REMARK    6  A    between atoms: N_7  and  C_14
REMARK    7  A    between atoms: N_8  and  C_19
REMARK    8  A    between atoms: C_12  and  C_14
REMARK    9  A    between atoms: C_15  and  C_16
REMARK                            x       y       z     vdW  Elec       q    Type
REMARK                         _______ _______ _______ _____ _____    ______ ____
ROOT
ATOM      2  O   UNL     1      -1.083   2.342  26.130  0.00  0.00    -0.371 OA
ATOM     10  C   UNL     1       0.130   0.581  25.094  0.00  0.00    +0.111 C 
ATOM     11  C   UNL     1       0.245   1.831  24.242  0.00  0.00    +0.164 C 
ATOM     12  C   UNL     1      -0.094   2.913  25.258  0.00  0.00    +0.164 C 
ATOM     13  C   UNL     1      -1.080   0.915  25.953  0.00  0.00    +0.181 C 
ENDROOT
BRANCH  11   3
ATOM      3  O   UNL     1       1.541   2.003  23.699  0.00  0.00    -0.388 OA
ATOM     27  H   UNL     1       2.184   1.619  24.319  0.00  0.00    +0.210 HD
ENDBRANCH  11   3
BRANCH  10   6
ATOM      6  N   UNL     1      -0.044  -0.638  24.323  0.00  0.00    -0.302 NA
ATOM     26  H   UNL     1       0.851  -0.901  23.908  0.00  0.00    +0.123 HD
BRANCH   6  15
ATOM     15  C   UNL     1      -0.513  -1.732  25.166  0.00  0.00    +0.156 C 
BRANCH  15  16
ATOM      8  N   UNL     1      -2.996  -2.085  25.363  0.00  0.00    -0.336 N 
ATOM      9  N   UNL     1      -2.010  -3.005  23.599  0.00  0.00    -0.239 NA
ATOM     16  C   UNL     1      -1.827  -2.287  24.684  0.00  0.00    +0.123 A 
ATOM     18  C   UNL     1      -3.989  -2.714  24.666  0.00  0.00    +0.106 A 
ATOM     19  C   UNL     1      -3.170  -1.345  26.591  0.00  0.00    +0.150 C 
ATOM     20  C   UNL     1      -3.356  -3.275  23.582  0.00  0.00    +0.130 A 
ENDBRANCH  15  16
ENDBRANCH   6  15
ENDBRANCH  10   6
BRANCH  12  14
ATOM     14  C   UNL     1      -0.637   4.182  24.626  0.00  0.00    +0.140 C 
BRANCH  14   7
ATOM      7  N   UNL     1      -2.094   4.259  24.844  0.00  0.00    -0.187 NA
ATOM     28  H   UNL     1      -2.401   4.238  25.824  0.00  0.00    +0.148 HD
BRANCH   7   1
ATOM      1  S   UNL     1      -3.165   3.694  23.648  0.00  0.00    +0.058 S 
ATOM      4  O   UNL     1      -2.471   2.760  22.783  0.00  0.00    -0.153 OA
ATOM      5  O   UNL     1      -3.876   4.824  23.081  0.00  0.00    -0.153 OA
BRANCH   1  17
ATOM     17  C   UNL     1      -4.333   2.781  24.611  0.00  0.00    +0.105 A 
ATOM     21  C   UNL     1      -5.138   3.440  25.540  0.00  0.00    +0.028 A 
ATOM     22  C   UNL     1      -4.447   1.401  24.445  0.00  0.00    +0.028 A 
ATOM     23  C   UNL     1      -6.056   2.719  26.303  0.00  0.00    +0.002 A 
ATOM     24  C   UNL     1      -5.365   0.680  25.207  0.00  0.00    +0.002 A 
ATOM     25  C   UNL     1      -6.170   1.339  26.137  0.00  0.00    +0.000 A 
ENDBRANCH   1  17
ENDBRANCH   7   1
ENDBRANCH  14   7
ENDBRANCH  12  14
TORSDOF 8
ENDMDL
