MODEL 1
REMARK VINA RESULT:       2.1      0.000      0.000
REMARK  Name = 25389777
REMARK  8 active torsions:
REMARK  status: ('A' for Active; 'I' for Inactive)
REMARK    1  A    between atoms: O_2  and  C_19
REMARK    2  A    between atoms: O_2  and  C_32
REMARK    3  A    between atoms: N_5  and  C_10
REMARK    4  A    between atoms: N_5  and  C_20
REMARK    5  A    between atoms: C_8  and  C_16
REMARK    6  A    between atoms: C_12  and  C_19
REMARK    7  A    between atoms: C_20  and  C_25
REMARK    8  A    between atoms: C_20  and  C_26
REMARK                            x       y       z     vdW  Elec       q    Type
REMARK                         _______ _______ _______ _____ _____    ______ ____
ROOT
ATOM      4  N   UNL     1      -1.453  -0.163  23.594  0.00  0.00    -0.274 NA
ATOM      6  N   UNL     1       1.951   0.946  22.415  0.00  0.00    -0.356 N 
ATOM      7  C   UNL     1      -0.575   0.570  22.636  0.00  0.00    +0.106 C 
ATOM      8  C   UNL     1      -1.729   0.538  24.874  0.00  0.00    +0.090 C 
ATOM      9  C   UNL     1      -0.915   2.065  22.598  0.00  0.00    +0.044 C 
ATOM     10  C   UNL     1      -0.756   2.762  23.953  0.00  0.00    +0.058 C 
ATOM     11  C   UNL     1      -0.851   1.783  25.127  0.00  0.00    +0.042 C 
ATOM     12  C   UNL     1      -1.023  -1.579  23.722  0.00  0.00    +0.172 C 
ATOM     13  C   UNL     1       0.872   0.267  22.903  0.00  0.00    +0.038 A 
ATOM     14  C   UNL     1       0.394  -1.746  24.318  0.00  0.00    +0.068 C 
ATOM     15  C   UNL     1       1.336  -0.795  23.656  0.00  0.00    -0.016 A 
ATOM     17  C   UNL     1       2.755  -0.742  23.650  0.00  0.00    +0.003 A 
ATOM     18  C   UNL     1       3.115   0.360  22.866  0.00  0.00    +0.047 A 
ATOM     23  C   UNL     1       3.775  -1.520  24.232  0.00  0.00    +0.010 A 
ATOM     24  C   UNL     1       4.449   0.718  22.636  0.00  0.00    +0.026 A 
ATOM     27  C   UNL     1       5.113  -1.172  24.011  0.00  0.00    +0.001 A 
ATOM     30  C   UNL     1       5.442  -0.070  23.226  0.00  0.00    +0.002 A 
ATOM     34  H   UNL     1       1.911   1.761  21.818  0.00  0.00    +0.166 HD
ENDROOT
BRANCH   8  16
ATOM      1  F   UNL     1      -7.221   1.697  25.587  0.00  0.00    -0.205 F 
ATOM     16  C   UNL     1      -3.213   0.851  25.067  0.00  0.00    -0.030 A 
ATOM     21  C   UNL     1      -3.833   1.812  24.269  0.00  0.00    +0.008 A 
ATOM     22  C   UNL     1      -3.949   0.175  26.041  0.00  0.00    +0.008 A 
ATOM     28  C   UNL     1      -5.186   2.098  24.444  0.00  0.00    +0.038 A 
ATOM     29  C   UNL     1      -5.301   0.462  26.217  0.00  0.00    +0.038 A 
ATOM     31  C   UNL     1      -5.921   1.423  25.419  0.00  0.00    +0.123 A 
ENDBRANCH   8  16
BRANCH  12  19
ATOM      3  O   UNL     1      -2.036  -2.494  25.704  0.00  0.00    -0.249 OA
ATOM     19  C   UNL     1      -2.051  -2.352  24.489  0.00  0.00    +0.325 C 
BRANCH  19   2
ATOM      2  O   UNL     1      -2.980  -2.855  23.628  0.00  0.00    -0.467 OA
ATOM     32  C   UNL     1      -4.304  -2.331  23.776  0.00  0.00    +0.280 C 
ENDBRANCH  19   2
ENDBRANCH  12  19
BRANCH  10   5
ATOM      5  N   UNL     1      -1.729   3.852  24.061  0.00  0.00    -0.311 NA
ATOM     33  H   UNL     1      -2.679   3.490  23.990  0.00  0.00    +0.122 HD
BRANCH   5  20
ATOM     20  C   UNL     1      -1.565   4.566  25.318  0.00  0.00    +0.048 C 
ATOM     25  C   UNL     1      -1.234   6.028  25.031  0.00  0.00    +0.023 C 
ATOM     26  C   UNL     1      -2.829   4.445  26.164  0.00  0.00    +0.023 C 
ENDBRANCH   5  20
ENDBRANCH  10   5
TORSDOF 5
ENDMDL
MODEL 2
REMARK VINA RESULT:       5.1      2.320      4.500
REMARK  Name = 25389777
REMARK  8 active torsions:
REMARK  status: ('A' for Active; 'I' for Inactive)
REMARK    1  A    between atoms: O_2  and  C_19
REMARK    2  A    between atoms: O_2  and  C_32
REMARK    3  A    between atoms: N_5  and  C_10
REMARK    4  A    between atoms: N_5  and  C_20
REMARK    5  A    between atoms: C_8  and  C_16
REMARK    6  A    between atoms: C_12  and  C_19
REMARK    7  A    between atoms: C_20  and  C_25
REMARK    8  A    between atoms: C_20  and  C_26
REMARK                            x       y       z     vdW  Elec       q    Type
REMARK                         _______ _______ _______ _____ _____    ______ ____
ROOT
ATOM      4  N   UNL     1      -1.523   1.488  25.427  0.00  0.00    -0.274 NA
ATOM      6  N   UNL     1       1.124  -0.765  23.967  0.00  0.00    -0.356 N 
ATOM      7  C   UNL     1      -0.840   0.165  25.327  0.00  0.00    +0.106 C 
ATOM      8  C   UNL     1      -2.494   1.789  24.345  0.00  0.00    +0.090 C 
ATOM      9  C   UNL     1      -1.813  -0.934  24.886  0.00  0.00    +0.044 C 
ATOM     10  C   UNL     1      -2.452  -0.671  23.518  0.00  0.00    +0.058 C 
ATOM     11  C   UNL     1      -2.446   0.815  23.147  0.00  0.00    +0.042 C 
ATOM     12  C   UNL     1      -0.542   2.565  25.721  0.00  0.00    +0.172 C 
ATOM     13  C   UNL     1       0.403   0.270  24.489  0.00  0.00    +0.038 A 
ATOM     14  C   UNL     1       0.506   2.772  24.602  0.00  0.00    +0.068 C 
ATOM     15  C   UNL     1       1.042   1.451  24.160  0.00  0.00    -0.016 A 
ATOM     17  C   UNL     1       2.182   1.121  23.379  0.00  0.00    +0.003 A 
ATOM     18  C   UNL     1       2.209  -0.274  23.272  0.00  0.00    +0.047 A 
ATOM     23  C   UNL     1       3.197   1.868  22.750  0.00  0.00    +0.010 A 
ATOM     24  C   UNL     1       3.207  -0.956  22.565  0.00  0.00    +0.026 A 
ATOM     27  C   UNL     1       4.200   1.198  22.039  0.00  0.00    +0.001 A 
ATOM     30  C   UNL     1       4.203  -0.192  21.950  0.00  0.00    +0.002 A 
ATOM     34  H   UNL     1       0.898  -1.746  24.064  0.00  0.00    +0.166 HD
ENDROOT
BRANCH   8  16
ATOM      1  F   UNL     1      -7.774   2.440  26.272  0.00  0.00    -0.205 F 
ATOM     16  C   UNL     1      -3.921   1.966  24.865  0.00  0.00    -0.030 A 
ATOM     21  C   UNL     1      -4.668   0.850  25.243  0.00  0.00    +0.008 A 
ATOM     22  C   UNL     1      -4.476   3.242  24.963  0.00  0.00    +0.008 A 
ATOM     28  C   UNL     1      -5.969   1.010  25.719  0.00  0.00    +0.038 A 
ATOM     29  C   UNL     1      -5.777   3.402  25.438  0.00  0.00    +0.038 A 
ATOM     31  C   UNL     1      -6.524   2.286  25.816  0.00  0.00    +0.123 A 
ENDBRANCH   8  16
BRANCH  12  19
ATOM      3  O   UNL     1      -2.115   3.925  26.932  0.00  0.00    -0.249 OA
ATOM     19  C   UNL     1      -1.266   3.831  26.055  0.00  0.00    +0.325 C 
BRANCH  19   2
ATOM      2  O   UNL     1      -0.831   4.834  25.241  0.00  0.00    -0.467 OA
ATOM     32  C   UNL     1      -1.799   5.844  24.938  0.00  0.00    +0.280 C 
ENDBRANCH  19   2
ENDBRANCH  12  19
BRANCH  10   5
ATOM      5  N   UNL     1      -3.799  -1.245  23.487  0.00  0.00    -0.311 NA
ATOM     33  H   UNL     1      -4.210  -1.137  22.561  0.00  0.00    +0.122 HD
BRANCH   5  20
ATOM     20  C   UNL     1      -3.769  -2.652  23.855  0.00  0.00    +0.048 C 
ATOM     25  C   UNL     1      -3.573  -2.778  25.363  0.00  0.00    +0.023 C 
ATOM     26  C   UNL     1      -5.055  -3.343  23.410  0.00  0.00    +0.023 C 
ENDBRANCH   5  20
ENDBRANCH  10   5
TORSDOF 5
ENDMDL
