MODEL 1
REMARK VINA RESULT:      21.0      0.000      0.000
REMARK  Name = 11884270
REMARK  2 active torsions:
REMARK  status: ('A' for Active; 'I' for Inactive)
REMARK    1  A    between atoms: N_7  and  C_9
REMARK    2  A    between atoms: C_26  and  C_28
REMARK                            x       y       z     vdW  Elec       q    Type
REMARK                         _______ _______ _______ _____ _____    ______ ____
ROOT
ATOM      2  O   UNL     1       3.291  -5.746  12.988  0.00  0.00    -0.253 OA
ATOM      3  O   UNL     1       1.325  -8.764  14.431  0.00  0.00    -0.273 OA
ATOM      4  O   UNL     1      -2.200  -9.976  10.684  0.00  0.00    -0.270 OA
ATOM      5  N   UNL     1       1.881  -7.254  11.924  0.00  0.00    -0.282 N 
ATOM      6  N   UNL     1      -0.651  -8.665  11.794  0.00  0.00    -0.283 N 
ATOM      7  N   UNL     1       4.201  -7.243  11.496  0.00  0.00    -0.296 N 
ATOM      8  N   UNL     1      -0.786  -9.595  14.601  0.00  0.00    -0.283 N 
ATOM     12  C   UNL     1      -0.329  -7.828  12.941  0.00  0.00    +0.180 C 
ATOM     16  C   UNL     1       0.692  -6.734  12.605  0.00  0.00    +0.141 C 
ATOM     17  C   UNL     1       1.669  -8.361  10.984  0.00  0.00    +0.128 C 
ATOM     18  C   UNL     1       0.203  -8.542  10.614  0.00  0.00    +0.128 C 
ATOM     19  C   UNL     1       3.136  -6.677  12.192  0.00  0.00    +0.303 C 
ATOM     20  C   UNL     1       0.163  -8.778  14.023  0.00  0.00    +0.239 C 
ATOM     21  C   UNL     1      -1.820  -9.418  11.714  0.00  0.00    +0.249 C 
ATOM     22  C   UNL     1      -2.652  -9.589  12.934  0.00  0.00    +0.059 A 
ATOM     23  C   UNL     1      -2.135  -9.766  14.227  0.00  0.00    +0.046 A 
ATOM     24  C   UNL     1      -4.032  -9.755  12.716  0.00  0.00    +0.023 A 
ATOM     25  C   UNL     1      -3.001 -10.176  15.257  0.00  0.00    +0.024 A 
ATOM     26  C   UNL     1      -4.885 -10.114  13.759  0.00  0.00    -0.017 A 
ATOM     27  C   UNL     1      -4.367 -10.339  15.028  0.00  0.00    +0.010 A 
ATOM     34  H   UNL     1       4.057  -8.092  10.961  0.00  0.00    +0.151 HD
ATOM     35  H   UNL     1      -0.498 -10.057  15.461  0.00  0.00    +0.155 HD
ENDROOT
BRANCH  26  28
ATOM      1 CL   UNL     1     -10.719 -10.781  12.754  0.00  0.00    -0.084 Cl
ATOM     28  C   UNL     1      -6.302 -10.277  13.515  0.00  0.00    -0.018 A 
ATOM     29  C   UNL     1      -6.763 -10.515  12.221  0.00  0.00    +0.010 A 
ATOM     30  C   UNL     1      -7.206 -10.194  14.573  0.00  0.00    +0.010 A 
ATOM     31  C   UNL     1      -8.129 -10.671  11.984  0.00  0.00    +0.020 A 
ATOM     32  C   UNL     1      -8.572 -10.349  14.338  0.00  0.00    +0.020 A 
ATOM     33  C   UNL     1      -9.033 -10.588  13.043  0.00  0.00    +0.041 A 
ENDBRANCH  26  28
BRANCH   7   9
ATOM      9  C   UNL     1       5.561  -6.779  11.655  0.00  0.00    +0.074 C 
ATOM     10  C   UNL     1       5.667  -5.766  12.800  0.00  0.00    +0.022 C 
ATOM     11  C   UNL     1       6.523  -7.954  11.862  0.00  0.00    +0.022 C 
ATOM     13  C   UNL     1       5.512  -6.419  14.175  0.00  0.00    +0.002 C 
ATOM     14  C   UNL     1       6.366  -8.603  13.237  0.00  0.00    +0.002 C 
ATOM     15  C   UNL     1       6.487  -7.578  14.360  0.00  0.00    +0.000 C 
ENDBRANCH   7   9
TORSDOF 2
ENDMDL
MODEL 2
REMARK VINA RESULT:      22.9      1.470      2.173
REMARK  Name = 11884270
REMARK  2 active torsions:
REMARK  status: ('A' for Active; 'I' for Inactive)
REMARK    1  A    between atoms: N_7  and  C_9
REMARK    2  A    between atoms: C_26  and  C_28
REMARK                            x       y       z     vdW  Elec       q    Type
REMARK                         _______ _______ _______ _____ _____    ______ ____
ROOT
ATOM      2  O   UNL     1       2.583  -6.000  13.416  0.00  0.00    -0.253 OA
ATOM      3  O   UNL     1       0.132  -8.883  14.271  0.00  0.00    -0.273 OA
ATOM      4  O   UNL     1      -1.976 -10.266   9.625  0.00  0.00    -0.270 OA
ATOM      5  N   UNL     1       1.555  -7.546  12.021  0.00  0.00    -0.282 N 
ATOM      6  N   UNL     1      -0.840  -8.915  11.121  0.00  0.00    -0.283 N 
ATOM      7  N   UNL     1       3.882  -7.605  12.400  0.00  0.00    -0.296 N 
ATOM      8  N   UNL     1      -1.944  -9.663  13.763  0.00  0.00    -0.283 N 
ATOM     12  C   UNL     1      -0.889  -8.014  12.263  0.00  0.00    +0.180 C 
ATOM     16  C   UNL     1       0.227  -6.962  12.232  0.00  0.00    +0.141 C 
ATOM     17  C   UNL     1       1.627  -8.706  11.125  0.00  0.00    +0.128 C 
ATOM     18  C   UNL     1       0.365  -8.883  10.293  0.00  0.00    +0.128 C 
ATOM     19  C   UNL     1       2.669  -6.976  12.665  0.00  0.00    +0.303 C 
ATOM     20  C   UNL     1      -0.826  -8.901  13.496  0.00  0.00    +0.239 C 
ATOM     21  C   UNL     1      -1.942  -9.650  10.691  0.00  0.00    +0.249 C 
ATOM     22  C   UNL     1      -3.141  -9.728  11.567  0.00  0.00    +0.059 A 
ATOM     23  C   UNL     1      -3.095  -9.832  12.966  0.00  0.00    +0.046 A 
ATOM     24  C   UNL     1      -4.374  -9.883  10.905  0.00  0.00    +0.023 A 
ATOM     25  C   UNL     1      -4.271 -10.160  13.663  0.00  0.00    +0.024 A 
ATOM     26  C   UNL     1      -5.540 -10.159  11.617  0.00  0.00    -0.017 A 
ATOM     27  C   UNL     1      -5.487 -10.312  12.997  0.00  0.00    +0.010 A 
ATOM     34  H   UNL     1       3.893  -8.483  11.895  0.00  0.00    +0.151 HD
ATOM     35  H   UNL     1      -1.980 -10.075  14.693  0.00  0.00    +0.155 HD
ENDROOT
BRANCH  26  28
ATOM      1 CL   UNL     1     -10.719 -10.781   8.740  0.00  0.00    -0.084 Cl
ATOM     28  C   UNL     1      -6.798 -10.310  10.919  0.00  0.00    -0.018 A 
ATOM     29  C   UNL     1      -6.807 -10.629   9.561  0.00  0.00    +0.010 A 
ATOM     30  C   UNL     1      -8.001 -10.138  11.602  0.00  0.00    +0.010 A 
ATOM     31  C   UNL     1      -8.020 -10.774   8.886  0.00  0.00    +0.020 A 
ATOM     32  C   UNL     1      -9.214 -10.283  10.929  0.00  0.00    +0.020 A 
ATOM     33  C   UNL     1      -9.223 -10.601   9.571  0.00  0.00    +0.041 A 
ENDBRANCH  26  28
BRANCH   7   9
ATOM      9  C   UNL     1       5.127  -7.157  12.984  0.00  0.00    +0.074 C 
ATOM     10  C   UNL     1       6.107  -8.323  13.152  0.00  0.00    +0.022 C 
ATOM     11  C   UNL     1       5.746  -6.024  12.159  0.00  0.00    +0.022 C 
ATOM     13  C   UNL     1       6.672  -8.808  11.816  0.00  0.00    +0.002 C 
ATOM     14  C   UNL     1       6.311  -6.513  10.826  0.00  0.00    +0.002 C 
ATOM     15  C   UNL     1       7.293  -7.665  11.018  0.00  0.00    +0.000 C 
ENDBRANCH   7   9
TORSDOF 2
ENDMDL
