MODEL 1
REMARK VINA RESULT:      -4.4      0.000      0.000
REMARK  Name = 51137721
REMARK  4 active torsions:
REMARK  status: ('A' for Active; 'I' for Inactive)
REMARK    1  A    between atoms: N_4  and  C_13
REMARK    2  A    between atoms: C_7  and  C_11
REMARK    3  A    between atoms: C_13  and  C_15
REMARK    4  A    between atoms: C_14  and  C_16
REMARK                            x       y       z     vdW  Elec       q    Type
REMARK                         _______ _______ _______ _____ _____    ______ ____
ROOT
ATOM      2  O   UNL     1       1.253   1.218  24.375  0.00  0.00    -0.253 OA
ATOM      3  N   UNL     1      -0.598  -0.154  24.467  0.00  0.00    -0.285 N 
ATOM      4  N   UNL     1       0.894  -0.289  22.667  0.00  0.00    -0.295 N 
ATOM      7  C   UNL     1      -2.536  -0.132  25.845  0.00  0.00    +0.095 C 
ATOM      8  C   UNL     1      -2.456  -1.472  25.099  0.00  0.00    +0.033 C 
ATOM      9  C   UNL     1      -1.096   0.383  25.728  0.00  0.00    +0.122 C 
ATOM     10  C   UNL     1      -1.478  -1.204  23.960  0.00  0.00    +0.110 C 
ATOM     12  C   UNL     1       0.568   0.322  23.873  0.00  0.00    +0.302 C 
ATOM     22  H   UNL     1       0.275  -0.987  22.269  0.00  0.00    +0.151 HD
ENDROOT
BRANCH   7  11
ATOM      1  O   UNL     1      -3.254   2.003  24.870  0.00  0.00    -0.425 OA
ATOM      5  N   UNL     1      -4.906   0.514  25.114  0.00  0.00    -0.112 NA
ATOM      6  N   UNL     1      -5.443   1.661  24.559  0.00  0.00    -0.113 NA
ATOM     11  C   UNL     1      -3.627   0.760  25.278  0.00  0.00    +0.222 A 
ATOM     14  C   UNL     1      -4.443   2.502  24.435  0.00  0.00    +0.214 A 
ATOM     16  C   UNL     1      -4.433   3.871  23.901  0.00  0.00    +0.111 C 
ENDBRANCH   7  11
BRANCH   4  13
ATOM     13  C   UNL     1       2.065   0.076  21.905  0.00  0.00    +0.141 C 
BRANCH  13  15
ATOM     15  C   UNL     1       3.329  -0.110  22.694  0.00  0.00    -0.030 A 
ATOM     17  C   UNL     1       4.241   0.939  22.807  0.00  0.00    +0.005 A 
ATOM     18  C   UNL     1       3.590  -1.332  23.315  0.00  0.00    +0.005 A 
ATOM     19  C   UNL     1       5.416   0.766  23.540  0.00  0.00    +0.000 A 
ATOM     20  C   UNL     1       4.765  -1.505  24.047  0.00  0.00    +0.000 A 
ATOM     21  C   UNL     1       5.676  -0.456  24.160  0.00  0.00    +0.000 A 
ENDBRANCH  13  15
ENDBRANCH   4  13
TORSDOF 3
ENDMDL
MODEL 2
REMARK VINA RESULT:      -2.9      2.088      2.469
REMARK  Name = 51137721
REMARK  4 active torsions:
REMARK  status: ('A' for Active; 'I' for Inactive)
REMARK    1  A    between atoms: N_4  and  C_13
REMARK    2  A    between atoms: C_7  and  C_11
REMARK    3  A    between atoms: C_13  and  C_15
REMARK    4  A    between atoms: C_14  and  C_16
REMARK                            x       y       z     vdW  Elec       q    Type
REMARK                         _______ _______ _______ _____ _____    ______ ____
ROOT
ATOM      2  O   UNL     1      -0.630  -1.398  25.403  0.00  0.00    -0.253 OA
ATOM      3  N   UNL     1      -1.624   0.168  24.035  0.00  0.00    -0.285 N 
ATOM      4  N   UNL     1       0.489  -0.694  23.515  0.00  0.00    -0.295 N 
ATOM      7  C   UNL     1      -3.523   1.570  24.329  0.00  0.00    +0.095 C 
ATOM      8  C   UNL     1      -3.106   1.579  22.851  0.00  0.00    +0.033 C 
ATOM      9  C   UNL     1      -2.828   0.304  24.847  0.00  0.00    +0.122 C 
ATOM     10  C   UNL     1      -1.680   1.041  22.865  0.00  0.00    +0.110 C 
ATOM     12  C   UNL     1      -0.591  -0.695  24.390  0.00  0.00    +0.302 C 
ATOM     22  H   UNL     1       0.498  -0.062  22.721  0.00  0.00    +0.151 HD
ENDROOT
BRANCH   7  11
ATOM      1  O   UNL     1      -2.134   3.587  24.490  0.00  0.00    -0.425 OA
ATOM      5  N   UNL     1      -3.708   3.439  26.074  0.00  0.00    -0.112 NA
ATOM      6  N   UNL     1      -3.004   4.611  26.278  0.00  0.00    -0.113 NA
ATOM     11  C   UNL     1      -3.165   2.874  25.020  0.00  0.00    +0.222 A 
ATOM     14  C   UNL     1      -2.097   4.657  25.331  0.00  0.00    +0.214 A 
ATOM     16  C   UNL     1      -1.076   5.678  25.062  0.00  0.00    +0.111 C 
ENDBRANCH   7  11
BRANCH   4  13
ATOM     13  C   UNL     1       1.655  -1.521  23.721  0.00  0.00    +0.141 C 
BRANCH  13  15
ATOM     15  C   UNL     1       2.930  -0.760  23.499  0.00  0.00    -0.030 A 
ATOM     17  C   UNL     1       2.902   0.474  22.850  0.00  0.00    +0.005 A 
ATOM     18  C   UNL     1       4.143  -1.288  23.943  0.00  0.00    +0.005 A 
ATOM     19  C   UNL     1       4.088   1.181  22.644  0.00  0.00    +0.000 A 
ATOM     20  C   UNL     1       5.328  -0.581  23.737  0.00  0.00    +0.000 A 
ATOM     21  C   UNL     1       5.300   0.653  23.088  0.00  0.00    +0.000 A 
ENDBRANCH  13  15
ENDBRANCH   4  13
TORSDOF 3
ENDMDL
MODEL 3
REMARK VINA RESULT:      -2.8      1.971      2.872
REMARK  Name = 51137721
REMARK  4 active torsions:
REMARK  status: ('A' for Active; 'I' for Inactive)
REMARK    1  A    between atoms: N_4  and  C_13
REMARK    2  A    between atoms: C_7  and  C_11
REMARK    3  A    between atoms: C_13  and  C_15
REMARK    4  A    between atoms: C_14  and  C_16
REMARK                            x       y       z     vdW  Elec       q    Type
REMARK                         _______ _______ _______ _____ _____    ______ ____
ROOT
ATOM      2  O   UNL     1      -0.729   1.332  22.272  0.00  0.00    -0.253 OA
ATOM      3  N   UNL     1      -1.086   2.381  24.294  0.00  0.00    -0.285 N 
ATOM      4  N   UNL     1       0.296   0.496  24.161  0.00  0.00    -0.295 N 
ATOM      7  C   UNL     1      -2.648   4.038  24.980  0.00  0.00    +0.095 C 
ATOM      8  C   UNL     1      -1.559   3.890  26.052  0.00  0.00    +0.033 C 
ATOM      9  C   UNL     1      -1.979   3.401  23.756  0.00  0.00    +0.122 C 
ATOM     10  C   UNL     1      -0.907   2.549  25.734  0.00  0.00    +0.110 C 
ATOM     12  C   UNL     1      -0.520   1.398  23.487  0.00  0.00    +0.302 C 
ATOM     22  H   UNL     1       0.400   0.560  25.168  0.00  0.00    +0.151 HD
ENDROOT
BRANCH   7  11
ATOM      1  O   UNL     1      -4.538   2.519  24.598  0.00  0.00    -0.425 OA
ATOM      5  N   UNL     1      -4.652   3.643  26.529  0.00  0.00    -0.112 NA
ATOM      6  N   UNL     1      -5.767   2.830  26.440  0.00  0.00    -0.113 NA
ATOM     11  C   UNL     1      -3.964   3.428  25.431  0.00  0.00    +0.222 A 
ATOM     14  C   UNL     1      -5.659   2.194  25.298  0.00  0.00    +0.214 A 
ATOM     16  C   UNL     1      -6.557   1.203  24.691  0.00  0.00    +0.111 C 
ENDBRANCH   7  11
BRANCH   4  13
ATOM     13  C   UNL     1       0.966  -0.594  23.490  0.00  0.00    +0.141 C 
BRANCH  13  15
ATOM     15  C   UNL     1       2.444  -0.355  23.372  0.00  0.00    -0.030 A 
ATOM     17  C   UNL     1       3.344  -1.311  23.842  0.00  0.00    +0.005 A 
ATOM     18  C   UNL     1       2.916   0.822  22.791  0.00  0.00    +0.005 A 
ATOM     19  C   UNL     1       4.718  -1.089  23.731  0.00  0.00    +0.000 A 
ATOM     20  C   UNL     1       4.288   1.045  22.682  0.00  0.00    +0.000 A 
ATOM     21  C   UNL     1       5.189   0.089  23.151  0.00  0.00    +0.000 A 
ENDBRANCH  13  15
ENDBRANCH   4  13
TORSDOF 3
ENDMDL
MODEL 4
REMARK VINA RESULT:      -2.4      2.089      7.874
REMARK  Name = 51137721
REMARK  4 active torsions:
REMARK  status: ('A' for Active; 'I' for Inactive)
REMARK    1  A    between atoms: N_4  and  C_13
REMARK    2  A    between atoms: C_7  and  C_11
REMARK    3  A    between atoms: C_13  and  C_15
REMARK    4  A    between atoms: C_14  and  C_16
REMARK                            x       y       z     vdW  Elec       q    Type
REMARK                         _______ _______ _______ _____ _____    ______ ____
ROOT
ATOM      2  O   UNL     1      -1.473   2.675  22.956  0.00  0.00    -0.253 OA
ATOM      3  N   UNL     1      -0.351   0.813  23.723  0.00  0.00    -0.285 N 
ATOM      4  N   UNL     1      -1.622   2.123  25.189  0.00  0.00    -0.295 N 
ATOM      7  C   UNL     1       1.314  -0.568  22.736  0.00  0.00    +0.095 C 
ATOM      8  C   UNL     1       0.757  -1.258  23.990  0.00  0.00    +0.033 C 
ATOM      9  C   UNL     1       0.221   0.462  22.428  0.00  0.00    +0.122 C 
ATOM     10  C   UNL     1       0.065  -0.135  24.754  0.00  0.00    +0.110 C 
ATOM     12  C   UNL     1      -1.173   1.925  23.888  0.00  0.00    +0.302 C 
ATOM     22  H   UNL     1      -1.310   1.508  25.933  0.00  0.00    +0.151 HD
ENDROOT
BRANCH   7  11
ATOM      1  O   UNL     1       3.655  -0.919  23.383  0.00  0.00    -0.425 OA
ATOM      5  N   UNL     1       3.172   1.195  22.833  0.00  0.00    -0.112 NA
ATOM      6  N   UNL     1       4.511   1.137  23.173  0.00  0.00    -0.113 NA
ATOM     11  C   UNL     1       2.714  -0.028  22.970  0.00  0.00    +0.222 A 
ATOM     14  C   UNL     1       4.748  -0.115  23.487  0.00  0.00    +0.214 A 
ATOM     16  C   UNL     1       6.000  -0.748  23.921  0.00  0.00    +0.111 C 
ENDBRANCH   7  11
BRANCH   4  13
ATOM     13  C   UNL     1      -2.481   3.226  25.553  0.00  0.00    +0.141 C 
BRANCH  13  15
ATOM     15  C   UNL     1      -3.934   2.865  25.446  0.00  0.00    -0.030 A 
ATOM     17  C   UNL     1      -4.912   3.815  25.743  0.00  0.00    +0.005 A 
ATOM     18  C   UNL     1      -4.306   1.581  25.049  0.00  0.00    +0.005 A 
ATOM     19  C   UNL     1      -6.263   3.479  25.643  0.00  0.00    +0.000 A 
ATOM     20  C   UNL     1      -5.656   1.245  24.950  0.00  0.00    +0.000 A 
ATOM     21  C   UNL     1      -6.634   2.194  25.246  0.00  0.00    +0.000 A 
ENDBRANCH  13  15
ENDBRANCH   4  13
TORSDOF 3
ENDMDL
MODEL 5
REMARK VINA RESULT:      -1.6      1.856      7.876
REMARK  Name = 51137721
REMARK  4 active torsions:
REMARK  status: ('A' for Active; 'I' for Inactive)
REMARK    1  A    between atoms: N_4  and  C_13
REMARK    2  A    between atoms: C_7  and  C_11
REMARK    3  A    between atoms: C_13  and  C_15
REMARK    4  A    between atoms: C_14  and  C_16
REMARK                            x       y       z     vdW  Elec       q    Type
REMARK                         _______ _______ _______ _____ _____    ______ ____
ROOT
ATOM      2  O   UNL     1      -0.244   1.717  25.328  0.00  0.00    -0.253 OA
ATOM      3  N   UNL     1       0.617   0.512  23.561  0.00  0.00    -0.285 N 
ATOM      4  N   UNL     1      -1.278  -0.248  24.706  0.00  0.00    -0.295 N 
ATOM      7  C   UNL     1       2.669   0.670  22.369  0.00  0.00    +0.095 C 
ATOM      8  C   UNL     1       1.700  -0.237  21.597  0.00  0.00    +0.033 C 
ATOM      9  C   UNL     1       1.718   1.433  23.300  0.00  0.00    +0.122 C 
ATOM     10  C   UNL     1       0.643  -0.613  22.630  0.00  0.00    +0.110 C 
ATOM     12  C   UNL     1      -0.300   0.733  24.585  0.00  0.00    +0.302 C 
ATOM     22  H   UNL     1      -1.256  -1.064  24.104  0.00  0.00    +0.151 HD
ENDROOT
BRANCH   7  11
ATOM      1  O   UNL     1       5.027   0.402  22.997  0.00  0.00    -0.425 OA
ATOM      5  N   UNL     1       3.714  -1.286  23.655  0.00  0.00    -0.112 NA
ATOM      6  N   UNL     1       5.004  -1.561  24.069  0.00  0.00    -0.113 NA
ATOM     11  C   UNL     1       3.776  -0.131  23.034  0.00  0.00    +0.222 A 
ATOM     14  C   UNL     1       5.735  -0.549  23.664  0.00  0.00    +0.214 A 
ATOM     16  C   UNL     1       7.175  -0.310  23.830  0.00  0.00    +0.111 C 
ENDBRANCH   7  11
BRANCH   4  13
ATOM     13  C   UNL     1      -2.312  -0.191  25.713  0.00  0.00    +0.141 C 
BRANCH  13  15
ATOM     15  C   UNL     1      -3.415   0.754  25.333  0.00  0.00    -0.030 A 
ATOM     17  C   UNL     1      -4.737   0.311  25.315  0.00  0.00    +0.005 A 
ATOM     18  C   UNL     1      -3.117   2.075  24.997  0.00  0.00    +0.005 A 
ATOM     19  C   UNL     1      -5.762   1.190  24.962  0.00  0.00    +0.000 A 
ATOM     20  C   UNL     1      -4.141   2.953  24.643  0.00  0.00    +0.000 A 
ATOM     21  C   UNL     1      -5.463   2.510  24.626  0.00  0.00    +0.000 A 
ENDBRANCH  13  15
ENDBRANCH   4  13
TORSDOF 3
ENDMDL
MODEL 6
REMARK VINA RESULT:      -1.5      3.417      5.638
REMARK  Name = 51137721
REMARK  4 active torsions:
REMARK  status: ('A' for Active; 'I' for Inactive)
REMARK    1  A    between atoms: N_4  and  C_13
REMARK    2  A    between atoms: C_7  and  C_11
REMARK    3  A    between atoms: C_13  and  C_15
REMARK    4  A    between atoms: C_14  and  C_16
REMARK                            x       y       z     vdW  Elec       q    Type
REMARK                         _______ _______ _______ _____ _____    ______ ____
ROOT
ATOM      2  O   UNL     1      -0.215  -0.134  23.373  0.00  0.00    -0.253 OA
ATOM      3  N   UNL     1      -0.029   1.365  25.115  0.00  0.00    -0.285 N 
ATOM      4  N   UNL     1      -0.604  -0.868  25.524  0.00  0.00    -0.295 N 
ATOM      7  C   UNL     1       0.152   3.735  25.169  0.00  0.00    +0.095 C 
ATOM      8  C   UNL     1       0.492   3.166  26.554  0.00  0.00    +0.033 C 
ATOM      9  C   UNL     1       0.315   2.503  24.270  0.00  0.00    +0.122 C 
ATOM     10  C   UNL     1      -0.076   1.751  26.523  0.00  0.00    +0.110 C 
ATOM     12  C   UNL     1      -0.277   0.102  24.583  0.00  0.00    +0.302 C 
ATOM     22  H   UNL     1      -0.691  -0.616  26.503  0.00  0.00    +0.151 HD
ENDROOT
BRANCH   7  11
ATOM      1  O   UNL     1      -2.297   3.599  25.245  0.00  0.00    -0.425 OA
ATOM      5  N   UNL     1      -1.508   5.686  25.083  0.00  0.00    -0.112 NA
ATOM      6  N   UNL     1      -2.889   5.752  25.116  0.00  0.00    -0.113 NA
ATOM     11  C   UNL     1      -1.209   4.410  25.160  0.00  0.00    +0.222 A 
ATOM     14  C   UNL     1      -3.306   4.512  25.211  0.00  0.00    +0.214 A 
ATOM     16  C   UNL     1      -4.677   3.989  25.287  0.00  0.00    +0.111 C 
ENDBRANCH   7  11
BRANCH   4  13
ATOM     13  C   UNL     1      -0.897  -2.234  25.160  0.00  0.00    +0.141 C 
BRANCH  13  15
ATOM     15  C   UNL     1      -2.285  -2.382  24.606  0.00  0.00    -0.030 A 
ATOM     17  C   UNL     1      -3.161  -1.297  24.621  0.00  0.00    +0.005 A 
ATOM     18  C   UNL     1      -2.698  -3.605  24.077  0.00  0.00    +0.005 A 
ATOM     19  C   UNL     1      -4.451  -1.436  24.106  0.00  0.00    +0.000 A 
ATOM     20  C   UNL     1      -3.987  -3.744  23.563  0.00  0.00    +0.000 A 
ATOM     21  C   UNL     1      -4.863  -2.659  23.577  0.00  0.00    +0.000 A 
ENDBRANCH  13  15
ENDBRANCH   4  13
TORSDOF 3
ENDMDL
