MODEL 1
REMARK VINA RESULT:      -0.8      0.000      0.000
REMARK  Name = 75536981
REMARK  4 active torsions:
REMARK  status: ('A' for Active; 'I' for Inactive)
REMARK    1  A    between atoms: S_1  and  N_6
REMARK    2  A    between atoms: S_1  and  C_16
REMARK    3  A    between atoms: N_7  and  C_15
REMARK    4  A    between atoms: C_15  and  C_17
REMARK                            x       y       z     vdW  Elec       q    Type
REMARK                         _______ _______ _______ _____ _____    ______ ____
ROOT
ATOM      2  O   UNL     1       0.259  -1.519  23.829  0.00  0.00    -0.252 OA
ATOM      5  N   UNL     1      -0.330   0.589  24.683  0.00  0.00    -0.278 N 
ATOM      6  N   UNL     1      -1.991   2.704  25.449  0.00  0.00    -0.173 NA
ATOM      7  N   UNL     1       1.396   0.465  23.250  0.00  0.00    -0.278 N 
ATOM      9  C   UNL     1       0.203   1.937  24.638  0.00  0.00    +0.111 C 
ATOM     10  C   UNL     1      -0.920   2.947  24.425  0.00  0.00    +0.133 C 
ATOM     11  C   UNL     1       1.232   1.885  23.512  0.00  0.00    +0.133 C 
ATOM     12  C   UNL     1      -1.454   0.290  25.550  0.00  0.00    +0.127 C 
ATOM     13  C   UNL     1      -2.561   1.319  25.344  0.00  0.00    +0.128 C 
ATOM     14  C   UNL     1       0.422  -0.308  23.913  0.00  0.00    +0.306 C 
ENDROOT
BRANCH   6   1
ATOM      1  S   UNL     1      -3.147   3.958  25.606  0.00  0.00    +0.061 S 
ATOM      3  O   UNL     1      -3.055   4.831  24.457  0.00  0.00    -0.153 OA
ATOM      4  O   UNL     1      -3.087   4.486  26.952  0.00  0.00    -0.153 OA
BRANCH   1  16
ATOM     16  C   UNL     1      -4.637   3.022  25.456  0.00  0.00    +0.105 A 
ATOM     18  C   UNL     1      -5.488   2.885  26.552  0.00  0.00    +0.028 A 
ATOM     19  C   UNL     1      -4.961   2.418  24.241  0.00  0.00    +0.028 A 
ATOM     21  C   UNL     1      -6.664   2.143  26.435  0.00  0.00    +0.002 A 
ATOM     22  C   UNL     1      -6.136   1.675  24.124  0.00  0.00    +0.002 A 
ATOM     23  C   UNL     1      -6.987   1.537  25.220  0.00  0.00    +0.000 A 
ENDBRANCH   1  16
ENDBRANCH   6   1
BRANCH   7  15
ATOM     15  C   UNL     1       2.373  -0.032  22.308  0.00  0.00    +0.164 C 
BRANCH  15  17
ATOM      8  N   UNL     1       3.921  -1.471  23.507  0.00  0.00    -0.258 NA
ATOM     17  C   UNL     1       3.712  -0.256  22.953  0.00  0.00    +0.059 A 
ATOM     20  C   UNL     1       4.647   0.766  22.949  0.00  0.00    +0.025 A 
ATOM     24  C   UNL     1       5.875   0.525  23.554  0.00  0.00    +0.003 A 
ATOM     25  C   UNL     1       5.127  -1.668  24.084  0.00  0.00    +0.111 A 
ATOM     26  C   UNL     1       6.128  -0.712  24.133  0.00  0.00    +0.020 A 
ENDBRANCH  15  17
ENDBRANCH   7  15
TORSDOF 4
ENDMDL
MODEL 2
REMARK VINA RESULT:       0.6      2.048      3.005
REMARK  Name = 75536981
REMARK  4 active torsions:
REMARK  status: ('A' for Active; 'I' for Inactive)
REMARK    1  A    between atoms: S_1  and  N_6
REMARK    2  A    between atoms: S_1  and  C_16
REMARK    3  A    between atoms: N_7  and  C_15
REMARK    4  A    between atoms: C_15  and  C_17
REMARK                            x       y       z     vdW  Elec       q    Type
REMARK                         _______ _______ _______ _____ _____    ______ ____
ROOT
ATOM      2  O   UNL     1      -0.629  -2.667  23.853  0.00  0.00    -0.252 OA
ATOM      5  N   UNL     1      -1.424  -0.608  24.657  0.00  0.00    -0.278 N 
ATOM      6  N   UNL     1      -3.281   1.377  25.314  0.00  0.00    -0.173 NA
ATOM      7  N   UNL     1       0.383  -0.604  23.323  0.00  0.00    -0.278 N 
ATOM      9  C   UNL     1      -0.994   0.777  24.632  0.00  0.00    +0.111 C 
ATOM     10  C   UNL     1      -2.177   1.697  24.349  0.00  0.00    +0.133 C 
ATOM     11  C   UNL     1       0.098   0.799  23.565  0.00  0.00    +0.133 C 
ATOM     12  C   UNL     1      -2.569  -0.989  25.463  0.00  0.00    +0.127 C 
ATOM     13  C   UNL     1      -3.737  -0.048  25.189  0.00  0.00    +0.128 C 
ATOM     14  C   UNL     1      -0.564  -1.448  23.937  0.00  0.00    +0.306 C 
ENDROOT
BRANCH   6   1
ATOM      1  S   UNL     1      -4.537   2.539  25.397  0.00  0.00    +0.061 S 
ATOM      3  O   UNL     1      -4.957   2.682  26.774  0.00  0.00    -0.153 OA
ATOM      4  O   UNL     1      -5.497   2.269  24.348  0.00  0.00    -0.153 OA
BRANCH   1  16
ATOM     16  C   UNL     1      -3.640   3.993  24.951  0.00  0.00    +0.105 A 
ATOM     18  C   UNL     1      -4.091   4.798  23.905  0.00  0.00    +0.028 A 
ATOM     19  C   UNL     1      -2.477   4.334  25.643  0.00  0.00    +0.028 A 
ATOM     21  C   UNL     1      -3.380   5.944  23.550  0.00  0.00    +0.002 A 
ATOM     22  C   UNL     1      -1.767   5.481  25.288  0.00  0.00    +0.002 A 
ATOM     23  C   UNL     1      -2.217   6.285  24.242  0.00  0.00    +0.000 A 
ENDBRANCH   1  16
ENDBRANCH   6   1
BRANCH   7  15
ATOM     15  C   UNL     1       1.447  -1.029  22.441  0.00  0.00    +0.164 C 
BRANCH  15  17
ATOM      8  N   UNL     1       3.105   0.745  22.510  0.00  0.00    -0.258 NA
ATOM     17  C   UNL     1       2.786  -0.513  22.886  0.00  0.00    +0.059 A 
ATOM     20  C   UNL     1       3.610  -1.330  23.643  0.00  0.00    +0.025 A 
ATOM     24  C   UNL     1       4.842  -0.823  24.039  0.00  0.00    +0.003 A 
ATOM     25  C   UNL     1       4.310   1.205  22.915  0.00  0.00    +0.111 A 
ATOM     26  C   UNL     1       5.206   0.468  23.673  0.00  0.00    +0.020 A 
ENDBRANCH  15  17
ENDBRANCH   7  15
TORSDOF 4
ENDMDL
MODEL 3
REMARK VINA RESULT:       0.9     16.997     18.410
REMARK  Name = 75536981
REMARK  4 active torsions:
REMARK  status: ('A' for Active; 'I' for Inactive)
REMARK    1  A    between atoms: S_1  and  N_6
REMARK    2  A    between atoms: S_1  and  C_16
REMARK    3  A    between atoms: N_7  and  C_15
REMARK    4  A    between atoms: C_15  and  C_17
REMARK                            x       y       z     vdW  Elec       q    Type
REMARK                         _______ _______ _______ _____ _____    ______ ____
ROOT
ATOM      2  O   UNL     1      -2.242  -8.845  10.068  0.00  0.00    -0.252 OA
ATOM      5  N   UNL     1      -4.383  -9.804   9.942  0.00  0.00    -0.278 N 
ATOM      6  N   UNL     1      -7.128  -9.963   9.433  0.00  0.00    -0.173 NA
ATOM      7  N   UNL     1      -3.168 -10.150  11.801  0.00  0.00    -0.278 N 
ATOM      9  C   UNL     1      -5.181 -10.722  10.733  0.00  0.00    +0.111 C 
ATOM     10  C   UNL     1      -6.623 -10.234  10.820  0.00  0.00    +0.133 C 
ATOM     11  C   UNL     1      -4.448 -10.781  12.072  0.00  0.00    +0.133 C 
ATOM     12  C   UNL     1      -4.856  -9.383   8.638  0.00  0.00    +0.127 C 
ATOM     13  C   UNL     1      -6.306  -8.919   8.734  0.00  0.00    +0.128 C 
ATOM     14  C   UNL     1      -3.149  -9.517  10.542  0.00  0.00    +0.306 C 
ENDROOT
BRANCH   6   1
ATOM      1  S   UNL     1      -8.824  -9.766   9.299  0.00  0.00    +0.061 S 
ATOM      3  O   UNL     1      -9.428  -9.994  10.594  0.00  0.00    -0.153 OA
ATOM      4  O   UNL     1      -9.288 -10.471   8.124  0.00  0.00    -0.153 OA
BRANCH   1  16
ATOM     16  C   UNL     1      -8.906  -8.034   8.962  0.00  0.00    +0.105 A 
ATOM     18  C   UNL     1      -7.768  -7.353   8.533  0.00  0.00    +0.028 A 
ATOM     19  C   UNL     1     -10.109  -7.348   9.129  0.00  0.00    +0.028 A 
ATOM     21  C   UNL     1      -7.831  -5.984   8.270  0.00  0.00    +0.002 A 
ATOM     22  C   UNL     1     -10.172  -5.979   8.866  0.00  0.00    +0.002 A 
ATOM     23  C   UNL     1      -9.034  -5.297   8.437  0.00  0.00    +0.000 A 
ENDBRANCH   1  16
ENDBRANCH   6   1
BRANCH   7  15
ATOM     15  C   UNL     1      -2.118 -10.090  12.793  0.00  0.00    +0.164 C 
BRANCH  15  17
ATOM      8  N   UNL     1      -0.323  -9.663  11.213  0.00  0.00    -0.258 NA
ATOM     17  C   UNL     1      -0.958  -9.254  12.334  0.00  0.00    +0.059 A 
ATOM     20  C   UNL     1      -0.603  -8.129  13.060  0.00  0.00    +0.025 A 
ATOM     24  C   UNL     1       0.475  -7.376  12.608  0.00  0.00    +0.003 A 
ATOM     25  C   UNL     1       0.719  -8.905  10.803  0.00  0.00    +0.111 A 
ATOM     26  C   UNL     1       1.153  -7.765  11.458  0.00  0.00    +0.020 A 
ENDBRANCH  15  17
ENDBRANCH   7  15
TORSDOF 4
ENDMDL
MODEL 4
REMARK VINA RESULT:       1.2      2.378      3.696
REMARK  Name = 75536981
REMARK  4 active torsions:
REMARK  status: ('A' for Active; 'I' for Inactive)
REMARK    1  A    between atoms: S_1  and  N_6
REMARK    2  A    between atoms: S_1  and  C_16
REMARK    3  A    between atoms: N_7  and  C_15
REMARK    4  A    between atoms: C_15  and  C_17
REMARK                            x       y       z     vdW  Elec       q    Type
REMARK                         _______ _______ _______ _____ _____    ______ ____
ROOT
ATOM      2  O   UNL     1      -1.674  -3.213  23.533  0.00  0.00    -0.252 OA
ATOM      5  N   UNL     1      -2.815  -1.609  24.815  0.00  0.00    -0.278 N 
ATOM      6  N   UNL     1      -4.595   0.472  25.378  0.00  0.00    -0.173 NA
ATOM      7  N   UNL     1      -0.596  -1.819  25.100  0.00  0.00    -0.278 N 
ATOM      9  C   UNL     1      -2.502  -0.708  25.908  0.00  0.00    +0.111 C 
ATOM     10  C   UNL     1      -3.135   0.659  25.669  0.00  0.00    +0.133 C 
ATOM     11  C   UNL     1      -0.976  -0.703  25.951  0.00  0.00    +0.133 C 
ATOM     12  C   UNL     1      -4.190  -1.755  24.377  0.00  0.00    +0.127 C 
ATOM     13  C   UNL     1      -4.819  -0.381  24.164  0.00  0.00    +0.128 C 
ATOM     14  C   UNL     1      -1.694  -2.327  24.378  0.00  0.00    +0.306 C 
ENDROOT
BRANCH   6   1
ATOM      1  S   UNL     1      -5.541   1.899  25.450  0.00  0.00    +0.061 S 
ATOM      3  O   UNL     1      -6.096   2.031  26.779  0.00  0.00    -0.153 OA
ATOM      4  O   UNL     1      -6.387   1.961  24.278  0.00  0.00    -0.153 OA
BRANCH   1  16
ATOM     16  C   UNL     1      -4.274   3.116  25.270  0.00  0.00    +0.105 A 
ATOM     18  C   UNL     1      -3.786   3.432  24.002  0.00  0.00    +0.028 A 
ATOM     19  C   UNL     1      -3.759   3.759  26.396  0.00  0.00    +0.028 A 
ATOM     21  C   UNL     1      -2.783   4.391  23.859  0.00  0.00    +0.002 A 
ATOM     22  C   UNL     1      -2.756   4.718  26.253  0.00  0.00    +0.002 A 
ATOM     23  C   UNL     1      -2.267   5.033  24.985  0.00  0.00    +0.000 A 
ENDBRANCH   1  16
ENDBRANCH   6   1
BRANCH   7  15
ATOM     15  C   UNL     1       0.781  -2.231  24.948  0.00  0.00    +0.164 C 
BRANCH  15  17
ATOM      8  N   UNL     1       2.888  -1.484  23.998  0.00  0.00    -0.258 NA
ATOM     17  C   UNL     1       1.550  -1.302  24.053  0.00  0.00    +0.059 A 
ATOM     20  C   UNL     1       0.870  -0.326  23.342  0.00  0.00    +0.025 A 
ATOM     24  C   UNL     1       1.612   0.517  22.523  0.00  0.00    +0.003 A 
ATOM     25  C   UNL     1       3.575  -0.646  23.190  0.00  0.00    +0.111 A 
ATOM     26  C   UNL     1       2.990   0.360  22.439  0.00  0.00    +0.020 A 
ENDBRANCH  15  17
ENDBRANCH   7  15
TORSDOF 4
ENDMDL
MODEL 5
REMARK VINA RESULT:       1.8      2.225      2.732
REMARK  Name = 75536981
REMARK  4 active torsions:
REMARK  status: ('A' for Active; 'I' for Inactive)
REMARK    1  A    between atoms: S_1  and  N_6
REMARK    2  A    between atoms: S_1  and  C_16
REMARK    3  A    between atoms: N_7  and  C_15
REMARK    4  A    between atoms: C_15  and  C_17
REMARK                            x       y       z     vdW  Elec       q    Type
REMARK                         _______ _______ _______ _____ _____    ______ ____
ROOT
ATOM      2  O   UNL     1       2.385   1.781  23.898  0.00  0.00    -0.252 OA
ATOM      5  N   UNL     1       0.141   1.131  23.649  0.00  0.00    -0.278 N 
ATOM      6  N   UNL     1      -2.431   0.342  24.413  0.00  0.00    -0.173 NA
ATOM      7  N   UNL     1       1.681   0.178  22.318  0.00  0.00    -0.278 N 
ATOM      9  C   UNL     1      -0.627   0.302  22.739  0.00  0.00    +0.111 C 
ATOM     10  C   UNL     1      -1.628  -0.550  23.512  0.00  0.00    +0.133 C 
ATOM     11  C   UNL     1       0.436  -0.493  21.985  0.00  0.00    +0.133 C 
ATOM     12  C   UNL     1      -0.546   1.931  24.644  0.00  0.00    +0.127 C 
ATOM     13  C   UNL     1      -1.560   1.073  25.394  0.00  0.00    +0.128 C 
ATOM     14  C   UNL     1       1.511   1.116  23.356  0.00  0.00    +0.306 C 
ENDROOT
BRANCH   6   1
ATOM      1  S   UNL     1      -3.840  -0.370  25.078  0.00  0.00    +0.061 S 
ATOM      3  O   UNL     1      -3.511  -0.963  26.355  0.00  0.00    -0.153 OA
ATOM      4  O   UNL     1      -4.509  -1.136  24.048  0.00  0.00    -0.153 OA
BRANCH   1  16
ATOM     16  C   UNL     1      -4.800   1.080  25.387  0.00  0.00    +0.105 A 
ATOM     18  C   UNL     1      -4.411   2.303  24.840  0.00  0.00    +0.028 A 
ATOM     19  C   UNL     1      -5.945   1.002  26.180  0.00  0.00    +0.028 A 
ATOM     21  C   UNL     1      -5.167   3.449  25.087  0.00  0.00    +0.002 A 
ATOM     22  C   UNL     1      -6.700   2.149  26.426  0.00  0.00    +0.002 A 
ATOM     23  C   UNL     1      -6.312   3.372  25.881  0.00  0.00    +0.000 A 
ENDBRANCH   1  16
ENDBRANCH   6   1
BRANCH   7  15
ATOM     15  C   UNL     1       2.940  -0.202  21.719  0.00  0.00    +0.164 C 
BRANCH  15  17
ATOM      8  N   UNL     1       4.073  -1.502  23.431  0.00  0.00    -0.258 NA
ATOM     17  C   UNL     1       4.030  -0.339  22.744  0.00  0.00    +0.059 A 
ATOM     20  C   UNL     1       4.920   0.706  22.931  0.00  0.00    +0.025 A 
ATOM     24  C   UNL     1       5.917   0.547  23.887  0.00  0.00    +0.003 A 
ATOM     25  C   UNL     1       5.057  -1.621  24.349  0.00  0.00    +0.111 A 
ATOM     26  C   UNL     1       5.995  -0.636  24.613  0.00  0.00    +0.020 A 
ENDBRANCH  15  17
ENDBRANCH   7  15
TORSDOF 4
ENDMDL
MODEL 6
REMARK VINA RESULT:       3.2      1.929      8.676
REMARK  Name = 75536981
REMARK  4 active torsions:
REMARK  status: ('A' for Active; 'I' for Inactive)
REMARK    1  A    between atoms: S_1  and  N_6
REMARK    2  A    between atoms: S_1  and  C_16
REMARK    3  A    between atoms: N_7  and  C_15
REMARK    4  A    between atoms: C_15  and  C_17
REMARK                            x       y       z     vdW  Elec       q    Type
REMARK                         _______ _______ _______ _____ _____    ______ ____
ROOT
ATOM      2  O   UNL     1      -1.287   5.303  24.849  0.00  0.00    -0.252 OA
ATOM      5  N   UNL     1      -0.387   3.134  24.803  0.00  0.00    -0.278 N 
ATOM      6  N   UNL     1       0.905   0.884  23.759  0.00  0.00    -0.173 NA
ATOM      7  N   UNL     1      -2.423   3.423  25.708  0.00  0.00    -0.278 N 
ATOM      9  C   UNL     1      -0.741   1.829  25.326  0.00  0.00    +0.111 C 
ATOM     10  C   UNL     1      -0.497   0.749  24.276  0.00  0.00    +0.133 C 
ATOM     11  C   UNL     1      -2.200   1.988  25.747  0.00  0.00    +0.133 C 
ATOM     12  C   UNL     1       0.902   3.326  24.166  0.00  0.00    +0.127 C 
ATOM     13  C   UNL     1       1.144   2.228  23.135  0.00  0.00    +0.128 C 
ATOM     14  C   UNL     1      -1.355   4.105  25.091  0.00  0.00    +0.306 C 
ENDROOT
BRANCH   6   1
ATOM      1  S   UNL     1       1.480  -0.453  22.855  0.00  0.00    +0.061 S 
ATOM      3  O   UNL     1       1.317  -0.173  21.445  0.00  0.00    -0.153 OA
ATOM      4  O   UNL     1       0.965  -1.672  23.440  0.00  0.00    -0.153 OA
BRANCH   1  16
ATOM     16  C   UNL     1       3.204  -0.357  23.229  0.00  0.00    +0.105 A 
ATOM     18  C   UNL     1       3.857  -1.455  23.788  0.00  0.00    +0.028 A 
ATOM     19  C   UNL     1       3.910   0.817  22.968  0.00  0.00    +0.028 A 
ATOM     21  C   UNL     1       5.218  -1.379  24.087  0.00  0.00    +0.002 A 
ATOM     22  C   UNL     1       5.270   0.893  23.267  0.00  0.00    +0.002 A 
ATOM     23  C   UNL     1       5.924  -0.204  23.827  0.00  0.00    +0.000 A 
ENDBRANCH   1  16
ENDBRANCH   6   1
BRANCH   7  15
ATOM     15  C   UNL     1      -3.667   4.017  26.141  0.00  0.00    +0.164 C 
BRANCH  15  17
ATOM      8  N   UNL     1      -5.636   2.807  26.891  0.00  0.00    -0.258 NA
ATOM     17  C   UNL     1      -4.845   3.133  25.845  0.00  0.00    +0.059 A 
ATOM     20  C   UNL     1      -5.062   2.705  24.545  0.00  0.00    +0.025 A 
ATOM     24  C   UNL     1      -6.161   1.889  24.305  0.00  0.00    +0.003 A 
ATOM     25  C   UNL     1      -6.695   2.014  26.619  0.00  0.00    +0.111 A 
ATOM     26  C   UNL     1      -6.999   1.532  25.356  0.00  0.00    +0.020 A 
ENDBRANCH  15  17
ENDBRANCH   7  15
TORSDOF 4
ENDMDL
