MODEL 1
REMARK VINA RESULT:       7.0      0.000      0.000
REMARK  Name = 9423851
REMARK  4 active torsions:
REMARK  status: ('A' for Active; 'I' for Inactive)
REMARK    1  A    between atoms: N_9  and  C_22
REMARK    2  A    between atoms: C_11  and  C_15
REMARK    3  A    between atoms: C_12  and  C_21
REMARK    4  A    between atoms: C_24  and  C_28
REMARK                            x       y       z     vdW  Elec       q    Type
REMARK                         _______ _______ _______ _____ _____    ______ ____
ROOT
ATOM      2  O   UNL     1      -4.604   3.545  22.805  0.00  0.00    -0.275 OA
ATOM      4  O   UNL     1       1.641   1.962  25.116  0.00  0.00    -0.270 OA
ATOM      6  N   UNL     1      -3.044   3.299  24.516  0.00  0.00    -0.287 N 
ATOM      7  N   UNL     1      -0.327   3.201  25.348  0.00  0.00    -0.294 N 
ATOM     12  C   UNL     1      -2.027   2.741  23.612  0.00  0.00    +0.179 C 
ATOM     13  C   UNL     1      -0.613   3.237  23.915  0.00  0.00    +0.140 C 
ATOM     14  C   UNL     1      -2.698   3.350  25.948  0.00  0.00    +0.127 C 
ATOM     15  C   UNL     1      -4.315   3.587  24.004  0.00  0.00    +0.219 C 
ATOM     18  C   UNL     1      -1.303   3.919  26.170  0.00  0.00    +0.127 C 
ATOM     24  C   UNL     1       0.825   2.565  25.812  0.00  0.00    +0.247 C 
ENDROOT
BRANCH  24  28
ATOM      1  F   UNL     1       3.745   3.560  29.552  0.00  0.00    -0.205 F 
ATOM     28  C   UNL     1       1.095   2.590  27.255  0.00  0.00    +0.040 A 
ATOM     29  C   UNL     1       2.316   3.072  27.727  0.00  0.00    +0.051 A 
ATOM     30  C   UNL     1       0.132   2.132  28.153  0.00  0.00    +0.013 A 
ATOM     31  C   UNL     1       2.574   3.097  29.098  0.00  0.00    +0.124 A 
ATOM     32  C   UNL     1       0.390   2.156  29.524  0.00  0.00    +0.004 A 
ATOM     33  C   UNL     1       1.610   2.638  29.997  0.00  0.00    +0.038 A 
ENDBRANCH  24  28
BRANCH  15  11
ATOM      8  N   UNL     1      -6.565   1.580  26.206  0.00  0.00    -0.316 NA
ATOM     11  C   UNL     1      -5.372   3.972  25.000  0.00  0.00    +0.078 C 
ATOM     16  C   UNL     1      -6.741   3.434  24.579  0.00  0.00    +0.028 C 
ATOM     17  C   UNL     1      -5.001   3.487  26.402  0.00  0.00    +0.028 C 
ATOM     19  C   UNL     1      -6.872   1.930  24.820  0.00  0.00    +0.081 C 
ATOM     20  C   UNL     1      -5.205   1.980  26.567  0.00  0.00    +0.081 C 
ATOM     34  H   UNL     1      -6.664   0.573  26.331  0.00  0.00    +0.122 HD
ENDBRANCH  15  11
BRANCH  12  21
ATOM      3  O   UNL     1      -1.468   0.496  23.018  0.00  0.00    -0.274 OA
ATOM      9  N   UNL     1      -3.041   0.859  24.695  0.00  0.00    -0.302 N 
ATOM     21  C   UNL     1      -2.127   1.248  23.731  0.00  0.00    +0.236 C 
ATOM     35  H   UNL     1      -3.476   1.566  25.281  0.00  0.00    +0.150 HD
BRANCH   9  22
ATOM      5  O   UNL     1      -1.171  -0.606  26.047  0.00  0.00    -0.274 OA
ATOM     10  N   UNL     1      -1.948  -2.551  25.135  0.00  0.00    -0.314 N 
ATOM     22  C   UNL     1      -3.338  -0.519  24.989  0.00  0.00    +0.159 C 
ATOM     23  C   UNL     1      -4.045  -1.182  23.815  0.00  0.00    +0.033 C 
ATOM     25  C   UNL     1      -4.188  -2.672  24.083  0.00  0.00    +0.021 C 
ATOM     26  C   UNL     1      -2.041  -1.201  25.408  0.00  0.00    +0.233 C 
ATOM     27  C   UNL     1      -2.808  -3.285  24.226  0.00  0.00    +0.104 C 
ATOM     36  H   UNL     1      -1.113  -3.028  25.461  0.00  0.00    +0.149 HD
ENDBRANCH   9  22
ENDBRANCH  12  21
TORSDOF 4
ENDMDL
MODEL 2
REMARK VINA RESULT:       7.5      3.116      4.328
REMARK  Name = 9423851
REMARK  4 active torsions:
REMARK  status: ('A' for Active; 'I' for Inactive)
REMARK    1  A    between atoms: N_9  and  C_22
REMARK    2  A    between atoms: C_11  and  C_15
REMARK    3  A    between atoms: C_12  and  C_21
REMARK    4  A    between atoms: C_24  and  C_28
REMARK                            x       y       z     vdW  Elec       q    Type
REMARK                         _______ _______ _______ _____ _____    ______ ____
ROOT
ATOM      2  O   UNL     1      -3.515   2.963  24.081  0.00  0.00    -0.275 OA
ATOM      4  O   UNL     1       1.301  -1.051  21.336  0.00  0.00    -0.270 OA
ATOM      6  N   UNL     1      -1.376   2.045  24.047  0.00  0.00    -0.287 N 
ATOM      7  N   UNL     1       0.745   0.848  22.578  0.00  0.00    -0.294 N 
ATOM     12  C   UNL     1      -1.684   1.175  22.901  0.00  0.00    +0.179 C 
ATOM     13  C   UNL     1      -0.534   1.061  21.902  0.00  0.00    +0.140 C 
ATOM     14  C   UNL     1      -0.042   1.889  24.653  0.00  0.00    +0.127 C 
ATOM     15  C   UNL     1      -2.399   2.832  24.590  0.00  0.00    +0.219 C 
ATOM     18  C   UNL     1       1.056   1.852  23.597  0.00  0.00    +0.127 C 
ATOM     24  C   UNL     1       1.569  -0.210  22.193  0.00  0.00    +0.247 C 
ENDROOT
BRANCH  24  28
ATOM      1  F   UNL     1       5.830   1.605  23.625  0.00  0.00    -0.205 F 
ATOM     28  C   UNL     1       2.864  -0.360  22.869  0.00  0.00    +0.040 A 
ATOM     29  C   UNL     1       3.749   0.715  22.927  0.00  0.00    +0.051 A 
ATOM     30  C   UNL     1       3.207  -1.579  23.452  0.00  0.00    +0.013 A 
ATOM     31  C   UNL     1       4.979   0.573  23.569  0.00  0.00    +0.124 A 
ATOM     32  C   UNL     1       4.438  -1.722  24.094  0.00  0.00    +0.004 A 
ATOM     33  C   UNL     1       5.324  -0.646  24.152  0.00  0.00    +0.038 A 
ENDBRANCH  24  28
BRANCH  15  11
ATOM      8  N   UNL     1      -1.775   6.428  25.375  0.00  0.00    -0.316 NA
ATOM     11  C   UNL     1      -2.086   3.554  25.869  0.00  0.00    +0.078 C 
ATOM     16  C   UNL     1      -0.716   4.233  25.792  0.00  0.00    +0.028 C 
ATOM     17  C   UNL     1      -3.180   4.569  26.204  0.00  0.00    +0.028 C 
ATOM     19  C   UNL     1      -0.741   5.494  24.929  0.00  0.00    +0.081 C 
ATOM     20  C   UNL     1      -3.103   5.817  25.323  0.00  0.00    +0.081 C 
ATOM     34  H   UNL     1      -1.761   7.257  24.780  0.00  0.00    +0.122 HD
ENDBRANCH  15  11
BRANCH  12  21
ATOM      3  O   UNL     1      -1.240  -1.077  23.564  0.00  0.00    -0.274 OA
ATOM      9  N   UNL     1      -3.388  -0.225  23.841  0.00  0.00    -0.302 N 
ATOM     21  C   UNL     1      -2.055  -0.163  23.473  0.00  0.00    +0.236 C 
ATOM     35  H   UNL     1      -3.957   0.617  23.792  0.00  0.00    +0.150 HD
BRANCH   9  22
ATOM      5  O   UNL     1      -2.828  -0.873  26.436  0.00  0.00    -0.274 OA
ATOM     10  N   UNL     1      -3.246  -3.083  26.036  0.00  0.00    -0.314 N 
ATOM     22  C   UNL     1      -4.000  -1.405  24.394  0.00  0.00    +0.159 C 
ATOM     23  C   UNL     1      -4.025  -2.532  23.371  0.00  0.00    +0.033 C 
ATOM     25  C   UNL     1      -4.512  -3.811  24.034  0.00  0.00    +0.021 C 
ATOM     26  C   UNL     1      -3.272  -1.747  25.689  0.00  0.00    +0.233 C 
ATOM     27  C   UNL     1      -3.554  -4.188  25.148  0.00  0.00    +0.104 C 
ATOM     36  H   UNL     1      -2.814  -3.317  26.926  0.00  0.00    +0.149 HD
ENDBRANCH   9  22
ENDBRANCH  12  21
TORSDOF 4
ENDMDL
MODEL 3
REMARK VINA RESULT:       9.3      3.514      7.476
REMARK  Name = 9423851
REMARK  4 active torsions:
REMARK  status: ('A' for Active; 'I' for Inactive)
REMARK    1  A    between atoms: N_9  and  C_22
REMARK    2  A    between atoms: C_11  and  C_15
REMARK    3  A    between atoms: C_12  and  C_21
REMARK    4  A    between atoms: C_24  and  C_28
REMARK                            x       y       z     vdW  Elec       q    Type
REMARK                         _______ _______ _______ _____ _____    ______ ____
ROOT
ATOM      2  O   UNL     1       2.841   1.923  23.734  0.00  0.00    -0.275 OA
ATOM      4  O   UNL     1      -3.118   4.369  26.047  0.00  0.00    -0.270 OA
ATOM      6  N   UNL     1       0.547   1.755  24.087  0.00  0.00    -0.287 N 
ATOM      7  N   UNL     1      -1.957   3.032  24.522  0.00  0.00    -0.294 N 
ATOM     12  C   UNL     1       0.494   3.013  24.847  0.00  0.00    +0.179 C 
ATOM     13  C   UNL     1      -0.747   3.852  24.543  0.00  0.00    +0.140 C 
ATOM     14  C   UNL     1      -0.710   0.991  23.988  0.00  0.00    +0.127 C 
ATOM     15  C   UNL     1       1.791   1.282  23.653  0.00  0.00    +0.219 C 
ATOM     18  C   UNL     1      -1.885   1.884  23.615  0.00  0.00    +0.127 C 
ATOM     24  C   UNL     1      -3.064   3.403  25.286  0.00  0.00    +0.247 C 
ENDROOT
BRANCH  24  28
ATOM      1  F   UNL     1      -5.247  -0.806  24.276  0.00  0.00    -0.205 F 
ATOM     28  C   UNL     1      -4.273   2.575  25.201  0.00  0.00    +0.040 A 
ATOM     29  C   UNL     1      -4.184   1.252  24.770  0.00  0.00    +0.051 A 
ATOM     30  C   UNL     1      -5.511   3.112  25.551  0.00  0.00    +0.013 A 
ATOM     31  C   UNL     1      -5.332   0.464  24.689  0.00  0.00    +0.124 A 
ATOM     32  C   UNL     1      -6.661   2.324  25.471  0.00  0.00    +0.004 A 
ATOM     33  C   UNL     1      -6.571   1.001  25.039  0.00  0.00    +0.038 A 
ENDBRANCH  24  28
BRANCH  15  11
ATOM      8  N   UNL     1       4.565  -0.879  22.398  0.00  0.00    -0.316 NA
ATOM     11  C   UNL     1       1.815  -0.094  23.050  0.00  0.00    +0.078 C 
ATOM     16  C   UNL     1       2.366  -0.055  21.623  0.00  0.00    +0.028 C 
ATOM     17  C   UNL     1       2.625  -1.056  23.922  0.00  0.00    +0.028 C 
ATOM     19  C   UNL     1       3.883   0.132  21.591  0.00  0.00    +0.081 C 
ATOM     20  C   UNL     1       4.131  -0.827  23.794  0.00  0.00    +0.081 C 
ATOM     34  H   UNL     1       5.572  -0.725  22.352  0.00  0.00    +0.122 HD
ENDBRANCH  15  11
BRANCH  12  21
ATOM      3  O   UNL     1      -0.074   1.687  26.752  0.00  0.00    -0.274 OA
ATOM      9  N   UNL     1       1.388   3.479  27.022  0.00  0.00    -0.302 N 
ATOM     21  C   UNL     1       0.563   2.634  26.299  0.00  0.00    +0.236 C 
ATOM     35  H   UNL     1       1.927   4.187  26.531  0.00  0.00    +0.150 HD
BRANCH   9  22
ATOM      5  O   UNL     1       3.759   2.415  27.866  0.00  0.00    -0.274 OA
ATOM     10  N   UNL     1       2.807   1.683  29.809  0.00  0.00    -0.314 N 
ATOM     22  C   UNL     1       1.606   3.344  28.438  0.00  0.00    +0.159 C 
ATOM     23  C   UNL     1       0.335   2.890  29.142  0.00  0.00    +0.033 C 
ATOM     25  C   UNL     1       0.641   2.588  30.601  0.00  0.00    +0.021 C 
ATOM     26  C   UNL     1       2.803   2.421  28.643  0.00  0.00    +0.233 C 
ATOM     27  C   UNL     1       1.661   1.468  30.672  0.00  0.00    +0.104 C 
ATOM     36  H   UNL     1       3.626   1.108  29.984  0.00  0.00    +0.149 HD
ENDBRANCH   9  22
ENDBRANCH  12  21
TORSDOF 4
ENDMDL
MODEL 4
REMARK VINA RESULT:       9.3      3.083      5.375
REMARK  Name = 9423851
REMARK  4 active torsions:
REMARK  status: ('A' for Active; 'I' for Inactive)
REMARK    1  A    between atoms: N_9  and  C_22
REMARK    2  A    between atoms: C_11  and  C_15
REMARK    3  A    between atoms: C_12  and  C_21
REMARK    4  A    between atoms: C_24  and  C_28
REMARK                            x       y       z     vdW  Elec       q    Type
REMARK                         _______ _______ _______ _____ _____    ______ ____
ROOT
ATOM      2  O   UNL     1      -4.321   0.417  25.213  0.00  0.00    -0.275 OA
ATOM      4  O   UNL     1       1.982  -2.240  24.979  0.00  0.00    -0.270 OA
ATOM      6  N   UNL     1      -2.113   0.420  24.476  0.00  0.00    -0.287 N 
ATOM      7  N   UNL     1       0.286  -1.011  23.944  0.00  0.00    -0.294 N 
ATOM     12  C   UNL     1      -1.749  -0.729  25.319  0.00  0.00    +0.179 C 
ATOM     13  C   UNL     1      -0.801  -1.709  24.628  0.00  0.00    +0.140 C 
ATOM     14  C   UNL     1      -1.022   1.048  23.710  0.00  0.00    +0.127 C 
ATOM     15  C   UNL     1      -3.408   0.944  24.573  0.00  0.00    +0.219 C 
ATOM     18  C   UNL     1      -0.164   0.011  22.997  0.00  0.00    +0.127 C 
ATOM     24  C   UNL     1       1.610  -1.380  24.182  0.00  0.00    +0.247 C 
ENDROOT
BRANCH  24  28
ATOM      1  F   UNL     1       6.262  -0.146  23.599  0.00  0.00    -0.205 F 
ATOM     28  C   UNL     1       2.667  -0.683  23.439  0.00  0.00    +0.040 A 
ATOM     29  C   UNL     1       3.989  -0.747  23.881  0.00  0.00    +0.051 A 
ATOM     30  C   UNL     1       2.350   0.044  22.292  0.00  0.00    +0.013 A 
ATOM     31  C   UNL     1       4.994  -0.085  23.176  0.00  0.00    +0.124 A 
ATOM     32  C   UNL     1       3.355   0.707  21.587  0.00  0.00    +0.004 A 
ATOM     33  C   UNL     1       4.676   0.643  22.029  0.00  0.00    +0.038 A 
ENDBRANCH  24  28
BRANCH  15  11
ATOM      8  N   UNL     1      -4.343   4.370  25.726  0.00  0.00    -0.316 NA
ATOM     11  C   UNL     1      -3.672   2.228  23.839  0.00  0.00    +0.078 C 
ATOM     16  C   UNL     1      -5.109   2.702  24.069  0.00  0.00    +0.028 C 
ATOM     17  C   UNL     1      -2.668   3.306  24.248  0.00  0.00    +0.028 C 
ATOM     19  C   UNL     1      -5.306   3.301  25.462  0.00  0.00    +0.081 C 
ATOM     20  C   UNL     1      -2.967   3.881  25.634  0.00  0.00    +0.081 C 
ATOM     34  H   UNL     1      -4.504   4.747  26.660  0.00  0.00    +0.122 HD
ENDBRANCH  15  11
BRANCH  12  21
ATOM      3  O   UNL     1      -1.029  -0.829  27.595  0.00  0.00    -0.274 OA
ATOM      9  N   UNL     1      -0.773   1.163  26.420  0.00  0.00    -0.302 N 
ATOM     21  C   UNL     1      -1.143  -0.162  26.570  0.00  0.00    +0.236 C 
ATOM     35  H   UNL     1      -0.844   1.598  25.503  0.00  0.00    +0.150 HD
BRANCH   9  22
ATOM      5  O   UNL     1       0.593   3.433  25.748  0.00  0.00    -0.274 OA
ATOM     10  N   UNL     1       1.864   3.299  27.641  0.00  0.00    -0.314 N 
ATOM     22  C   UNL     1      -0.190   1.944  27.479  0.00  0.00    +0.159 C 
ATOM     23  C   UNL     1       0.414   1.043  28.547  0.00  0.00    +0.033 C 
ATOM     25  C   UNL     1       1.173   1.889  29.557  0.00  0.00    +0.021 C 
ATOM     26  C   UNL     1       0.796   2.924  26.852  0.00  0.00    +0.233 C 
ATOM     27  C   UNL     1       2.296   2.620  28.848  0.00  0.00    +0.104 C 
ATOM     36  H   UNL     1       2.496   3.995  27.256  0.00  0.00    +0.149 HD
ENDBRANCH   9  22
ENDBRANCH  12  21
TORSDOF 4
ENDMDL
MODEL 5
REMARK VINA RESULT:      10.3      3.449      5.961
REMARK  Name = 9423851
REMARK  4 active torsions:
REMARK  status: ('A' for Active; 'I' for Inactive)
REMARK    1  A    between atoms: N_9  and  C_22
REMARK    2  A    between atoms: C_11  and  C_15
REMARK    3  A    between atoms: C_12  and  C_21
REMARK    4  A    between atoms: C_24  and  C_28
REMARK                            x       y       z     vdW  Elec       q    Type
REMARK                         _______ _______ _______ _____ _____    ______ ____
ROOT
ATOM      2  O   UNL     1      -1.191  -3.332  23.083  0.00  0.00    -0.275 OA
ATOM      4  O   UNL     1       0.188   3.370  22.936  0.00  0.00    -0.270 OA
ATOM      6  N   UNL     1      -1.526  -1.146  23.810  0.00  0.00    -0.287 N 
ATOM      7  N   UNL     1      -1.345   1.648  23.313  0.00  0.00    -0.294 N 
ATOM     12  C   UNL     1      -0.422  -0.623  22.991  0.00  0.00    +0.179 C 
ATOM     13  C   UNL     1      -0.732   0.731  22.354  0.00  0.00    +0.140 C 
ATOM     14  C   UNL     1      -2.203  -0.184  24.698  0.00  0.00    +0.127 C 
ATOM     15  C   UNL     1      -1.757  -2.527  23.827  0.00  0.00    +0.219 C 
ATOM     18  C   UNL     1      -2.539   1.112  23.972  0.00  0.00    +0.127 C 
ATOM     24  C   UNL     1      -0.816   2.926  23.492  0.00  0.00    +0.247 C 
ENDROOT
BRANCH  24  28
ATOM      1  F   UNL     1      -4.116   3.738  26.950  0.00  0.00    -0.205 F 
ATOM     28  C   UNL     1      -1.490   3.829  24.433  0.00  0.00    +0.040 A 
ATOM     29  C   UNL     1      -2.503   3.345  25.261  0.00  0.00    +0.051 A 
ATOM     30  C   UNL     1      -1.117   5.171  24.499  0.00  0.00    +0.013 A 
ATOM     31  C   UNL     1      -3.144   4.202  26.155  0.00  0.00    +0.124 A 
ATOM     32  C   UNL     1      -1.758   6.029  25.394  0.00  0.00    +0.004 A 
ATOM     33  C   UNL     1      -2.771   5.545  26.221  0.00  0.00    +0.038 A 
ENDBRANCH  24  28
BRANCH  15  11
ATOM      8  N   UNL     1      -5.319  -1.625  24.489  0.00  0.00    -0.316 NA
ATOM     11  C   UNL     1      -2.766  -3.030  24.821  0.00  0.00    +0.078 C 
ATOM     16  C   UNL     1      -3.215  -1.906  25.758  0.00  0.00    +0.028 C 
ATOM     17  C   UNL     1      -3.964  -3.660  24.109  0.00  0.00    +0.028 C 
ATOM     19  C   UNL     1      -4.174  -0.930  25.075  0.00  0.00    +0.081 C 
ATOM     20  C   UNL     1      -4.892  -2.610  23.495  0.00  0.00    +0.081 C 
ATOM     34  H   UNL     1      -5.937  -0.945  24.046  0.00  0.00    +0.122 HD
ENDBRANCH  15  11
BRANCH  12  21
ATOM      3  O   UNL     1       0.672  -0.594  25.115  0.00  0.00    -0.274 OA
ATOM      9  N   UNL     1       1.957  -0.405  23.184  0.00  0.00    -0.302 N 
ATOM     21  C   UNL     1       0.777  -0.549  23.892  0.00  0.00    +0.236 C 
ATOM     35  H   UNL     1       1.936  -0.455  22.169  0.00  0.00    +0.150 HD
BRANCH   9  22
ATOM      5  O   UNL     1       3.362   1.912  22.828  0.00  0.00    -0.274 OA
ATOM     10  N   UNL     1       5.346   0.830  23.166  0.00  0.00    -0.314 N 
ATOM     22  C   UNL     1       3.246  -0.288  23.814  0.00  0.00    +0.159 C 
ATOM     23  C   UNL     1       4.011  -1.601  23.731  0.00  0.00    +0.033 C 
ATOM     25  C   UNL     1       5.428  -1.398  24.246  0.00  0.00    +0.021 C 
ATOM     26  C   UNL     1       3.968   0.901  23.191  0.00  0.00    +0.233 C 
ATOM     27  C   UNL     1       6.129  -0.373  23.375  0.00  0.00    +0.104 C 
ATOM     36  H   UNL     1       5.840   1.642  22.805  0.00  0.00    +0.149 HD
ENDBRANCH   9  22
ENDBRANCH  12  21
TORSDOF 4
ENDMDL
