MODEL 1
REMARK VINA RESULT:      -5.6      0.000      0.000
REMARK  Name = 75536800
REMARK  7 active torsions:
REMARK  status: ('A' for Active; 'I' for Inactive)
REMARK    1  A    between atoms: O_2  and  C_10
REMARK    2  A    between atoms: N_4  and  C_9
REMARK    3  A    between atoms: N_4  and  C_14
REMARK    4  A    between atoms: N_5  and  C_13
REMARK    5  A    between atoms: C_11  and  C_13
REMARK    6  A    between atoms: C_14  and  C_15
REMARK    7  A    between atoms: C_16  and  C_17
REMARK                            x       y       z     vdW  Elec       q    Type
REMARK                         _______ _______ _______ _____ _____    ______ ____
ROOT
ATOM      1  O   UNL     1      -1.667  -2.607  23.901  0.00  0.00    -0.371 OA
ATOM      9  C   UNL     1       0.016  -1.008  24.402  0.00  0.00    +0.111 C 
ATOM     10  C   UNL     1      -1.183  -0.760  25.297  0.00  0.00    +0.164 C 
ATOM     11  C   UNL     1      -1.881  -2.111  25.233  0.00  0.00    +0.165 C 
ATOM     12  C   UNL     1      -0.600  -1.853  23.299  0.00  0.00    +0.181 C 
ENDROOT
BRANCH  10   2
ATOM      2  O   UNL     1      -0.817  -0.417  26.619  0.00  0.00    -0.388 OA
ATOM     25  H   UNL     1      -1.600  -0.508  27.187  0.00  0.00    +0.210 HD
ENDBRANCH  10   2
BRANCH   9   4
ATOM      4  N   UNL     1       0.635   0.210  23.903  0.00  0.00    -0.302 NA
ATOM     24  H   UNL     1       1.229   0.605  24.632  0.00  0.00    +0.123 HD
BRANCH   4  14
ATOM     14  C   UNL     1       1.449  -0.059  22.724  0.00  0.00    +0.156 C 
BRANCH  14  15
ATOM      6  N   UNL     1       3.605  -1.070  23.504  0.00  0.00    -0.347 N 
ATOM      7  N   UNL     1       3.703   1.063  22.895  0.00  0.00    -0.240 NA
ATOM     15  C   UNL     1       2.921   0.015  23.030  0.00  0.00    +0.121 A 
ATOM     18  C   UNL     1       4.906  -0.690  23.681  0.00  0.00    +0.104 A 
ATOM     19  C   UNL     1       4.941   0.631  23.299  0.00  0.00    +0.130 A 
ATOM     27  H   UNL     1       3.221  -1.987  23.688  0.00  0.00    +0.167 HD
ENDBRANCH  14  15
ENDBRANCH   4  14
ENDBRANCH   9   4
BRANCH  11  13
ATOM     13  C   UNL     1      -3.371  -2.033  25.518  0.00  0.00    +0.138 C 
BRANCH  13   5
ATOM      3  O   UNL     1      -3.976  -0.213  23.382  0.00  0.00    -0.270 OA
ATOM      5  N   UNL     1      -3.807  -0.673  25.650  0.00  0.00    -0.309 N 
ATOM     16  C   UNL     1      -4.078   0.140  24.554  0.00  0.00    +0.244 C 
ATOM     26  H   UNL     1      -3.847  -0.298  26.591  0.00  0.00    +0.149 HD
BRANCH  16  17
ATOM      8  N   UNL     1      -5.277   4.155  25.437  0.00  0.00    -0.263 NA
ATOM     17  C   UNL     1      -4.495   1.534  24.859  0.00  0.00    +0.040 A 
ATOM     20  C   UNL     1      -3.660   2.598  24.536  0.00  0.00    +0.033 A 
ATOM     21  C   UNL     1      -5.720   1.778  25.470  0.00  0.00    +0.033 A 
ATOM     22  C   UNL     1      -4.095   3.878  24.844  0.00  0.00    +0.111 A 
ATOM     23  C   UNL     1      -6.061   3.094  25.736  0.00  0.00    +0.111 A 
ENDBRANCH  16  17
ENDBRANCH  13   5
ENDBRANCH  11  13
TORSDOF 7
ENDMDL
MODEL 2
REMARK VINA RESULT:      -5.4      2.055      3.027
REMARK  Name = 75536800
REMARK  7 active torsions:
REMARK  status: ('A' for Active; 'I' for Inactive)
REMARK    1  A    between atoms: O_2  and  C_10
REMARK    2  A    between atoms: N_4  and  C_9
REMARK    3  A    between atoms: N_4  and  C_14
REMARK    4  A    between atoms: N_5  and  C_13
REMARK    5  A    between atoms: C_11  and  C_13
REMARK    6  A    between atoms: C_14  and  C_15
REMARK    7  A    between atoms: C_16  and  C_17
REMARK                            x       y       z     vdW  Elec       q    Type
REMARK                         _______ _______ _______ _____ _____    ______ ____
ROOT
ATOM      1  O   UNL     1      -1.755  -2.632  23.835  0.00  0.00    -0.371 OA
ATOM      9  C   UNL     1      -0.071  -1.095  24.500  0.00  0.00    +0.111 C 
ATOM     10  C   UNL     1      -1.281  -0.923  25.399  0.00  0.00    +0.164 C 
ATOM     11  C   UNL     1      -1.984  -2.259  25.203  0.00  0.00    +0.165 C 
ATOM     12  C   UNL     1      -0.677  -1.832  23.317  0.00  0.00    +0.181 C 
ENDROOT
BRANCH  10   2
ATOM      2  O   UNL     1      -0.930  -0.704  26.752  0.00  0.00    -0.388 OA
ATOM     25  H   UNL     1      -0.283   0.020  26.786  0.00  0.00    +0.210 HD
ENDBRANCH  10   2
BRANCH   9   4
ATOM      4  N   UNL     1       0.559   0.160  24.122  0.00  0.00    -0.302 NA
ATOM     24  H   UNL     1       1.287  -0.027  23.432  0.00  0.00    +0.123 HD
BRANCH   4  14
ATOM     14  C   UNL     1      -0.411   1.084  23.548  0.00  0.00    +0.156 C 
BRANCH  14  15
ATOM      6  N   UNL     1      -0.583   3.546  23.982  0.00  0.00    -0.347 N 
ATOM      7  N   UNL     1      -0.976   2.227  25.725  0.00  0.00    -0.240 NA
ATOM     15  C   UNL     1      -0.663   2.264  24.448  0.00  0.00    +0.121 A 
ATOM     18  C   UNL     1      -0.862   4.381  25.027  0.00  0.00    +0.104 A 
ATOM     19  C   UNL     1      -1.100   3.544  26.092  0.00  0.00    +0.130 A 
ATOM     27  H   UNL     1      -0.359   3.827  23.036  0.00  0.00    +0.167 HD
ENDBRANCH  14  15
ENDBRANCH   4  14
ENDBRANCH   9   4
BRANCH  11  13
ATOM     13  C   UNL     1      -3.477  -2.199  25.476  0.00  0.00    +0.138 C 
BRANCH  13   5
ATOM      3  O   UNL     1      -4.002  -0.372  23.325  0.00  0.00    -0.270 OA
ATOM      5  N   UNL     1      -3.932  -0.844  25.595  0.00  0.00    -0.309 N 
ATOM     16  C   UNL     1      -4.161  -0.027  24.493  0.00  0.00    +0.244 C 
ATOM     26  H   UNL     1      -4.019  -0.474  26.535  0.00  0.00    +0.149 HD
BRANCH  16  17
ATOM      8  N   UNL     1      -5.438   3.971  25.340  0.00  0.00    -0.263 NA
ATOM     17  C   UNL     1      -4.606   1.361  24.786  0.00  0.00    +0.040 A 
ATOM     20  C   UNL     1      -4.032   2.434  24.112  0.00  0.00    +0.033 A 
ATOM     21  C   UNL     1      -5.594   1.591  25.736  0.00  0.00    +0.033 A 
ATOM     22  C   UNL     1      -4.480   3.708  24.423  0.00  0.00    +0.111 A 
ATOM     23  C   UNL     1      -5.971   2.903  25.974  0.00  0.00    +0.111 A 
ENDBRANCH  16  17
ENDBRANCH  13   5
ENDBRANCH  11  13
TORSDOF 7
ENDMDL
MODEL 3
REMARK VINA RESULT:      -5.4      2.714      5.045
REMARK  Name = 75536800
REMARK  7 active torsions:
REMARK  status: ('A' for Active; 'I' for Inactive)
REMARK    1  A    between atoms: O_2  and  C_10
REMARK    2  A    between atoms: N_4  and  C_9
REMARK    3  A    between atoms: N_4  and  C_14
REMARK    4  A    between atoms: N_5  and  C_13
REMARK    5  A    between atoms: C_11  and  C_13
REMARK    6  A    between atoms: C_14  and  C_15
REMARK    7  A    between atoms: C_16  and  C_17
REMARK                            x       y       z     vdW  Elec       q    Type
REMARK                         _______ _______ _______ _____ _____    ______ ____
ROOT
ATOM      1  O   UNL     1      -3.513   4.530  25.594  0.00  0.00    -0.371 OA
ATOM      9  C   UNL     1      -1.266   4.074  24.975  0.00  0.00    +0.111 C 
ATOM     10  C   UNL     1      -2.186   3.130  24.225  0.00  0.00    +0.164 C 
ATOM     11  C   UNL     1      -3.509   3.879  24.313  0.00  0.00    +0.165 C 
ATOM     12  C   UNL     1      -2.168   4.541  26.105  0.00  0.00    +0.181 C 
ENDROOT
BRANCH  10   2
ATOM      2  O   UNL     1      -1.784   2.924  22.885  0.00  0.00    -0.388 OA
ATOM     25  H   UNL     1      -2.580   2.891  22.329  0.00  0.00    +0.210 HD
ENDBRANCH  10   2
BRANCH   9   4
ATOM      4  N   UNL     1      -0.044   3.444  25.450  0.00  0.00    -0.302 NA
ATOM     24  H   UNL     1       0.391   4.046  26.150  0.00  0.00    +0.123 HD
BRANCH   4  14
ATOM     14  C   UNL     1      -0.321   2.145  26.051  0.00  0.00    +0.156 C 
BRANCH  14  15
ATOM      6  N   UNL     1       0.683   1.150  23.981  0.00  0.00    -0.347 N 
ATOM      7  N   UNL     1      -0.717  -0.160  25.102  0.00  0.00    -0.240 NA
ATOM     15  C   UNL     1      -0.142   1.022  25.063  0.00  0.00    +0.121 A 
ATOM     18  C   UNL     1       0.631  -0.025  23.285  0.00  0.00    +0.104 A 
ATOM     19  C   UNL     1      -0.240  -0.817  23.996  0.00  0.00    +0.130 A 
ATOM     27  H   UNL     1       1.232   1.964  23.739  0.00  0.00    +0.167 HD
ENDBRANCH  14  15
ENDBRANCH   4  14
ENDBRANCH   9   4
BRANCH  11  13
ATOM     13  C   UNL     1      -4.722   2.973  24.194  0.00  0.00    +0.138 C 
BRANCH  13   5
ATOM      3  O   UNL     1      -5.459   0.947  26.089  0.00  0.00    -0.270 OA
ATOM      5  N   UNL     1      -4.340   1.591  24.161  0.00  0.00    -0.309 N 
ATOM     16  C   UNL     1      -4.746   0.675  25.127  0.00  0.00    +0.244 C 
ATOM     26  H   UNL     1      -3.697   1.314  23.428  0.00  0.00    +0.149 HD
BRANCH  16  17
ATOM      8  N   UNL     1      -3.303  -3.329  24.661  0.00  0.00    -0.263 NA
ATOM     17  C   UNL     1      -4.244  -0.715  24.965  0.00  0.00    +0.040 A 
ATOM     20  C   UNL     1      -4.456  -1.398  23.772  0.00  0.00    +0.033 A 
ATOM     21  C   UNL     1      -3.562  -1.336  26.004  0.00  0.00    +0.033 A 
ATOM     22  C   UNL     1      -3.970  -2.692  23.672  0.00  0.00    +0.111 A 
ATOM     23  C   UNL     1      -3.117  -2.633  25.804  0.00  0.00    +0.111 A 
ENDBRANCH  16  17
ENDBRANCH  13   5
ENDBRANCH  11  13
TORSDOF 7
ENDMDL
MODEL 4
REMARK VINA RESULT:      -3.9      2.574      6.642
REMARK  Name = 75536800
REMARK  7 active torsions:
REMARK  status: ('A' for Active; 'I' for Inactive)
REMARK    1  A    between atoms: O_2  and  C_10
REMARK    2  A    between atoms: N_4  and  C_9
REMARK    3  A    between atoms: N_4  and  C_14
REMARK    4  A    between atoms: N_5  and  C_13
REMARK    5  A    between atoms: C_11  and  C_13
REMARK    6  A    between atoms: C_14  and  C_15
REMARK    7  A    between atoms: C_16  and  C_17
REMARK                            x       y       z     vdW  Elec       q    Type
REMARK                         _______ _______ _______ _____ _____    ______ ____
ROOT
ATOM      1  O   UNL     1       0.511   3.601  23.602  0.00  0.00    -0.371 OA
ATOM      9  C   UNL     1      -1.137   4.258  25.180  0.00  0.00    +0.111 C 
ATOM     10  C   UNL     1      -0.976   2.750  25.232  0.00  0.00    +0.164 C 
ATOM     11  C   UNL     1       0.402   2.581  24.608  0.00  0.00    +0.165 C 
ATOM     12  C   UNL     1      -0.516   4.581  23.832  0.00  0.00    +0.181 C 
ENDROOT
BRANCH  10   2
ATOM      2  O   UNL     1      -1.025   2.240  26.550  0.00  0.00    -0.388 OA
ATOM     25  H   UNL     1      -1.601   2.817  27.080  0.00  0.00    +0.210 HD
ENDBRANCH  10   2
BRANCH   9   4
ATOM      4  N   UNL     1      -2.517   4.702  25.289  0.00  0.00    -0.302 NA
ATOM     24  H   UNL     1      -2.988   4.550  24.397  0.00  0.00    +0.123 HD
BRANCH   4  14
ATOM     14  C   UNL     1      -3.226   3.967  26.329  0.00  0.00    +0.156 C 
BRANCH  14  15
ATOM      6  N   UNL     1      -5.548   3.037  26.480  0.00  0.00    -0.347 N 
ATOM      7  N   UNL     1      -4.447   2.587  24.605  0.00  0.00    -0.240 NA
ATOM     15  C   UNL     1      -4.389   3.189  25.773  0.00  0.00    +0.121 A 
ATOM     18  C   UNL     1      -6.401   2.291  25.716  0.00  0.00    +0.104 A 
ATOM     19  C   UNL     1      -5.699   2.024  24.564  0.00  0.00    +0.130 A 
ATOM     27  H   UNL     1      -5.742   3.410  27.401  0.00  0.00    +0.167 HD
ENDBRANCH  14  15
ENDBRANCH   4  14
ENDBRANCH   9   4
BRANCH  11  13
ATOM     13  C   UNL     1       0.614   1.215  23.980  0.00  0.00    +0.138 C 
BRANCH  13   5
ATOM      3  O   UNL     1       0.030  -1.256  25.318  0.00  0.00    -0.270 OA
ATOM      5  N   UNL     1      -0.612   0.474  23.913  0.00  0.00    -0.309 N 
ATOM     16  C   UNL     1      -0.809  -0.721  24.598  0.00  0.00    +0.244 C 
ATOM     26  H   UNL     1      -1.323   0.828  23.283  0.00  0.00    +0.149 HD
BRANCH  16  17
ATOM      8  N   UNL     1      -4.607  -2.617  24.043  0.00  0.00    -0.263 NA
ATOM     17  C   UNL     1      -2.127  -1.379  24.404  0.00  0.00    +0.040 A 
ATOM     20  C   UNL     1      -3.260  -0.612  24.160  0.00  0.00    +0.033 A 
ATOM     21  C   UNL     1      -2.231  -2.764  24.467  0.00  0.00    +0.033 A 
ATOM     22  C   UNL     1      -4.466  -1.274  23.988  0.00  0.00    +0.111 A 
ATOM     23  C   UNL     1      -3.483  -3.328  24.282  0.00  0.00    +0.111 A 
ENDBRANCH  16  17
ENDBRANCH  13   5
ENDBRANCH  11  13
TORSDOF 7
ENDMDL
MODEL 5
REMARK VINA RESULT:      -3.8      2.915      5.685
REMARK  Name = 75536800
REMARK  7 active torsions:
REMARK  status: ('A' for Active; 'I' for Inactive)
REMARK    1  A    between atoms: O_2  and  C_10
REMARK    2  A    between atoms: N_4  and  C_9
REMARK    3  A    between atoms: N_4  and  C_14
REMARK    4  A    between atoms: N_5  and  C_13
REMARK    5  A    between atoms: C_11  and  C_13
REMARK    6  A    between atoms: C_14  and  C_15
REMARK    7  A    between atoms: C_16  and  C_17
REMARK                            x       y       z     vdW  Elec       q    Type
REMARK                         _______ _______ _______ _____ _____    ______ ____
ROOT
ATOM      1  O   UNL     1      -6.041   3.276  25.755  0.00  0.00    -0.371 OA
ATOM      9  C   UNL     1      -4.270   4.245  24.504  0.00  0.00    +0.111 C 
ATOM     10  C   UNL     1      -4.195   2.735  24.378  0.00  0.00    +0.164 C 
ATOM     11  C   UNL     1      -5.618   2.340  24.751  0.00  0.00    +0.165 C 
ATOM     12  C   UNL     1      -5.146   4.403  25.735  0.00  0.00    +0.181 C 
ENDROOT
BRANCH  10   2
ATOM      2  O   UNL     1      -3.854   2.311  23.072  0.00  0.00    -0.388 OA
ATOM     25  H   UNL     1      -4.420   1.556  22.839  0.00  0.00    +0.210 HD
ENDBRANCH  10   2
BRANCH   9   4
ATOM      4  N   UNL     1      -2.971   4.884  24.647  0.00  0.00    -0.302 NA
ATOM     24  H   UNL     1      -3.104   5.891  24.744  0.00  0.00    +0.123 HD
BRANCH   4  14
ATOM     14  C   UNL     1      -2.266   4.385  25.821  0.00  0.00    +0.156 C 
BRANCH  14  15
ATOM      6  N   UNL     1      -0.891   3.131  24.143  0.00  0.00    -0.347 N 
ATOM      7  N   UNL     1      -0.364   2.790  26.273  0.00  0.00    -0.240 NA
ATOM     15  C   UNL     1      -1.164   3.429  25.448  0.00  0.00    +0.121 A 
ATOM     18  C   UNL     1       0.150   2.245  24.133  0.00  0.00    +0.104 A 
ATOM     19  C   UNL     1       0.458   2.050  25.459  0.00  0.00    +0.130 A 
ATOM     27  H   UNL     1      -1.370   3.498  23.331  0.00  0.00    +0.167 HD
ENDBRANCH  14  15
ENDBRANCH   4  14
ENDBRANCH   9   4
BRANCH  11  13
ATOM     13  C   UNL     1      -5.726   0.925  25.290  0.00  0.00    +0.138 C 
BRANCH  13   5
ATOM      3  O   UNL     1      -4.783  -1.355  23.824  0.00  0.00    -0.270 OA
ATOM      5  N   UNL     1      -4.436   0.308  25.403  0.00  0.00    -0.309 N 
ATOM     16  C   UNL     1      -4.063  -0.800  24.649  0.00  0.00    +0.244 C 
ATOM     26  H   UNL     1      -3.816   0.677  26.116  0.00  0.00    +0.149 HD
BRANCH  16  17
ATOM      8  N   UNL     1      -0.137  -2.345  25.376  0.00  0.00    -0.263 NA
ATOM     17  C   UNL     1      -2.700  -1.337  24.902  0.00  0.00    +0.040 A 
ATOM     20  C   UNL     1      -1.824  -0.651  25.736  0.00  0.00    +0.033 A 
ATOM     21  C   UNL     1      -2.297  -2.526  24.306  0.00  0.00    +0.033 A 
ATOM     22  C   UNL     1      -0.565  -1.192  25.938  0.00  0.00    +0.111 A 
ATOM     23  C   UNL     1      -1.016  -2.983  24.572  0.00  0.00    +0.111 A 
ENDBRANCH  16  17
ENDBRANCH  13   5
ENDBRANCH  11  13
TORSDOF 7
ENDMDL
MODEL 6
REMARK VINA RESULT:      -3.7     14.636     17.000
REMARK  Name = 75536800
REMARK  7 active torsions:
REMARK  status: ('A' for Active; 'I' for Inactive)
REMARK    1  A    between atoms: O_2  and  C_10
REMARK    2  A    between atoms: N_4  and  C_9
REMARK    3  A    between atoms: N_4  and  C_14
REMARK    4  A    between atoms: N_5  and  C_13
REMARK    5  A    between atoms: C_11  and  C_13
REMARK    6  A    between atoms: C_14  and  C_15
REMARK    7  A    between atoms: C_16  and  C_17
REMARK                            x       y       z     vdW  Elec       q    Type
REMARK                         _______ _______ _______ _____ _____    ______ ____
ROOT
ATOM      1  O   UNL     1      -3.296 -10.702  15.036  0.00  0.00    -0.371 OA
ATOM      9  C   UNL     1      -5.292 -10.772  16.320  0.00  0.00    +0.111 C 
ATOM     10  C   UNL     1      -5.617 -10.264  14.928  0.00  0.00    +0.164 C 
ATOM     11  C   UNL     1      -4.418 -10.776  14.142  0.00  0.00    +0.165 C 
ATOM     12  C   UNL     1      -3.790 -10.551  16.379  0.00  0.00    +0.181 C 
ENDROOT
BRANCH  10   2
ATOM      2  O   UNL     1      -6.836 -10.781  14.428  0.00  0.00    -0.388 OA
ATOM     25  H   UNL     1      -7.434 -10.036  14.252  0.00  0.00    +0.210 HD
ENDBRANCH  10   2
BRANCH   9   4
ATOM      4  N   UNL     1      -6.009 -10.077  17.378  0.00  0.00    -0.302 NA
ATOM     24  H   UNL     1      -5.356  -9.478  17.884  0.00  0.00    +0.123 HD
BRANCH   4  14
ATOM     14  C   UNL     1      -7.081  -9.254  16.833  0.00  0.00    +0.156 C 
BRANCH  14  15
ATOM      6  N   UNL     1      -8.839  -9.871  18.509  0.00  0.00    -0.347 N 
ATOM      7  N   UNL     1      -9.371 -10.213  16.380  0.00  0.00    -0.240 NA
ATOM     15  C   UNL     1      -8.440  -9.786  17.205  0.00  0.00    +0.121 A 
ATOM     18  C   UNL     1     -10.105 -10.386  18.519  0.00  0.00    +0.104 A 
ATOM     19  C   UNL     1     -10.411 -10.590  17.193  0.00  0.00    +0.130 A 
ATOM     27  H   UNL     1      -8.298  -9.602  19.320  0.00  0.00    +0.167 HD
ENDBRANCH  14  15
ENDBRANCH   4  14
ENDBRANCH   9   4
BRANCH  11  13
ATOM     13  C   UNL     1      -4.131  -9.967  12.890  0.00  0.00    +0.138 C 
BRANCH  13   5
ATOM      3  O   UNL     1      -4.358  -8.512  10.425  0.00  0.00    -0.270 OA
ATOM      5  N   UNL     1      -5.267  -9.937  12.015  0.00  0.00    -0.309 N 
ATOM     16  C   UNL     1      -5.289  -9.200  10.835  0.00  0.00    +0.244 C 
ATOM     26  H   UNL     1      -6.096 -10.430  12.328  0.00  0.00    +0.149 HD
BRANCH  16  17
ATOM      8  N   UNL     1      -8.926  -9.354   8.580  0.00  0.00    -0.263 NA
ATOM     17  C   UNL     1      -6.552  -9.252  10.053  0.00  0.00    +0.040 A 
ATOM     20  C   UNL     1      -7.579 -10.104  10.443  0.00  0.00    +0.033 A 
ATOM     21  C   UNL     1      -6.710  -8.451   8.928  0.00  0.00    +0.033 A 
ATOM     22  C   UNL     1      -8.736 -10.117   9.679  0.00  0.00    +0.111 A 
ATOM     23  C   UNL     1      -7.905  -8.538   8.232  0.00  0.00    +0.111 A 
ENDBRANCH  16  17
ENDBRANCH  13   5
ENDBRANCH  11  13
TORSDOF 7
ENDMDL
MODEL 7
REMARK VINA RESULT:      -3.5      2.553      4.842
REMARK  Name = 75536800
REMARK  7 active torsions:
REMARK  status: ('A' for Active; 'I' for Inactive)
REMARK    1  A    between atoms: O_2  and  C_10
REMARK    2  A    between atoms: N_4  and  C_9
REMARK    3  A    between atoms: N_4  and  C_14
REMARK    4  A    between atoms: N_5  and  C_13
REMARK    5  A    between atoms: C_11  and  C_13
REMARK    6  A    between atoms: C_14  and  C_15
REMARK    7  A    between atoms: C_16  and  C_17
REMARK                            x       y       z     vdW  Elec       q    Type
REMARK                         _______ _______ _______ _____ _____    ______ ____
ROOT
ATOM      1  O   UNL     1      -0.256   1.450  25.685  0.00  0.00    -0.371 OA
ATOM      9  C   UNL     1       0.265  -0.555  24.524  0.00  0.00    +0.111 C 
ATOM     10  C   UNL     1       0.101   0.569  23.519  0.00  0.00    +0.164 C 
ATOM     11  C   UNL     1       0.307   1.788  24.407  0.00  0.00    +0.165 C 
ATOM     12  C   UNL     1      -0.436   0.024  25.742  0.00  0.00    +0.181 C 
ENDROOT
BRANCH  10   2
ATOM      2  O   UNL     1       1.051   0.510  22.473  0.00  0.00    -0.388 OA
ATOM     25  H   UNL     1       1.485   1.377  22.406  0.00  0.00    +0.210 HD
ENDBRANCH  10   2
BRANCH   9   4
ATOM      4  N   UNL     1      -0.309  -1.818  24.088  0.00  0.00    -0.302 NA
ATOM     24  H   UNL     1       0.438  -2.506  23.985  0.00  0.00    +0.123 HD
BRANCH   4  14
ATOM     14  C   UNL     1      -1.280  -2.316  25.053  0.00  0.00    +0.156 C 
BRANCH  14  15
ATOM      6  N   UNL     1      -3.303  -1.008  24.364  0.00  0.00    -0.347 N 
ATOM      7  N   UNL     1      -3.474  -3.215  24.189  0.00  0.00    -0.240 NA
ATOM     15  C   UNL     1      -2.690  -2.217  24.532  0.00  0.00    +0.121 A 
ATOM     18  C   UNL     1      -4.560  -1.248  23.883  0.00  0.00    +0.104 A 
ATOM     19  C   UNL     1      -4.642  -2.618  23.784  0.00  0.00    +0.130 A 
ATOM     27  H   UNL     1      -2.903  -0.099  24.559  0.00  0.00    +0.167 HD
ENDBRANCH  14  15
ENDBRANCH   4  14
ENDBRANCH   9   4
BRANCH  11  13
ATOM     13  C   UNL     1      -0.357   3.043  23.869  0.00  0.00    +0.138 C 
BRANCH  13   5
ATOM      3  O   UNL     1      -2.780   1.797  22.964  0.00  0.00    -0.270 OA
ATOM      5  N   UNL     1      -1.669   3.218  24.423  0.00  0.00    -0.309 N 
ATOM     16  C   UNL     1      -2.792   2.571  23.917  0.00  0.00    +0.244 C 
ATOM     26  H   UNL     1      -1.760   3.896  25.171  0.00  0.00    +0.149 HD
BRANCH  16  17
ATOM      8  N   UNL     1      -6.509   3.458  25.849  0.00  0.00    -0.263 NA
ATOM     17  C   UNL     1      -4.083   2.879  24.587  0.00  0.00    +0.040 A 
ATOM     20  C   UNL     1      -4.351   4.172  25.023  0.00  0.00    +0.033 A 
ATOM     21  C   UNL     1      -5.026   1.876  24.780  0.00  0.00    +0.033 A 
ATOM     22  C   UNL     1      -5.568   4.407  25.643  0.00  0.00    +0.111 A 
ATOM     23  C   UNL     1      -6.212   2.214  25.412  0.00  0.00    +0.111 A 
ENDBRANCH  16  17
ENDBRANCH  13   5
ENDBRANCH  11  13
TORSDOF 7
ENDMDL
MODEL 8
REMARK VINA RESULT:      -3.3      3.813      5.459
REMARK  Name = 75536800
REMARK  7 active torsions:
REMARK  status: ('A' for Active; 'I' for Inactive)
REMARK    1  A    between atoms: O_2  and  C_10
REMARK    2  A    between atoms: N_4  and  C_9
REMARK    3  A    between atoms: N_4  and  C_14
REMARK    4  A    between atoms: N_5  and  C_13
REMARK    5  A    between atoms: C_11  and  C_13
REMARK    6  A    between atoms: C_14  and  C_15
REMARK    7  A    between atoms: C_16  and  C_17
REMARK                            x       y       z     vdW  Elec       q    Type
REMARK                         _______ _______ _______ _____ _____    ______ ____
ROOT
ATOM      1  O   UNL     1      -3.134   4.084  25.548  0.00  0.00    -0.371 OA
ATOM      9  C   UNL     1      -0.816   3.661  25.249  0.00  0.00    +0.111 C 
ATOM     10  C   UNL     1      -1.594   2.949  24.158  0.00  0.00    +0.164 C 
ATOM     11  C   UNL     1      -2.902   3.727  24.176  0.00  0.00    +0.165 C 
ATOM     12  C   UNL     1      -1.906   3.916  26.278  0.00  0.00    +0.181 C 
ENDROOT
BRANCH  10   2
ATOM      2  O   UNL     1      -0.955   3.020  22.898  0.00  0.00    -0.388 OA
ATOM     25  H   UNL     1      -0.346   3.777  22.905  0.00  0.00    +0.210 HD
ENDBRANCH  10   2
BRANCH   9   4
ATOM      4  N   UNL     1       0.292   2.883  25.779  0.00  0.00    -0.302 NA
ATOM     24  H   UNL     1       1.088   3.501  25.936  0.00  0.00    +0.123 HD
BRANCH   4  14
ATOM     14  C   UNL     1      -0.068   2.247  27.041  0.00  0.00    +0.156 C 
BRANCH  14  15
ATOM      6  N   UNL     1       0.796   2.048  29.385  0.00  0.00    -0.347 N 
ATOM      7  N   UNL     1       2.168   3.011  27.928  0.00  0.00    -0.240 NA
ATOM     15  C   UNL     1       0.989   2.452  28.093  0.00  0.00    +0.121 A 
ATOM     18  C   UNL     1       1.922   2.370  30.089  0.00  0.00    +0.104 A 
ATOM     19  C   UNL     1       2.754   2.964  29.168  0.00  0.00    +0.130 A 
ATOM     27  H   UNL     1      -0.029   1.594  29.753  0.00  0.00    +0.167 HD
ENDBRANCH  14  15
ENDBRANCH   4  14
ENDBRANCH   9   4
BRANCH  11  13
ATOM     13  C   UNL     1      -4.082   2.930  23.647  0.00  0.00    +0.138 C 
BRANCH  13   5
ATOM      3  O   UNL     1      -5.172   1.191  25.653  0.00  0.00    -0.270 OA
ATOM      5  N   UNL     1      -3.857   1.519  23.770  0.00  0.00    -0.309 N 
ATOM     16  C   UNL     1      -4.429   0.751  24.780  0.00  0.00    +0.244 C 
ATOM     26  H   UNL     1      -3.199   1.104  23.119  0.00  0.00    +0.149 HD
BRANCH  16  17
ATOM      8  N   UNL     1      -3.409  -3.407  24.794  0.00  0.00    -0.263 NA
ATOM     17  C   UNL     1      -4.076  -0.693  24.785  0.00  0.00    +0.040 A 
ATOM     20  C   UNL     1      -3.423  -1.247  25.881  0.00  0.00    +0.033 A 
ATOM     21  C   UNL     1      -4.396  -1.493  23.695  0.00  0.00    +0.033 A 
ATOM     22  C   UNL     1      -3.114  -2.597  25.835  0.00  0.00    +0.111 A 
ATOM     23  C   UNL     1      -4.043  -2.832  23.748  0.00  0.00    +0.111 A 
ENDBRANCH  16  17
ENDBRANCH  13   5
ENDBRANCH  11  13
TORSDOF 7
ENDMDL
MODEL 9
REMARK VINA RESULT:      -3.1     16.935     18.541
REMARK  Name = 75536800
REMARK  7 active torsions:
REMARK  status: ('A' for Active; 'I' for Inactive)
REMARK    1  A    between atoms: O_2  and  C_10
REMARK    2  A    between atoms: N_4  and  C_9
REMARK    3  A    between atoms: N_4  and  C_14
REMARK    4  A    between atoms: N_5  and  C_13
REMARK    5  A    between atoms: C_11  and  C_13
REMARK    6  A    between atoms: C_14  and  C_15
REMARK    7  A    between atoms: C_16  and  C_17
REMARK                            x       y       z     vdW  Elec       q    Type
REMARK                         _______ _______ _______ _____ _____    ______ ____
ROOT
ATOM      1  O   UNL     1      16.107  -4.189  31.181  0.00  0.00    -0.371 OA
ATOM      9  C   UNL     1      16.391  -5.463  29.197  0.00  0.00    +0.111 C 
ATOM     10  C   UNL     1      15.314  -6.108  30.049  0.00  0.00    +0.164 C 
ATOM     11  C   UNL     1      14.907  -4.942  30.939  0.00  0.00    +0.165 C 
ATOM     12  C   UNL     1      17.099  -4.588  30.218  0.00  0.00    +0.181 C 
ENDROOT
BRANCH  10   2
ATOM      2  O   UNL     1      14.227  -6.591  29.282  0.00  0.00    -0.388 OA
ATOM     25  H   UNL     1      13.901  -7.407  29.695  0.00  0.00    +0.210 HD
ENDBRANCH  10   2
BRANCH   9   4
ATOM      4  N   UNL     1      17.281  -6.420  28.558  0.00  0.00    -0.302 NA
ATOM     24  H   UNL     1      17.084  -7.353  28.921  0.00  0.00    +0.123 HD
BRANCH   4  14
ATOM     14  C   UNL     1      17.096  -6.425  27.113  0.00  0.00    +0.156 C 
BRANCH  14  15
ATOM      6  N   UNL     1      15.824  -8.557  27.451  0.00  0.00    -0.347 N 
ATOM      7  N   UNL     1      16.647  -8.236  25.413  0.00  0.00    -0.240 NA
ATOM     15  C   UNL     1      16.536  -7.735  26.624  0.00  0.00    +0.121 A 
ATOM     18  C   UNL     1      15.456  -9.654  26.722  0.00  0.00    +0.104 A 
ATOM     19  C   UNL     1      15.976  -9.433  25.468  0.00  0.00    +0.130 A 
ATOM     27  H   UNL     1      15.606  -8.387  28.424  0.00  0.00    +0.167 HD
ENDBRANCH  14  15
ENDBRANCH   4  14
ENDBRANCH   9   4
BRANCH  11  13
ATOM     13  C   UNL     1      14.299  -5.378  32.260  0.00  0.00    +0.138 C 
BRANCH  13   5
ATOM      3  O   UNL     1      11.440  -5.623  32.332  0.00  0.00    -0.270 OA
ATOM      5  N   UNL     1      13.539  -6.585  32.113  0.00  0.00    -0.309 N 
ATOM     16  C   UNL     1      12.149  -6.611  32.161  0.00  0.00    +0.244 C 
ATOM     26  H   UNL     1      14.067  -7.448  32.036  0.00  0.00    +0.149 HD
BRANCH  16  17
ATOM      8  N   UNL     1      10.314 -10.456  31.743  0.00  0.00    -0.263 NA
ATOM     17  C   UNL     1      11.512  -7.946  32.018  0.00  0.00    +0.040 A 
ATOM     20  C   UNL     1      12.265  -9.036  31.596  0.00  0.00    +0.033 A 
ATOM     21  C   UNL     1      10.162  -8.109  32.303  0.00  0.00    +0.033 A 
ATOM     22  C   UNL     1      11.624 -10.259  31.476  0.00  0.00    +0.111 A 
ATOM     23  C   UNL     1       9.615  -9.373  32.151  0.00  0.00    +0.111 A 
ENDBRANCH  16  17
ENDBRANCH  13   5
ENDBRANCH  11  13
TORSDOF 7
ENDMDL
MODEL 10
REMARK VINA RESULT:      -2.5     17.055     19.049
REMARK  Name = 75536800
REMARK  7 active torsions:
REMARK  status: ('A' for Active; 'I' for Inactive)
REMARK    1  A    between atoms: O_2  and  C_10
REMARK    2  A    between atoms: N_4  and  C_9
REMARK    3  A    between atoms: N_4  and  C_14
REMARK    4  A    between atoms: N_5  and  C_13
REMARK    5  A    between atoms: C_11  and  C_13
REMARK    6  A    between atoms: C_14  and  C_15
REMARK    7  A    between atoms: C_16  and  C_17
REMARK                            x       y       z     vdW  Elec       q    Type
REMARK                         _______ _______ _______ _____ _____    ______ ____
ROOT
ATOM      1  O   UNL     1      16.504  -7.598  30.550  0.00  0.00    -0.371 OA
ATOM      9  C   UNL     1      17.151  -8.685  28.540  0.00  0.00    +0.111 C 
ATOM     10  C   UNL     1      16.051  -7.688  28.230  0.00  0.00    +0.164 C 
ATOM     11  C   UNL     1      16.145  -6.763  29.436  0.00  0.00    +0.165 C 
ATOM     12  C   UNL     1      16.993  -8.852  30.043  0.00  0.00    +0.181 C 
ENDROOT
BRANCH  10   2
ATOM      2  O   UNL     1      16.267  -6.995  27.016  0.00  0.00    -0.388 OA
ATOM     25  H   UNL     1      15.449  -7.031  26.494  0.00  0.00    +0.210 HD
ENDBRANCH  10   2
BRANCH   9   4
ATOM      4  N   UNL     1      17.025  -9.939  27.815  0.00  0.00    -0.302 NA
ATOM     24  H   UNL     1      17.590 -10.651  28.278  0.00  0.00    +0.123 HD
BRANCH   4  14
ATOM     14  C   UNL     1      15.638 -10.387  27.777  0.00  0.00    +0.156 C 
BRANCH  14  15
ATOM      6  N   UNL     1      16.007 -10.633  25.311  0.00  0.00    -0.347 N 
ATOM      7  N   UNL     1      13.888 -10.641  25.976  0.00  0.00    -0.240 NA
ATOM     15  C   UNL     1      15.141 -10.554  26.365  0.00  0.00    +0.121 A 
ATOM     18  C   UNL     1      15.259 -10.780  24.176  0.00  0.00    +0.104 A 
ATOM     19  C   UNL     1      13.955 -10.781  24.612  0.00  0.00    +0.130 A 
ATOM     27  H   UNL     1      17.017 -10.592  25.359  0.00  0.00    +0.167 HD
ENDBRANCH  14  15
ENDBRANCH   4  14
ENDBRANCH   9   4
BRANCH  11  13
ATOM     13  C   UNL     1      14.847  -6.035  29.738  0.00  0.00    +0.138 C 
BRANCH  13   5
ATOM      3  O   UNL     1      13.424  -6.101  32.230  0.00  0.00    -0.270 OA
ATOM      5  N   UNL     1      13.807  -6.951  30.106  0.00  0.00    -0.309 N 
ATOM     16  C   UNL     1      13.169  -6.909  31.342  0.00  0.00    +0.244 C 
ATOM     26  H   UNL     1      13.594  -7.688  29.442  0.00  0.00    +0.149 HD
BRANCH  16  17
ATOM      8  N   UNL     1      10.175  -9.893  32.020  0.00  0.00    -0.263 NA
ATOM     17  C   UNL     1      12.130  -7.945  31.579  0.00  0.00    +0.040 A 
ATOM     20  C   UNL     1      12.427  -9.289  31.381  0.00  0.00    +0.033 A 
ATOM     21  C   UNL     1      10.857  -7.574  31.997  0.00  0.00    +0.033 A 
ATOM     22  C   UNL     1      11.423 -10.216  31.614  0.00  0.00    +0.111 A 
ATOM     23  C   UNL     1       9.924  -8.577  32.201  0.00  0.00    +0.111 A 
ENDBRANCH  16  17
ENDBRANCH  13   5
ENDBRANCH  11  13
TORSDOF 7
ENDMDL
