MODEL 1
REMARK VINA RESULT:      -3.1      0.000      0.000
REMARK  Name = 75536593
REMARK  7 active torsions:
REMARK  status: ('A' for Active; 'I' for Inactive)
REMARK    1  A    between atoms: O_3  and  C_11
REMARK    2  A    between atoms: N_6  and  C_9
REMARK    3  A    between atoms: N_6  and  C_10
REMARK    4  A    between atoms: N_8  and  C_18
REMARK    5  A    between atoms: C_12  and  C_18
REMARK    6  A    between atoms: C_19  and  C_20
REMARK    7  A    between atoms: C_21  and  C_22
REMARK                            x       y       z     vdW  Elec       q    Type
REMARK                         _______ _______ _______ _____ _____    ______ ____
ROOT
ATOM      2  O   UNL     1      -4.266   3.609  26.873  0.00  0.00    -0.371 OA
ATOM      9  C   UNL     1      -2.690   4.412  25.289  0.00  0.00    +0.111 C 
ATOM     11  C   UNL     1      -3.800   3.682  24.556  0.00  0.00    +0.164 C 
ATOM     12  C   UNL     1      -4.913   3.722  25.596  0.00  0.00    +0.165 C 
ATOM     15  C   UNL     1      -2.864   3.883  26.703  0.00  0.00    +0.181 C 
ENDROOT
BRANCH  11   3
ATOM      3  O   UNL     1      -4.179   4.327  23.355  0.00  0.00    -0.388 OA
ATOM     27  H   UNL     1      -4.076   3.696  22.623  0.00  0.00    +0.210 HD
ENDBRANCH  11   3
BRANCH   9   6
ATOM      6  N   UNL     1      -1.366   4.153  24.747  0.00  0.00    -0.306 NA
ATOM     26  H   UNL     1      -0.652   4.557  25.352  0.00  0.00    +0.123 HD
BRANCH   6  10
ATOM      4  O   UNL     1       2.481  -0.401  23.241  0.00  0.00    -0.276 OA
ATOM      7  N   UNL     1       0.357   0.513  23.465  0.00  0.00    -0.302 N 
ATOM     10  C   UNL     1      -1.139   2.717  24.597  0.00  0.00    +0.057 C 
ATOM     13  C   UNL     1       0.259   2.349  25.108  0.00  0.00    +0.037 C 
ATOM     14  C   UNL     1      -1.299   2.310  23.128  0.00  0.00    +0.037 C 
ATOM     16  C   UNL     1       0.554   0.869  24.873  0.00  0.00    +0.109 C 
ATOM     17  C   UNL     1      -0.973   0.828  22.931  0.00  0.00    +0.109 C 
ATOM     19  C   UNL     1       1.383  -0.113  22.759  0.00  0.00    +0.212 C 
ATOM     20  C   UNL     1       1.104  -0.444  21.314  0.00  0.00    +0.109 C 
ENDBRANCH   6  10
ENDBRANCH   9   6
BRANCH  12  18
ATOM     18  C   UNL     1      -5.927   2.604  25.432  0.00  0.00    +0.138 C 
BRANCH  18   8
ATOM      5  O   UNL     1      -4.380   1.381  23.345  0.00  0.00    -0.270 OA
ATOM      8  N   UNL     1      -5.294   1.317  25.476  0.00  0.00    -0.308 N 
ATOM     21  C   UNL     1      -4.560   0.802  24.413  0.00  0.00    +0.251 C 
ATOM     28  H   UNL     1      -5.413   0.774  26.325  0.00  0.00    +0.149 HD
BRANCH  21  22
ATOM      1  S   UNL     1      -2.772  -0.789  25.788  0.00  0.00    -0.092 S 
ATOM     22  C   UNL     1      -3.989  -0.557  24.607  0.00  0.00    +0.074 A 
ATOM     23  C   UNL     1      -4.301  -1.727  23.949  0.00  0.00    +0.021 A 
ATOM     24  C   UNL     1      -3.530  -2.827  24.422  0.00  0.00    +0.008 A 
ATOM     25  C   UNL     1      -2.659  -2.458  25.424  0.00  0.00    +0.046 A 
ENDBRANCH  21  22
ENDBRANCH  18   8
ENDBRANCH  12  18
TORSDOF 6
ENDMDL
MODEL 2
REMARK VINA RESULT:      -2.7      2.402      4.452
REMARK  Name = 75536593
REMARK  7 active torsions:
REMARK  status: ('A' for Active; 'I' for Inactive)
REMARK    1  A    between atoms: O_3  and  C_11
REMARK    2  A    between atoms: N_6  and  C_9
REMARK    3  A    between atoms: N_6  and  C_10
REMARK    4  A    between atoms: N_8  and  C_18
REMARK    5  A    between atoms: C_12  and  C_18
REMARK    6  A    between atoms: C_19  and  C_20
REMARK    7  A    between atoms: C_21  and  C_22
REMARK                            x       y       z     vdW  Elec       q    Type
REMARK                         _______ _______ _______ _____ _____    ______ ____
ROOT
ATOM      2  O   UNL     1      -0.308   3.700  26.394  0.00  0.00    -0.371 OA
ATOM      9  C   UNL     1       0.607   2.333  24.681  0.00  0.00    +0.111 C 
ATOM     11  C   UNL     1      -0.347   3.334  24.058  0.00  0.00    +0.164 C 
ATOM     12  C   UNL     1      -0.403   4.401  25.144  0.00  0.00    +0.165 C 
ATOM     15  C   UNL     1       0.173   2.369  26.137  0.00  0.00    +0.181 C 
ENDROOT
BRANCH  11   3
ATOM      3  O   UNL     1       0.130   3.855  22.833  0.00  0.00    -0.388 OA
ATOM     27  H   UNL     1      -0.459   3.552  22.121  0.00  0.00    +0.210 HD
ENDBRANCH  11   3
BRANCH   9   6
ATOM      6  N   UNL     1       0.521   1.005  24.097  0.00  0.00    -0.306 NA
ATOM     26  H   UNL     1       1.431   0.545  24.131  0.00  0.00    +0.123 HD
BRANCH   6  10
ATOM      4  O   UNL     1      -3.232  -3.866  24.038  0.00  0.00    -0.276 OA
ATOM      7  N   UNL     1      -2.628  -1.738  24.748  0.00  0.00    -0.302 N 
ATOM     10  C   UNL     1      -0.473   0.194  24.797  0.00  0.00    +0.057 C 
ATOM     13  C   UNL     1      -0.211  -1.296  24.544  0.00  0.00    +0.037 C 
ATOM     14  C   UNL     1      -1.884   0.577  24.335  0.00  0.00    +0.037 C 
ATOM     16  C   UNL     1      -1.296  -2.157  25.189  0.00  0.00    +0.109 C 
ATOM     17  C   UNL     1      -2.937  -0.322  24.984  0.00  0.00    +0.109 C 
ATOM     19  C   UNL     1      -3.501  -2.673  24.193  0.00  0.00    +0.212 C 
ATOM     20  C   UNL     1      -4.853  -2.162  23.761  0.00  0.00    +0.109 C 
ENDBRANCH   6  10
ENDBRANCH   9   6
BRANCH  12  18
ATOM     18  C   UNL     1      -1.678   5.224  25.112  0.00  0.00    +0.138 C 
BRANCH  18   8
ATOM      5  O   UNL     1      -3.305   4.125  27.207  0.00  0.00    -0.270 OA
ATOM      8  N   UNL     1      -2.833   4.387  24.951  0.00  0.00    -0.308 N 
ATOM     21  C   UNL     1      -3.565   3.898  26.028  0.00  0.00    +0.251 C 
ATOM     28  H   UNL     1      -3.099   4.146  24.002  0.00  0.00    +0.149 HD
BRANCH  21  22
ATOM      1  S   UNL     1      -4.909   2.470  24.086  0.00  0.00    -0.092 S 
ATOM     22  C   UNL     1      -4.720   3.024  25.695  0.00  0.00    +0.074 A 
ATOM     23  C   UNL     1      -5.720   2.561  26.522  0.00  0.00    +0.021 A 
ATOM     24  C   UNL     1      -6.653   1.741  25.824  0.00  0.00    +0.008 A 
ATOM     25  C   UNL     1      -6.331   1.608  24.492  0.00  0.00    +0.046 A 
ENDBRANCH  21  22
ENDBRANCH  18   8
ENDBRANCH  12  18
TORSDOF 6
ENDMDL
MODEL 3
REMARK VINA RESULT:      -2.2      2.223      4.730
REMARK  Name = 75536593
REMARK  7 active torsions:
REMARK  status: ('A' for Active; 'I' for Inactive)
REMARK    1  A    between atoms: O_3  and  C_11
REMARK    2  A    between atoms: N_6  and  C_9
REMARK    3  A    between atoms: N_6  and  C_10
REMARK    4  A    between atoms: N_8  and  C_18
REMARK    5  A    between atoms: C_12  and  C_18
REMARK    6  A    between atoms: C_19  and  C_20
REMARK    7  A    between atoms: C_21  and  C_22
REMARK                            x       y       z     vdW  Elec       q    Type
REMARK                         _______ _______ _______ _____ _____    ______ ____
ROOT
ATOM      2  O   UNL     1      -2.769   4.651  23.751  0.00  0.00    -0.371 OA
ATOM      9  C   UNL     1      -4.309   3.654  25.260  0.00  0.00    +0.111 C 
ATOM     11  C   UNL     1      -2.949   3.742  25.927  0.00  0.00    +0.164 C 
ATOM     12  C   UNL     1      -2.282   4.827  25.091  0.00  0.00    +0.165 C 
ATOM     15  C   UNL     1      -3.936   3.811  23.795  0.00  0.00    +0.181 C 
ENDROOT
BRANCH  11   3
ATOM      3  O   UNL     1      -3.032   4.105  27.291  0.00  0.00    -0.388 OA
ATOM     27  H   UNL     1      -2.956   3.298  27.828  0.00  0.00    +0.210 HD
ENDBRANCH  11   3
BRANCH   9   6
ATOM      6  N   UNL     1      -5.014   2.413  25.535  0.00  0.00    -0.306 NA
ATOM     26  H   UNL     1      -6.018   2.545  25.417  0.00  0.00    +0.123 HD
BRANCH   6  10
ATOM      4  O   UNL     1      -3.527  -3.513  24.840  0.00  0.00    -0.276 OA
ATOM      7  N   UNL     1      -3.348  -1.264  24.284  0.00  0.00    -0.302 N 
ATOM     10  C   UNL     1      -4.546   1.345  24.654  0.00  0.00    +0.057 C 
ATOM     13  C   UNL     1      -5.329   0.055  24.928  0.00  0.00    +0.037 C 
ATOM     14  C   UNL     1      -3.043   1.115  24.860  0.00  0.00    +0.037 C 
ATOM     16  C   UNL     1      -4.790  -1.099  24.085  0.00  0.00    +0.109 C 
ATOM     17  C   UNL     1      -2.549  -0.062  24.018  0.00  0.00    +0.109 C 
ATOM     19  C   UNL     1      -2.837  -2.507  24.658  0.00  0.00    +0.212 C 
ATOM     20  C   UNL     1      -1.343  -2.594  24.846  0.00  0.00    +0.109 C 
ENDBRANCH   6  10
ENDBRANCH   9   6
BRANCH  12  18
ATOM     18  C   UNL     1      -0.766   4.745  25.102  0.00  0.00    +0.138 C 
BRANCH  18   8
ATOM      5  O   UNL     1       0.550   2.405  26.120  0.00  0.00    -0.270 OA
ATOM      8  N   UNL     1      -0.300   3.623  24.338  0.00  0.00    -0.308 N 
ATOM     21  C   UNL     1       0.330   2.526  24.918  0.00  0.00    +0.251 C 
ATOM     28  H   UNL     1      -0.436   3.661  23.333  0.00  0.00    +0.149 HD
BRANCH  21  22
ATOM      1  S   UNL     1       2.376   1.496  23.379  0.00  0.00    -0.092 S 
ATOM     22  C   UNL     1       0.776   1.457  23.987  0.00  0.00    +0.074 A 
ATOM     23  C   UNL     1       0.067   0.377  23.508  0.00  0.00    +0.021 A 
ATOM     24  C   UNL     1       0.849  -0.427  22.630  0.00  0.00    +0.008 A 
ATOM     25  C   UNL     1       2.125   0.066  22.472  0.00  0.00    +0.046 A 
ENDBRANCH  21  22
ENDBRANCH  18   8
ENDBRANCH  12  18
TORSDOF 6
ENDMDL
MODEL 4
REMARK VINA RESULT:      -2.0      1.172      1.401
REMARK  Name = 75536593
REMARK  7 active torsions:
REMARK  status: ('A' for Active; 'I' for Inactive)
REMARK    1  A    between atoms: O_3  and  C_11
REMARK    2  A    between atoms: N_6  and  C_9
REMARK    3  A    between atoms: N_6  and  C_10
REMARK    4  A    between atoms: N_8  and  C_18
REMARK    5  A    between atoms: C_12  and  C_18
REMARK    6  A    between atoms: C_19  and  C_20
REMARK    7  A    between atoms: C_21  and  C_22
REMARK                            x       y       z     vdW  Elec       q    Type
REMARK                         _______ _______ _______ _____ _____    ______ ____
ROOT
ATOM      2  O   UNL     1      -4.213   3.204  26.701  0.00  0.00    -0.371 OA
ATOM      9  C   UNL     1      -2.813   4.669  25.461  0.00  0.00    +0.111 C 
ATOM     11  C   UNL     1      -3.890   4.119  24.544  0.00  0.00    +0.164 C 
ATOM     12  C   UNL     1      -4.940   3.679  25.556  0.00  0.00    +0.165 C 
ATOM     15  C   UNL     1      -2.856   3.671  26.606  0.00  0.00    +0.181 C 
ENDROOT
BRANCH  11   3
ATOM      3  O   UNL     1      -4.396   5.092  23.650  0.00  0.00    -0.388 OA
ATOM     27  H   UNL     1      -4.297   4.756  22.744  0.00  0.00    +0.210 HD
ENDBRANCH  11   3
BRANCH   9   6
ATOM      6  N   UNL     1      -1.504   4.757  24.835  0.00  0.00    -0.306 NA
ATOM     26  H   UNL     1      -1.008   5.582  25.170  0.00  0.00    +0.123 HD
BRANCH   6  10
ATOM      4  O   UNL     1       1.272  -0.281  22.659  0.00  0.00    -0.276 OA
ATOM      7  N   UNL     1       0.201   0.922  24.335  0.00  0.00    -0.302 N 
ATOM     10  C   UNL     1      -0.717   3.556  25.108  0.00  0.00    +0.057 C 
ATOM     13  C   UNL     1       0.345   3.364  24.019  0.00  0.00    +0.037 C 
ATOM     14  C   UNL     1      -1.637   2.331  25.184  0.00  0.00    +0.037 C 
ATOM     16  C   UNL     1       1.116   2.062  24.234  0.00  0.00    +0.109 C 
ATOM     17  C   UNL     1      -0.826   1.048  25.375  0.00  0.00    +0.109 C 
ATOM     19  C   UNL     1       0.377  -0.183  23.503  0.00  0.00    +0.212 C 
ATOM     20  C   UNL     1      -0.608  -1.314  23.666  0.00  0.00    +0.109 C 
ENDBRANCH   6  10
ENDBRANCH   9   6
BRANCH  12  18
ATOM     18  C   UNL     1      -5.852   2.582  25.036  0.00  0.00    +0.138 C 
BRANCH  18   8
ATOM      5  O   UNL     1      -4.068   1.091  23.351  0.00  0.00    -0.270 OA
ATOM      8  N   UNL     1      -5.307   1.282  25.303  0.00  0.00    -0.308 N 
ATOM     21  C   UNL     1      -4.445   0.631  24.426  0.00  0.00    +0.251 C 
ATOM     28  H   UNL     1      -5.588   0.834  26.169  0.00  0.00    +0.149 HD
BRANCH  21  22
ATOM      1  S   UNL     1      -4.179  -2.032  23.750  0.00  0.00    -0.092 S 
ATOM     22  C   UNL     1      -3.989  -0.722  24.836  0.00  0.00    +0.074 A 
ATOM     23  C   UNL     1      -3.403  -1.113  26.021  0.00  0.00    +0.021 A 
ATOM     24  C   UNL     1      -3.108  -2.507  26.035  0.00  0.00    +0.008 A 
ATOM     25  C   UNL     1      -3.477  -3.128  24.862  0.00  0.00    +0.046 A 
ENDBRANCH  21  22
ENDBRANCH  18   8
ENDBRANCH  12  18
TORSDOF 6
ENDMDL
MODEL 5
REMARK VINA RESULT:      -1.4      1.953      5.112
REMARK  Name = 75536593
REMARK  7 active torsions:
REMARK  status: ('A' for Active; 'I' for Inactive)
REMARK    1  A    between atoms: O_3  and  C_11
REMARK    2  A    between atoms: N_6  and  C_9
REMARK    3  A    between atoms: N_6  and  C_10
REMARK    4  A    between atoms: N_8  and  C_18
REMARK    5  A    between atoms: C_12  and  C_18
REMARK    6  A    between atoms: C_19  and  C_20
REMARK    7  A    between atoms: C_21  and  C_22
REMARK                            x       y       z     vdW  Elec       q    Type
REMARK                         _______ _______ _______ _____ _____    ______ ____
ROOT
ATOM      2  O   UNL     1       0.321   3.372  23.181  0.00  0.00    -0.371 OA
ATOM      9  C   UNL     1      -0.375   4.014  25.359  0.00  0.00    +0.111 C 
ATOM     11  C   UNL     1      -0.035   2.535  25.364  0.00  0.00    +0.164 C 
ATOM     12  C   UNL     1       0.854   2.434  24.131  0.00  0.00    +0.165 C 
ATOM     15  C   UNL     1      -0.558   4.275  23.873  0.00  0.00    +0.181 C 
ENDROOT
BRANCH  11   3
ATOM      3  O   UNL     1       0.647   2.135  26.537  0.00  0.00    -0.388 OA
ATOM     27  H   UNL     1       0.746   1.168  26.519  0.00  0.00    +0.210 HD
ENDBRANCH  11   3
BRANCH   9   6
ATOM      6  N   UNL     1      -1.554   4.344  26.142  0.00  0.00    -0.306 NA
ATOM     26  H   UNL     1      -1.519   5.318  26.439  0.00  0.00    +0.123 HD
BRANCH   6  10
ATOM      4  O   UNL     1      -7.115   1.737  25.839  0.00  0.00    -0.276 OA
ATOM      7  N   UNL     1      -5.165   2.550  24.873  0.00  0.00    -0.302 N 
ATOM     10  C   UNL     1      -2.772   4.101  25.371  0.00  0.00    +0.057 C 
ATOM     13  C   UNL     1      -4.001   4.205  26.282  0.00  0.00    +0.037 C 
ATOM     14  C   UNL     1      -2.709   2.719  24.710  0.00  0.00    +0.037 C 
ATOM     16  C   UNL     1      -5.278   3.861  25.517  0.00  0.00    +0.109 C 
ATOM     17  C   UNL     1      -4.013   2.403  23.975  0.00  0.00    +0.109 C 
ATOM     19  C   UNL     1      -6.135   1.577  25.107  0.00  0.00    +0.212 C 
ATOM     20  C   UNL     1      -5.946   0.252  24.410  0.00  0.00    +0.109 C 
ENDBRANCH   6  10
ENDBRANCH   9   6
BRANCH  12  18
ATOM     18  C   UNL     1       0.878   1.044  23.522  0.00  0.00    +0.138 C 
BRANCH  18   8
ATOM      5  O   UNL     1       0.724  -1.564  24.715  0.00  0.00    -0.270 OA
ATOM      8  N   UNL     1      -0.317   0.315  23.838  0.00  0.00    -0.308 N 
ATOM     21  C   UNL     1      -0.297  -0.949  24.419  0.00  0.00    +0.251 C 
ATOM     28  H   UNL     1      -1.200   0.758  23.608  0.00  0.00    +0.149 HD
BRANCH  21  22
ATOM      1  S   UNL     1      -2.675  -0.891  25.820  0.00  0.00    -0.092 S 
ATOM     22  C   UNL     1      -1.620  -1.581  24.661  0.00  0.00    +0.074 A 
ATOM     23  C   UNL     1      -2.165  -2.699  24.067  0.00  0.00    +0.021 A 
ATOM     24  C   UNL     1      -3.465  -2.991  24.571  0.00  0.00    +0.008 A 
ATOM     25  C   UNL     1      -3.865  -2.086  25.529  0.00  0.00    +0.046 A 
ENDBRANCH  21  22
ENDBRANCH  18   8
ENDBRANCH  12  18
TORSDOF 6
ENDMDL
MODEL 6
REMARK VINA RESULT:      -0.9      2.229      4.842
REMARK  Name = 75536593
REMARK  7 active torsions:
REMARK  status: ('A' for Active; 'I' for Inactive)
REMARK    1  A    between atoms: O_3  and  C_11
REMARK    2  A    between atoms: N_6  and  C_9
REMARK    3  A    between atoms: N_6  and  C_10
REMARK    4  A    between atoms: N_8  and  C_18
REMARK    5  A    between atoms: C_12  and  C_18
REMARK    6  A    between atoms: C_19  and  C_20
REMARK    7  A    between atoms: C_21  and  C_22
REMARK                            x       y       z     vdW  Elec       q    Type
REMARK                         _______ _______ _______ _____ _____    ______ ____
ROOT
ATOM      2  O   UNL     1      -2.284   2.349  23.211  0.00  0.00    -0.371 OA
ATOM      9  C   UNL     1      -4.463   2.357  24.155  0.00  0.00    +0.111 C 
ATOM     11  C   UNL     1      -3.499   3.005  25.131  0.00  0.00    +0.164 C 
ATOM     12  C   UNL     1      -2.354   3.388  24.202  0.00  0.00    +0.165 C 
ATOM     15  C   UNL     1      -3.509   1.596  23.249  0.00  0.00    +0.181 C 
ENDROOT
BRANCH  11   3
ATOM      3  O   UNL     1      -4.053   4.135  25.777  0.00  0.00    -0.388 OA
ATOM     27  H   UNL     1      -3.375   4.517  26.360  0.00  0.00    +0.210 HD
ENDBRANCH  11   3
BRANCH   9   6
ATOM      6  N   UNL     1      -5.447   1.496  24.792  0.00  0.00    -0.306 NA
ATOM     26  H   UNL     1      -6.231   1.330  24.161  0.00  0.00    +0.123 HD
BRANCH   6  10
ATOM      4  O   UNL     1      -0.377  -1.942  25.331  0.00  0.00    -0.276 OA
ATOM      7  N   UNL     1      -2.667  -1.678  25.039  0.00  0.00    -0.302 N 
ATOM     10  C   UNL     1      -4.845   0.223  25.184  0.00  0.00    +0.057 C 
ATOM     13  C   UNL     1      -3.514   0.470  25.905  0.00  0.00    +0.037 C 
ATOM     14  C   UNL     1      -4.631  -0.660  23.948  0.00  0.00    +0.037 C 
ATOM     16  C   UNL     1      -2.822  -0.851  26.239  0.00  0.00    +0.109 C 
ATOM     17  C   UNL     1      -3.915  -1.959  24.321  0.00  0.00    +0.109 C 
ATOM     19  C   UNL     1      -1.407  -2.163  24.690  0.00  0.00    +0.212 C 
ATOM     20  C   UNL     1      -1.330  -3.004  23.441  0.00  0.00    +0.109 C 
ENDBRANCH   6  10
ENDBRANCH   9   6
BRANCH  12  18
ATOM     18  C   UNL     1      -1.019   3.509  24.914  0.00  0.00    +0.138 C 
BRANCH  18   8
ATOM      5  O   UNL     1      -0.112   0.797  25.171  0.00  0.00    -0.270 OA
ATOM      8  N   UNL     1       0.031   2.882  24.164  0.00  0.00    -0.308 N 
ATOM     21  C   UNL     1       0.405   1.556  24.356  0.00  0.00    +0.251 C 
ATOM     28  H   UNL     1       0.514   3.455  23.480  0.00  0.00    +0.149 HD
BRANCH  21  22
ATOM      1  S   UNL     1       1.266  -0.268  22.470  0.00  0.00    -0.092 S 
ATOM     22  C   UNL     1       1.528   1.062  23.517  0.00  0.00    +0.074 A 
ATOM     23  C   UNL     1       2.821   1.532  23.442  0.00  0.00    +0.021 A 
ATOM     24  C   UNL     1       3.606   0.790  22.514  0.00  0.00    +0.008 A 
ATOM     25  C   UNL     1       2.884  -0.218  21.913  0.00  0.00    +0.046 A 
ENDBRANCH  21  22
ENDBRANCH  18   8
ENDBRANCH  12  18
TORSDOF 6
ENDMDL
MODEL 7
REMARK VINA RESULT:      -0.7      2.228      5.414
REMARK  Name = 75536593
REMARK  7 active torsions:
REMARK  status: ('A' for Active; 'I' for Inactive)
REMARK    1  A    between atoms: O_3  and  C_11
REMARK    2  A    between atoms: N_6  and  C_9
REMARK    3  A    between atoms: N_6  and  C_10
REMARK    4  A    between atoms: N_8  and  C_18
REMARK    5  A    between atoms: C_12  and  C_18
REMARK    6  A    between atoms: C_19  and  C_20
REMARK    7  A    between atoms: C_21  and  C_22
REMARK                            x       y       z     vdW  Elec       q    Type
REMARK                         _______ _______ _______ _____ _____    ______ ____
ROOT
ATOM      2  O   UNL     1      -3.574  -1.771  26.263  0.00  0.00    -0.371 OA
ATOM      9  C   UNL     1      -4.729  -0.340  24.760  0.00  0.00    +0.111 C 
ATOM     11  C   UNL     1      -3.773  -1.217  23.973  0.00  0.00    +0.164 C 
ATOM     12  C   UNL     1      -3.550  -2.361  24.953  0.00  0.00    +0.165 C 
ATOM     15  C   UNL     1      -4.162  -0.461  26.164  0.00  0.00    +0.181 C 
ENDROOT
BRANCH  11   3
ATOM      3  O   UNL     1      -4.326  -1.670  22.752  0.00  0.00    -0.388 OA
ATOM     27  H   UNL     1      -5.172  -1.212  22.611  0.00  0.00    +0.210 HD
ENDBRANCH  11   3
BRANCH   9   6
ATOM      6  N   UNL     1      -4.783   1.034  24.287  0.00  0.00    -0.306 NA
ATOM     26  H   UNL     1      -5.747   1.363  24.270  0.00  0.00    +0.123 HD
BRANCH   6  10
ATOM      4  O   UNL     1      -1.977   6.453  25.048  0.00  0.00    -0.276 OA
ATOM      7  N   UNL     1      -2.205   4.176  25.449  0.00  0.00    -0.302 N 
ATOM     10  C   UNL     1      -3.974   1.906  25.137  0.00  0.00    +0.057 C 
ATOM     13  C   UNL     1      -4.494   3.346  25.060  0.00  0.00    +0.037 C 
ATOM     14  C   UNL     1      -2.503   1.842  24.708  0.00  0.00    +0.037 C 
ATOM     16  C   UNL     1      -3.605   4.291  25.866  0.00  0.00    +0.109 C 
ATOM     17  C   UNL     1      -1.652   2.818  25.522  0.00  0.00    +0.109 C 
ATOM     19  C   UNL     1      -1.500   5.315  25.066  0.00  0.00    +0.212 C 
ATOM     20  C   UNL     1      -0.065   5.113  24.647  0.00  0.00    +0.109 C 
ENDBRANCH   6  10
ENDBRANCH   9   6
BRANCH  12  18
ATOM     18  C   UNL     1      -2.232  -3.085  24.741  0.00  0.00    +0.138 C 
BRANCH  18   8
ATOM      5  O   UNL     1      -0.700  -1.001  25.987  0.00  0.00    -0.270 OA
ATOM      8  N   UNL     1      -1.267  -2.233  24.105  0.00  0.00    -0.308 N 
ATOM     21  C   UNL     1      -0.568  -1.245  24.791  0.00  0.00    +0.251 C 
ATOM     28  H   UNL     1      -1.117  -2.369  23.111  0.00  0.00    +0.149 HD
BRANCH  21  22
ATOM      1  S   UNL     1       0.669   1.196  24.431  0.00  0.00    -0.092 S 
ATOM     22  C   UNL     1       0.378  -0.431  23.984  0.00  0.00    +0.074 A 
ATOM     23  C   UNL     1       1.099  -0.797  22.869  0.00  0.00    +0.021 A 
ATOM     24  C   UNL     1       1.901   0.273  22.376  0.00  0.00    +0.008 A 
ATOM     25  C   UNL     1       1.763   1.415  23.133  0.00  0.00    +0.046 A 
ENDBRANCH  21  22
ENDBRANCH  18   8
ENDBRANCH  12  18
TORSDOF 6
ENDMDL
MODEL 8
REMARK VINA RESULT:      -0.6      2.729      6.262
REMARK  Name = 75536593
REMARK  7 active torsions:
REMARK  status: ('A' for Active; 'I' for Inactive)
REMARK    1  A    between atoms: O_3  and  C_11
REMARK    2  A    between atoms: N_6  and  C_9
REMARK    3  A    between atoms: N_6  and  C_10
REMARK    4  A    between atoms: N_8  and  C_18
REMARK    5  A    between atoms: C_12  and  C_18
REMARK    6  A    between atoms: C_19  and  C_20
REMARK    7  A    between atoms: C_21  and  C_22
REMARK                            x       y       z     vdW  Elec       q    Type
REMARK                         _______ _______ _______ _____ _____    ______ ____
ROOT
ATOM      2  O   UNL     1      -0.860  -0.346  25.365  0.00  0.00    -0.371 OA
ATOM      9  C   UNL     1      -3.193  -0.743  25.571  0.00  0.00    +0.111 C 
ATOM     11  C   UNL     1      -2.707  -1.318  24.253  0.00  0.00    +0.164 C 
ATOM     12  C   UNL     1      -1.215  -1.457  24.526  0.00  0.00    +0.165 C 
ATOM     15  C   UNL     1      -2.065   0.216  25.915  0.00  0.00    +0.181 C 
ENDROOT
BRANCH  11   3
ATOM      3  O   UNL     1      -3.305  -2.563  23.947  0.00  0.00    -0.388 OA
ATOM     27  H   UNL     1      -3.718  -2.496  23.069  0.00  0.00    +0.210 HD
ENDBRANCH  11   3
BRANCH   9   6
ATOM      6  N   UNL     1      -4.486  -0.087  25.479  0.00  0.00    -0.306 NA
ATOM     26  H   UNL     1      -4.886   0.034  26.409  0.00  0.00    +0.123 HD
BRANCH   6  10
ATOM      4  O   UNL     1      -0.825   4.407  23.424  0.00  0.00    -0.276 OA
ATOM      7  N   UNL     1      -2.846   3.609  24.249  0.00  0.00    -0.302 N 
ATOM     10  C   UNL     1      -4.363   1.210  24.817  0.00  0.00    +0.057 C 
ATOM     13  C   UNL     1      -3.173   1.198  23.851  0.00  0.00    +0.037 C 
ATOM     14  C   UNL     1      -4.195   2.321  25.862  0.00  0.00    +0.037 C 
ATOM     16  C   UNL     1      -2.968   2.574  23.219  0.00  0.00    +0.109 C 
ATOM     17  C   UNL     1      -3.969   3.676  25.191  0.00  0.00    +0.109 C 
ATOM     19  C   UNL     1      -1.740   4.459  24.249  0.00  0.00    +0.212 C 
ATOM     20  C   UNL     1      -1.686   5.496  25.344  0.00  0.00    +0.109 C 
ENDBRANCH   6  10
ENDBRANCH   9   6
BRANCH  12  18
ATOM     18  C   UNL     1      -0.371  -1.438  23.264  0.00  0.00    +0.138 C 
BRANCH  18   8
ATOM      5  O   UNL     1       1.521  -0.318  21.416  0.00  0.00    -0.270 OA
ATOM      8  N   UNL     1       0.983  -1.057  23.549  0.00  0.00    -0.308 N 
ATOM     21  C   UNL     1       1.832  -0.519  22.587  0.00  0.00    +0.251 C 
ATOM     28  H   UNL     1       1.315  -1.210  24.495  0.00  0.00    +0.149 HD
BRANCH  21  22
ATOM      1  S   UNL     1       4.139  -1.415  23.810  0.00  0.00    -0.092 S 
ATOM     22  C   UNL     1       3.213  -0.201  23.035  0.00  0.00    +0.074 A 
ATOM     23  C   UNL     1       3.907   0.984  22.920  0.00  0.00    +0.021 A 
ATOM     24  C   UNL     1       5.216   0.892  23.475  0.00  0.00    +0.008 A 
ATOM     25  C   UNL     1       5.473  -0.358  23.993  0.00  0.00    +0.046 A 
ENDBRANCH  21  22
ENDBRANCH  18   8
ENDBRANCH  12  18
TORSDOF 6
ENDMDL
MODEL 9
REMARK VINA RESULT:      -0.2      2.932      6.157
REMARK  Name = 75536593
REMARK  7 active torsions:
REMARK  status: ('A' for Active; 'I' for Inactive)
REMARK    1  A    between atoms: O_3  and  C_11
REMARK    2  A    between atoms: N_6  and  C_9
REMARK    3  A    between atoms: N_6  and  C_10
REMARK    4  A    between atoms: N_8  and  C_18
REMARK    5  A    between atoms: C_12  and  C_18
REMARK    6  A    between atoms: C_19  and  C_20
REMARK    7  A    between atoms: C_21  and  C_22
REMARK                            x       y       z     vdW  Elec       q    Type
REMARK                         _______ _______ _______ _____ _____    ______ ____
ROOT
ATOM      2  O   UNL     1      -1.599   1.494  22.114  0.00  0.00    -0.371 OA
ATOM      9  C   UNL     1      -1.895   2.735  24.118  0.00  0.00    +0.111 C 
ATOM     11  C   UNL     1      -0.840   1.668  24.347  0.00  0.00    +0.164 C 
ATOM     12  C   UNL     1      -0.414   1.364  22.916  0.00  0.00    +0.165 C 
ATOM     15  C   UNL     1      -2.591   2.207  22.874  0.00  0.00    +0.181 C 
ENDROOT
BRANCH  11   3
ATOM      3  O   UNL     1       0.242   2.129  25.132  0.00  0.00    -0.388 OA
ATOM     27  H   UNL     1       0.949   2.425  24.534  0.00  0.00    +0.210 HD
ENDBRANCH  11   3
BRANCH   9   6
ATOM      6  N   UNL     1      -2.800   2.910  25.242  0.00  0.00    -0.306 NA
ATOM     26  H   UNL     1      -3.527   3.585  25.006  0.00  0.00    +0.123 HD
BRANCH   6  10
ATOM      4  O   UNL     1      -2.787  -3.223  24.804  0.00  0.00    -0.276 OA
ATOM      7  N   UNL     1      -3.847  -1.183  25.137  0.00  0.00    -0.302 N 
ATOM     10  C   UNL     1      -3.407   1.637  25.622  0.00  0.00    +0.057 C 
ATOM     13  C   UNL     1      -2.316   0.594  25.896  0.00  0.00    +0.037 C 
ATOM     14  C   UNL     1      -4.348   1.150  24.514  0.00  0.00    +0.037 C 
ATOM     16  C   UNL     1      -2.930  -0.771  26.203  0.00  0.00    +0.109 C 
ATOM     17  C   UNL     1      -4.923  -0.227  24.847  0.00  0.00    +0.109 C 
ATOM     19  C   UNL     1      -3.678  -2.421  24.518  0.00  0.00    +0.212 C 
ATOM     20  C   UNL     1      -4.661  -2.770  23.428  0.00  0.00    +0.109 C 
ENDBRANCH   6  10
ENDBRANCH   9   6
BRANCH  12  18
ATOM     18  C   UNL     1       0.171  -0.026  22.747  0.00  0.00    +0.138 C 
BRANCH  18   8
ATOM      5  O   UNL     1       2.587   0.047  21.198  0.00  0.00    -0.270 OA
ATOM      8  N   UNL     1       1.513  -0.091  23.250  0.00  0.00    -0.308 N 
ATOM     21  C   UNL     1       2.630  -0.048  22.422  0.00  0.00    +0.251 C 
ATOM     28  H   UNL     1       1.625  -0.186  24.254  0.00  0.00    +0.149 HD
BRANCH  21  22
ATOM      1  S   UNL     1       4.382  -1.621  23.864  0.00  0.00    -0.092 S 
ATOM     22  C   UNL     1       3.951  -0.153  23.095  0.00  0.00    +0.074 A 
ATOM     23  C   UNL     1       4.941   0.799  23.206  0.00  0.00    +0.021 A 
ATOM     24  C   UNL     1       6.068   0.315  23.932  0.00  0.00    +0.008 A 
ATOM     25  C   UNL     1       5.896  -0.987  24.347  0.00  0.00    +0.046 A 
ENDBRANCH  21  22
ENDBRANCH  18   8
ENDBRANCH  12  18
TORSDOF 6
ENDMDL
MODEL 10
REMARK VINA RESULT:      -0.0      2.167      6.368
REMARK  Name = 75536593
REMARK  7 active torsions:
REMARK  status: ('A' for Active; 'I' for Inactive)
REMARK    1  A    between atoms: O_3  and  C_11
REMARK    2  A    between atoms: N_6  and  C_9
REMARK    3  A    between atoms: N_6  and  C_10
REMARK    4  A    between atoms: N_8  and  C_18
REMARK    5  A    between atoms: C_12  and  C_18
REMARK    6  A    between atoms: C_19  and  C_20
REMARK    7  A    between atoms: C_21  and  C_22
REMARK                            x       y       z     vdW  Elec       q    Type
REMARK                         _______ _______ _______ _____ _____    ______ ____
ROOT
ATOM      2  O   UNL     1      -2.162  -2.944  25.422  0.00  0.00    -0.371 OA
ATOM      9  C   UNL     1      -3.788  -1.857  24.074  0.00  0.00    +0.111 C 
ATOM     11  C   UNL     1      -2.491  -1.070  24.017  0.00  0.00    +0.164 C 
ATOM     12  C   UNL     1      -1.486  -2.130  24.450  0.00  0.00    +0.165 C 
ATOM     15  C   UNL     1      -3.576  -2.697  25.323  0.00  0.00    +0.181 C 
ENDROOT
BRANCH  11   3
ATOM      3  O   UNL     1      -2.209  -0.575  22.723  0.00  0.00    -0.388 OA
ATOM     27  H   UNL     1      -3.045  -0.292  22.314  0.00  0.00    +0.210 HD
ENDBRANCH  11   3
BRANCH   9   6
ATOM      6  N   UNL     1      -4.974  -1.021  24.148  0.00  0.00    -0.306 NA
ATOM     26  H   UNL     1      -5.771  -1.568  24.474  0.00  0.00    +0.123 HD
BRANCH   6  10
ATOM      4  O   UNL     1      -6.237   4.825  25.576  0.00  0.00    -0.276 OA
ATOM      7  N   UNL     1      -4.848   2.963  25.554  0.00  0.00    -0.302 N 
ATOM     10  C   UNL     1      -4.752   0.116  25.039  0.00  0.00    +0.057 C 
ATOM     13  C   UNL     1      -6.077   0.839  25.311  0.00  0.00    +0.037 C 
ATOM     14  C   UNL     1      -3.732   1.079  24.419  0.00  0.00    +0.037 C 
ATOM     16  C   UNL     1      -5.852   2.087  26.163  0.00  0.00    +0.109 C 
ATOM     17  C   UNL     1      -3.554   2.323  25.289  0.00  0.00    +0.109 C 
ATOM     19  C   UNL     1      -5.152   4.301  25.311  0.00  0.00    +0.212 C 
ATOM     20  C   UNL     1      -4.066   5.136  24.679  0.00  0.00    +0.109 C 
ENDBRANCH   6  10
ENDBRANCH   9   6
BRANCH  12  18
ATOM     18  C   UNL     1      -0.224  -1.545  25.059  0.00  0.00    +0.138 C 
BRANCH  18   8
ATOM      5  O   UNL     1       0.493   0.467  23.140  0.00  0.00    -0.270 OA
ATOM      8  N   UNL     1      -0.336  -0.124  25.225  0.00  0.00    -0.308 N 
ATOM     21  C   UNL     1       0.037   0.781  24.236  0.00  0.00    +0.251 C 
ATOM     28  H   UNL     1      -0.692   0.208  26.114  0.00  0.00    +0.149 HD
BRANCH  21  22
ATOM      1  S   UNL     1      -0.131   2.695  26.218  0.00  0.00    -0.092 S 
ATOM     22  C   UNL     1      -0.116   2.220  24.573  0.00  0.00    +0.074 A 
ATOM     23  C   UNL     1      -0.256   3.296  23.724  0.00  0.00    +0.021 A 
ATOM     24  C   UNL     1      -0.378   4.525  24.434  0.00  0.00    +0.008 A 
ATOM     25  C   UNL     1      -0.325   4.343  25.798  0.00  0.00    +0.046 A 
ENDBRANCH  21  22
ENDBRANCH  18   8
ENDBRANCH  12  18
TORSDOF 6
ENDMDL
