MODEL 1
REMARK VINA RESULT:       1.7      0.000      0.000
REMARK  Name = 45783574
REMARK  11 active torsions:
REMARK  status: ('A' for Active; 'I' for Inactive)
REMARK    1  A    between atoms: S_1  and  C_23
REMARK    2  A    between atoms: S_1  and  C_25
REMARK    3  A    between atoms: O_5  and  C_29
REMARK    4  A    between atoms: O_5  and  C_30
REMARK    5  A    between atoms: O_6  and  C_31
REMARK    6  A    between atoms: O_6  and  C_32
REMARK    7  A    between atoms: N_7  and  C_15
REMARK    8  A    between atoms: C_11  and  C_16
REMARK    9  A    between atoms: C_15  and  C_17
REMARK   10  A    between atoms: C_20  and  C_24
REMARK   11  A    between atoms: C_30  and  C_31
REMARK                            x       y       z     vdW  Elec       q    Type
REMARK                         _______ _______ _______ _____ _____    ______ ____
ROOT
ATOM      7  N   UNL     1      -5.489   2.856  25.437  0.00  0.00    -0.287 NA
ATOM     11  C   UNL     1      -4.603   3.469  24.427  0.00  0.00    +0.146 C 
ATOM     12  C   UNL     1      -4.734   4.985  24.659  0.00  0.00    +0.030 C 
ATOM     13  C   UNL     1      -5.760   5.130  25.775  0.00  0.00    +0.017 C 
ATOM     14  C   UNL     1      -6.543   3.834  25.709  0.00  0.00    +0.085 C 
ENDROOT
BRANCH  11  16
ATOM      2  O   UNL     1      -2.509   3.307  25.675  0.00  0.00    -0.336 OA
ATOM      8  N   UNL     1      -2.467   2.285  23.682  0.00  0.00    -0.190 NA
ATOM      9  N   UNL     1      -1.227   2.757  25.547  0.00  0.00    -0.056 NA
ATOM     16  C   UNL     1      -3.173   2.983  24.536  0.00  0.00    +0.245 A 
ATOM     20  C   UNL     1      -1.280   2.172  24.347  0.00  0.00    +0.204 A 
BRANCH  20  24
ATOM     10  N   UNL     1       2.228   1.257  23.516  0.00  0.00    -0.221 NA
ATOM     24  C   UNL     1      -0.165   1.465  23.783  0.00  0.00    +0.041 A 
ATOM     26  C   UNL     1      -0.360   0.344  22.984  0.00  0.00    +0.018 A 
ATOM     27  C   UNL     1       1.136   1.877  24.017  0.00  0.00    +0.126 A 
ATOM     28  C   UNL     1       0.739  -0.321  22.451  0.00  0.00    +0.068 A 
ATOM     29  C   UNL     1       2.000   0.172  22.744  0.00  0.00    +0.215 A 
BRANCH  29   5
ATOM      5  O   UNL     1       3.099  -0.466  22.230  0.00  0.00    -0.474 OA
BRANCH   5  30
ATOM     30  C   UNL     1       4.363  -0.097  22.769  0.00  0.00    +0.258 C 
BRANCH  30  31
ATOM     31  C   UNL     1       4.831  -1.182  23.719  0.00  0.00    +0.200 C 
BRANCH  31   6
ATOM      6  O   UNL     1       5.690  -0.607  24.696  0.00  0.00    -0.380 OA
ATOM     32  C   UNL     1       5.825   0.795  24.509  0.00  0.00    +0.194 C 
ENDBRANCH  31   6
ENDBRANCH  30  31
ENDBRANCH   5  30
ENDBRANCH  29   5
ENDBRANCH  20  24
ENDBRANCH  11  16
BRANCH   7  15
ATOM     15  C   UNL     1      -6.031   1.568  25.021  0.00  0.00    +0.120 C 
BRANCH  15  17
ATOM     17  C   UNL     1      -4.965   0.507  24.960  0.00  0.00    -0.033 A 
ATOM     18  C   UNL     1      -4.748  -0.195  23.774  0.00  0.00    +0.007 A 
ATOM     19  C   UNL     1      -4.195   0.225  26.088  0.00  0.00    +0.007 A 
ATOM     21  C   UNL     1      -3.760  -1.179  23.718  0.00  0.00    +0.027 A 
ATOM     22  C   UNL     1      -3.208  -0.759  26.032  0.00  0.00    +0.027 A 
ATOM     23  C   UNL     1      -2.991  -1.461  24.846  0.00  0.00    +0.088 A 
BRANCH  23   1
ATOM      1  S   UNL     1      -1.752  -2.690  24.773  0.00  0.00    -0.006 S 
ATOM      3  O   UNL     1      -2.132  -3.794  25.645  0.00  0.00    -0.170 OA
ATOM      4  O   UNL     1      -1.457  -2.945  23.371  0.00  0.00    -0.170 OA
ATOM     25  C   UNL     1      -0.324  -1.922  25.502  0.00  0.00    +0.200 C 
ENDBRANCH  23   1
ENDBRANCH  15  17
ENDBRANCH   7  15
TORSDOF 9
ENDMDL
MODEL 2
REMARK VINA RESULT:       2.5      2.366      4.592
REMARK  Name = 45783574
REMARK  11 active torsions:
REMARK  status: ('A' for Active; 'I' for Inactive)
REMARK    1  A    between atoms: S_1  and  C_23
REMARK    2  A    between atoms: S_1  and  C_25
REMARK    3  A    between atoms: O_5  and  C_29
REMARK    4  A    between atoms: O_5  and  C_30
REMARK    5  A    between atoms: O_6  and  C_31
REMARK    6  A    between atoms: O_6  and  C_32
REMARK    7  A    between atoms: N_7  and  C_15
REMARK    8  A    between atoms: C_11  and  C_16
REMARK    9  A    between atoms: C_15  and  C_17
REMARK   10  A    between atoms: C_20  and  C_24
REMARK   11  A    between atoms: C_30  and  C_31
REMARK                            x       y       z     vdW  Elec       q    Type
REMARK                         _______ _______ _______ _____ _____    ______ ____
ROOT
ATOM      7  N   UNL     1      -4.629  -1.344  23.935  0.00  0.00    -0.287 NA
ATOM     11  C   UNL     1      -3.686  -1.735  25.002  0.00  0.00    +0.146 C 
ATOM     12  C   UNL     1      -3.479  -3.248  24.808  0.00  0.00    +0.030 C 
ATOM     13  C   UNL     1      -4.392  -3.629  23.650  0.00  0.00    +0.017 C 
ATOM     14  C   UNL     1      -5.435  -2.530  23.643  0.00  0.00    +0.085 C 
ENDROOT
BRANCH  11  16
ATOM      2  O   UNL     1      -2.173  -0.064  25.947  0.00  0.00    -0.336 OA
ATOM      8  N   UNL     1      -1.426  -1.011  24.059  0.00  0.00    -0.190 NA
ATOM      9  N   UNL     1      -0.930   0.524  25.681  0.00  0.00    -0.056 NA
ATOM     16  C   UNL     1      -2.389  -0.956  24.945  0.00  0.00    +0.245 A 
ATOM     20  C   UNL     1      -0.553  -0.086  24.554  0.00  0.00    +0.204 A 
BRANCH  20  24
ATOM     10  N   UNL     1       2.516   1.742  23.521  0.00  0.00    -0.221 NA
ATOM     24  C   UNL     1       0.688   0.206  23.896  0.00  0.00    +0.041 A 
ATOM     26  C   UNL     1       1.267  -0.708  23.024  0.00  0.00    +0.018 A 
ATOM     27  C   UNL     1       1.346   1.406  24.109  0.00  0.00    +0.126 A 
ATOM     28  C   UNL     1       2.471  -0.398  22.400  0.00  0.00    +0.068 A 
ATOM     29  C   UNL     1       3.049   0.829  22.680  0.00  0.00    +0.215 A 
BRANCH  29   5
ATOM      5  O   UNL     1       4.235   1.158  22.077  0.00  0.00    -0.474 OA
BRANCH   5  30
ATOM     30  C   UNL     1       5.384   0.422  22.482  0.00  0.00    +0.258 C 
BRANCH  30  31
ATOM     31  C   UNL     1       5.565   0.573  23.981  0.00  0.00    +0.200 C 
BRANCH  31   6
ATOM      6  O   UNL     1       5.732  -0.715  24.561  0.00  0.00    -0.380 OA
ATOM     32  C   UNL     1       4.895  -1.679  23.939  0.00  0.00    +0.194 C 
ENDBRANCH  31   6
ENDBRANCH  30  31
ENDBRANCH   5  30
ENDBRANCH  29   5
ENDBRANCH  20  24
ENDBRANCH  11  16
BRANCH   7  15
ATOM     15  C   UNL     1      -5.453  -0.195  24.288  0.00  0.00    +0.120 C 
BRANCH  15  17
ATOM     17  C   UNL     1      -4.630   1.054  24.449  0.00  0.00    -0.033 A 
ATOM     18  C   UNL     1      -4.791   1.854  25.582  0.00  0.00    +0.007 A 
ATOM     19  C   UNL     1      -3.706   1.414  23.468  0.00  0.00    +0.007 A 
ATOM     21  C   UNL     1      -4.027   3.012  25.731  0.00  0.00    +0.027 A 
ATOM     22  C   UNL     1      -2.944   2.572  23.617  0.00  0.00    +0.027 A 
ATOM     23  C   UNL     1      -3.105   3.372  24.749  0.00  0.00    +0.088 A 
BRANCH  23   1
ATOM      1  S   UNL     1      -2.147   4.820  24.939  0.00  0.00    -0.006 S 
ATOM      3  O   UNL     1      -2.364   5.683  23.786  0.00  0.00    -0.170 OA
ATOM      4  O   UNL     1      -2.377   5.335  26.280  0.00  0.00    -0.170 OA
ATOM     25  C   UNL     1      -0.464   4.252  24.851  0.00  0.00    +0.200 C 
ENDBRANCH  23   1
ENDBRANCH  15  17
ENDBRANCH   7  15
TORSDOF 9
ENDMDL
MODEL 3
REMARK VINA RESULT:       5.2      1.693      2.122
REMARK  Name = 45783574
REMARK  11 active torsions:
REMARK  status: ('A' for Active; 'I' for Inactive)
REMARK    1  A    between atoms: S_1  and  C_23
REMARK    2  A    between atoms: S_1  and  C_25
REMARK    3  A    between atoms: O_5  and  C_29
REMARK    4  A    between atoms: O_5  and  C_30
REMARK    5  A    between atoms: O_6  and  C_31
REMARK    6  A    between atoms: O_6  and  C_32
REMARK    7  A    between atoms: N_7  and  C_15
REMARK    8  A    between atoms: C_11  and  C_16
REMARK    9  A    between atoms: C_15  and  C_17
REMARK   10  A    between atoms: C_20  and  C_24
REMARK   11  A    between atoms: C_30  and  C_31
REMARK                            x       y       z     vdW  Elec       q    Type
REMARK                         _______ _______ _______ _____ _____    ______ ____
ROOT
ATOM      7  N   UNL     1      -3.454   3.780  25.704  0.00  0.00    -0.287 NA
ATOM     11  C   UNL     1      -3.019   4.092  24.327  0.00  0.00    +0.146 C 
ATOM     12  C   UNL     1      -2.304   5.451  24.442  0.00  0.00    +0.030 C 
ATOM     13  C   UNL     1      -2.442   5.851  25.904  0.00  0.00    +0.017 C 
ATOM     14  C   UNL     1      -3.648   5.064  26.377  0.00  0.00    +0.085 C 
ENDROOT
BRANCH  11  16
ATOM      2  O   UNL     1      -2.678   2.254  22.753  0.00  0.00    -0.336 OA
ATOM      8  N   UNL     1      -0.900   2.696  24.042  0.00  0.00    -0.190 NA
ATOM      9  N   UNL     1      -1.685   1.341  22.375  0.00  0.00    -0.056 NA
ATOM     16  C   UNL     1      -2.133   3.014  23.739  0.00  0.00    +0.245 A 
ATOM     20  C   UNL     1      -0.668   1.665  23.179  0.00  0.00    +0.204 A 
BRANCH  20  24
ATOM     10  N   UNL     1       2.993   1.055  23.404  0.00  0.00    -0.221 NA
ATOM     24  C   UNL     1       0.591   0.979  23.144  0.00  0.00    +0.041 A 
ATOM     26  C   UNL     1       0.660  -0.374  22.831  0.00  0.00    +0.018 A 
ATOM     27  C   UNL     1       1.775   1.642  23.420  0.00  0.00    +0.126 A 
ATOM     28  C   UNL     1       1.895  -1.013  22.805  0.00  0.00    +0.068 A 
ATOM     29  C   UNL     1       3.022  -0.260  23.096  0.00  0.00    +0.215 A 
BRANCH  29   5
ATOM      5  O   UNL     1       4.250  -0.867  23.076  0.00  0.00    -0.474 OA
BRANCH   5  30
ATOM     30  C   UNL     1       5.127  -0.571  24.157  0.00  0.00    +0.258 C 
BRANCH  30  31
ATOM     31  C   UNL     1       6.242   0.327  23.657  0.00  0.00    +0.200 C 
BRANCH  31   6
ATOM      6  O   UNL     1       6.978  -0.361  22.654  0.00  0.00    -0.380 OA
ATOM     32  C   UNL     1       8.364  -0.405  22.963  0.00  0.00    +0.194 C 
ENDBRANCH  31   6
ENDBRANCH  30  31
ENDBRANCH   5  30
ENDBRANCH  29   5
ENDBRANCH  20  24
ENDBRANCH  11  16
BRANCH   7  15
ATOM     15  C   UNL     1      -4.651   2.949  25.753  0.00  0.00    +0.120 C 
BRANCH  15  17
ATOM     17  C   UNL     1      -4.349   1.513  25.416  0.00  0.00    -0.033 A 
ATOM     18  C   UNL     1      -3.162   0.928  25.858  0.00  0.00    +0.007 A 
ATOM     19  C   UNL     1      -5.255   0.767  24.663  0.00  0.00    +0.007 A 
ATOM     21  C   UNL     1      -2.882  -0.402  25.545  0.00  0.00    +0.027 A 
ATOM     22  C   UNL     1      -4.976  -0.562  24.350  0.00  0.00    +0.027 A 
ATOM     23  C   UNL     1      -3.788  -1.147  24.791  0.00  0.00    +0.088 A 
BRANCH  23   1
ATOM      1  S   UNL     1      -3.439  -2.814  24.404  0.00  0.00    -0.006 S 
ATOM      3  O   UNL     1      -3.583  -3.618  25.609  0.00  0.00    -0.170 OA
ATOM      4  O   UNL     1      -4.192  -3.162  23.208  0.00  0.00    -0.170 OA
ATOM     25  C   UNL     1      -1.711  -2.818  23.981  0.00  0.00    +0.200 C 
ENDBRANCH  23   1
ENDBRANCH  15  17
ENDBRANCH   7  15
TORSDOF 9
ENDMDL
