MODEL 1
REMARK VINA RESULT:      -4.7      0.000      0.000
REMARK  Name = 75536643
REMARK  8 active torsions:
REMARK  status: ('A' for Active; 'I' for Inactive)
REMARK    1  A    between atoms: O_3  and  C_9
REMARK    2  A    between atoms: O_5  and  C_16
REMARK    3  A    between atoms: N_6  and  C_8
REMARK    4  A    between atoms: N_6  and  C_13
REMARK    5  A    between atoms: N_7  and  C_12
REMARK    6  A    between atoms: C_10  and  C_12
REMARK    7  A    between atoms: C_13  and  C_14
REMARK    8  A    between atoms: C_15  and  C_18
REMARK                            x       y       z     vdW  Elec       q    Type
REMARK                         _______ _______ _______ _____ _____    ______ ____
ROOT
ATOM      2  O   UNL     1      -1.382  -2.034  23.531  0.00  0.00    -0.371 OA
ATOM      8  C   UNL     1       0.103  -0.632  24.744  0.00  0.00    +0.111 C 
ATOM      9  C   UNL     1      -1.193  -0.768  25.520  0.00  0.00    +0.164 C 
ATOM     10  C   UNL     1      -1.765  -2.045  24.917  0.00  0.00    +0.165 C 
ATOM     11  C   UNL     1      -0.332  -1.068  23.353  0.00  0.00    +0.181 C 
ENDROOT
BRANCH   9   3
ATOM      3  O   UNL     1      -0.985  -0.892  26.914  0.00  0.00    -0.388 OA
ATOM     28  H   UNL     1      -0.843  -0.003  27.281  0.00  0.00    +0.210 HD
ENDBRANCH   9   3
BRANCH   8   6
ATOM      6  N   UNL     1       0.660   0.710  24.768  0.00  0.00    -0.305 NA
ATOM     27  H   UNL     1       1.643   0.668  24.496  0.00  0.00    +0.123 HD
BRANCH   6  13
ATOM     13  C   UNL     1      -0.047   1.589  23.846  0.00  0.00    +0.120 C 
BRANCH  13  14
ATOM     14  C   UNL     1      -0.690   2.750  24.558  0.00  0.00    +0.008 A 
ATOM     16  C   UNL     1      -0.522   4.054  24.090  0.00  0.00    +0.121 A 
ATOM     17  C   UNL     1      -1.461   2.511  25.696  0.00  0.00    +0.008 A 
ATOM     19  C   UNL     1      -1.125   5.118  24.762  0.00  0.00    +0.046 A 
ATOM     20  C   UNL     1      -2.063   3.575  26.366  0.00  0.00    +0.001 A 
ATOM     21  C   UNL     1      -1.895   4.878  25.900  0.00  0.00    +0.004 A 
BRANCH  16   5
ATOM      5  O   UNL     1       0.226   4.305  22.981  0.00  0.00    -0.506 OA
ATOM     30  H   UNL     1       0.743   3.511  22.759  0.00  0.00    +0.292 HD
ENDBRANCH  16   5
ENDBRANCH  13  14
ENDBRANCH   6  13
ENDBRANCH   8   6
BRANCH  10  12
ATOM     12  C   UNL     1      -3.275  -2.139  25.032  0.00  0.00    +0.138 C 
BRANCH  12   7
ATOM      4  O   UNL     1      -3.660  -0.073  23.074  0.00  0.00    -0.270 OA
ATOM      7  N   UNL     1      -3.863  -0.849  25.252  0.00  0.00    -0.309 N 
ATOM     15  C   UNL     1      -4.011   0.095  24.239  0.00  0.00    +0.244 C 
ATOM     29  H   UNL     1      -4.111  -0.620  26.208  0.00  0.00    +0.149 HD
BRANCH  15  18
ATOM      1  F   UNL     1      -6.294   5.000  25.739  0.00  0.00    -0.205 F 
ATOM     18  C   UNL     1      -4.615   1.392  24.635  0.00  0.00    +0.037 A 
ATOM     22  C   UNL     1      -5.503   1.449  25.711  0.00  0.00    +0.016 A 
ATOM     23  C   UNL     1      -4.295   2.555  23.933  0.00  0.00    +0.016 A 
ATOM     24  C   UNL     1      -6.070   2.667  26.083  0.00  0.00    +0.039 A 
ATOM     25  C   UNL     1      -4.863   3.773  24.306  0.00  0.00    +0.039 A 
ATOM     26  C   UNL     1      -5.751   3.830  25.381  0.00  0.00    +0.123 A 
ENDBRANCH  15  18
ENDBRANCH  12   7
ENDBRANCH  10  12
TORSDOF 8
ENDMDL
MODEL 2
REMARK VINA RESULT:      -4.2      2.333      4.958
REMARK  Name = 75536643
REMARK  8 active torsions:
REMARK  status: ('A' for Active; 'I' for Inactive)
REMARK    1  A    between atoms: O_3  and  C_9
REMARK    2  A    between atoms: O_5  and  C_16
REMARK    3  A    between atoms: N_6  and  C_8
REMARK    4  A    between atoms: N_6  and  C_13
REMARK    5  A    between atoms: N_7  and  C_12
REMARK    6  A    between atoms: C_10  and  C_12
REMARK    7  A    between atoms: C_13  and  C_14
REMARK    8  A    between atoms: C_15  and  C_18
REMARK                            x       y       z     vdW  Elec       q    Type
REMARK                         _______ _______ _______ _____ _____    ______ ____
ROOT
ATOM      2  O   UNL     1       0.309   3.263  23.519  0.00  0.00    -0.371 OA
ATOM      8  C   UNL     1      -0.743   3.893  25.555  0.00  0.00    +0.111 C 
ATOM      9  C   UNL     1      -0.336   2.434  25.639  0.00  0.00    +0.164 C 
ATOM     10  C   UNL     1       0.734   2.364  24.558  0.00  0.00    +0.165 C 
ATOM     11  C   UNL     1      -0.709   4.128  24.052  0.00  0.00    +0.181 C 
ENDROOT
BRANCH   9   3
ATOM      3  O   UNL     1       0.175   2.082  26.910  0.00  0.00    -0.388 OA
ATOM     28  H   UNL     1       0.393   2.900  27.388  0.00  0.00    +0.210 HD
ENDBRANCH   9   3
BRANCH   8   6
ATOM      6  N   UNL     1      -2.042   4.172  26.142  0.00  0.00    -0.305 NA
ATOM     27  H   UNL     1      -1.960   4.973  26.769  0.00  0.00    +0.123 HD
BRANCH   6  13
ATOM     13  C   UNL     1      -3.029   4.477  25.114  0.00  0.00    +0.120 C 
BRANCH  13  14
ATOM     14  C   UNL     1      -4.171   3.495  25.122  0.00  0.00    +0.008 A 
ATOM     16  C   UNL     1      -4.378   2.637  24.041  0.00  0.00    +0.121 A 
ATOM     17  C   UNL     1      -5.023   3.447  26.224  0.00  0.00    +0.008 A 
ATOM     19  C   UNL     1      -5.440   1.732  24.064  0.00  0.00    +0.046 A 
ATOM     20  C   UNL     1      -6.084   2.542  26.246  0.00  0.00    +0.001 A 
ATOM     21  C   UNL     1      -6.293   1.685  25.167  0.00  0.00    +0.004 A 
BRANCH  16   5
ATOM      5  O   UNL     1      -3.555   2.669  22.957  0.00  0.00    -0.506 OA
ATOM     30  H   UNL     1      -3.293   1.760  22.729  0.00  0.00    +0.292 HD
ENDBRANCH  16   5
ENDBRANCH  13  14
ENDBRANCH   6  13
ENDBRANCH   8   6
BRANCH  10  12
ATOM     12  C   UNL     1       0.919   0.970  23.985  0.00  0.00    +0.138 C 
BRANCH  12   7
ATOM      4  O   UNL     1       0.100  -1.362  25.447  0.00  0.00    -0.270 OA
ATOM      7  N   UNL     1      -0.336   0.283  23.870  0.00  0.00    -0.309 N 
ATOM     15  C   UNL     1      -0.649  -0.845  24.623  0.00  0.00    +0.244 C 
ATOM     29  H   UNL     1      -0.973   0.618  23.156  0.00  0.00    +0.149 HD
BRANCH  15  18
ATOM      1  F   UNL     1      -5.676  -3.150  23.656  0.00  0.00    -0.205 F 
ATOM     18  C   UNL     1      -1.979  -1.455  24.368  0.00  0.00    +0.037 A 
ATOM     22  C   UNL     1      -3.078  -0.641  24.090  0.00  0.00    +0.016 A 
ATOM     23  C   UNL     1      -2.130  -2.841  24.405  0.00  0.00    +0.016 A 
ATOM     24  C   UNL     1      -4.327  -1.213  23.850  0.00  0.00    +0.039 A 
ATOM     25  C   UNL     1      -3.379  -3.414  24.165  0.00  0.00    +0.039 A 
ATOM     26  C   UNL     1      -4.478  -2.599  23.887  0.00  0.00    +0.123 A 
ENDBRANCH  15  18
ENDBRANCH  12   7
ENDBRANCH  10  12
TORSDOF 8
ENDMDL
MODEL 3
REMARK VINA RESULT:      -3.9      2.769      5.055
REMARK  Name = 75536643
REMARK  8 active torsions:
REMARK  status: ('A' for Active; 'I' for Inactive)
REMARK    1  A    between atoms: O_3  and  C_9
REMARK    2  A    between atoms: O_5  and  C_16
REMARK    3  A    between atoms: N_6  and  C_8
REMARK    4  A    between atoms: N_6  and  C_13
REMARK    5  A    between atoms: N_7  and  C_12
REMARK    6  A    between atoms: C_10  and  C_12
REMARK    7  A    between atoms: C_13  and  C_14
REMARK    8  A    between atoms: C_15  and  C_18
REMARK                            x       y       z     vdW  Elec       q    Type
REMARK                         _______ _______ _______ _____ _____    ______ ____
ROOT
ATOM      2  O   UNL     1      -4.181   3.839  26.878  0.00  0.00    -0.371 OA
ATOM      8  C   UNL     1      -2.341   4.469  25.513  0.00  0.00    +0.111 C 
ATOM      9  C   UNL     1      -3.454   3.938  24.629  0.00  0.00    +0.164 C 
ATOM     10  C   UNL     1      -4.660   4.096  25.547  0.00  0.00    +0.165 C 
ATOM     11  C   UNL     1      -2.745   3.913  26.870  0.00  0.00    +0.181 C 
ENDROOT
BRANCH   9   3
ATOM      3  O   UNL     1      -3.602   4.679  23.433  0.00  0.00    -0.388 OA
ATOM     28  H   UNL     1      -3.727   5.615  23.667  0.00  0.00    +0.210 HD
ENDBRANCH   9   3
BRANCH   8   6
ATOM      6  N   UNL     1      -1.015   4.044  25.100  0.00  0.00    -0.305 NA
ATOM     27  H   UNL     1      -0.381   4.843  25.143  0.00  0.00    +0.123 HD
BRANCH   6  13
ATOM     13  C   UNL     1      -0.506   2.990  25.968  0.00  0.00    +0.120 C 
BRANCH  13  14
ATOM     14  C   UNL     1      -0.296   1.699  25.220  0.00  0.00    +0.008 A 
ATOM     16  C   UNL     1       0.393   1.684  24.007  0.00  0.00    +0.121 A 
ATOM     17  C   UNL     1      -0.796   0.513  25.754  0.00  0.00    +0.008 A 
ATOM     19  C   UNL     1       0.579   0.479  23.327  0.00  0.00    +0.046 A 
ATOM     20  C   UNL     1      -0.610  -0.691  25.074  0.00  0.00    +0.001 A 
ATOM     21  C   UNL     1       0.077  -0.707  23.861  0.00  0.00    +0.004 A 
BRANCH  16   5
ATOM      5  O   UNL     1       0.889   2.833  23.472  0.00  0.00    -0.506 OA
ATOM     30  H   UNL     1       0.496   2.971  22.593  0.00  0.00    +0.292 HD
ENDBRANCH  16   5
ENDBRANCH  13  14
ENDBRANCH   6  13
ENDBRANCH   8   6
BRANCH  10  12
ATOM     12  C   UNL     1      -5.795   3.144  25.216  0.00  0.00    +0.138 C 
BRANCH  12   7
ATOM      4  O   UNL     1      -3.983   1.786  23.449  0.00  0.00    -0.270 OA
ATOM      7  N   UNL     1      -5.371   1.776  25.308  0.00  0.00    -0.309 N 
ATOM     15  C   UNL     1      -4.485   1.199  24.404  0.00  0.00    +0.244 C 
ATOM     29  H   UNL     1      -5.804   1.215  26.034  0.00  0.00    +0.149 HD
BRANCH  15  18
ATOM      1  F   UNL     1      -3.284  -4.223  25.231  0.00  0.00    -0.205 F 
ATOM     18  C   UNL     1      -4.167  -0.235  24.622  0.00  0.00    +0.037 A 
ATOM     22  C   UNL     1      -3.780  -0.679  25.888  0.00  0.00    +0.016 A 
ATOM     23  C   UNL     1      -4.255  -1.139  23.563  0.00  0.00    +0.016 A 
ATOM     24  C   UNL     1      -3.481  -2.025  26.093  0.00  0.00    +0.039 A 
ATOM     25  C   UNL     1      -3.956  -2.486  23.769  0.00  0.00    +0.039 A 
ATOM     26  C   UNL     1      -3.569  -2.929  25.034  0.00  0.00    +0.123 A 
ENDBRANCH  15  18
ENDBRANCH  12   7
ENDBRANCH  10  12
TORSDOF 8
ENDMDL
MODEL 4
REMARK VINA RESULT:      -3.8      2.671      5.593
REMARK  Name = 75536643
REMARK  8 active torsions:
REMARK  status: ('A' for Active; 'I' for Inactive)
REMARK    1  A    between atoms: O_3  and  C_9
REMARK    2  A    between atoms: O_5  and  C_16
REMARK    3  A    between atoms: N_6  and  C_8
REMARK    4  A    between atoms: N_6  and  C_13
REMARK    5  A    between atoms: N_7  and  C_12
REMARK    6  A    between atoms: C_10  and  C_12
REMARK    7  A    between atoms: C_13  and  C_14
REMARK    8  A    between atoms: C_15  and  C_18
REMARK                            x       y       z     vdW  Elec       q    Type
REMARK                         _______ _______ _______ _____ _____    ______ ____
ROOT
ATOM      2  O   UNL     1      -0.150   4.363  23.945  0.00  0.00    -0.371 OA
ATOM      8  C   UNL     1      -1.757   4.695  25.663  0.00  0.00    +0.111 C 
ATOM      9  C   UNL     1      -1.182   3.297  25.787  0.00  0.00    +0.164 C 
ATOM     10  C   UNL     1       0.124   3.446  25.018  0.00  0.00    +0.165 C 
ATOM     11  C   UNL     1      -1.381   5.049  24.232  0.00  0.00    +0.181 C 
ENDROOT
BRANCH   9   3
ATOM      3  O   UNL     1      -0.961   2.914  27.131  0.00  0.00    -0.388 OA
ATOM     28  H   UNL     1      -0.026   3.074  27.344  0.00  0.00    +0.210 HD
ENDBRANCH   9   3
BRANCH   8   6
ATOM      6  N   UNL     1      -3.188   4.762  25.905  0.00  0.00    -0.305 NA
ATOM     27  H   UNL     1      -3.431   5.705  26.211  0.00  0.00    +0.123 HD
BRANCH   6  13
ATOM     13  C   UNL     1      -3.941   4.449  24.697  0.00  0.00    +0.120 C 
BRANCH  13  14
ATOM     14  C   UNL     1      -4.229   2.975  24.581  0.00  0.00    +0.008 A 
ATOM     16  C   UNL     1      -5.177   2.369  25.406  0.00  0.00    +0.121 A 
ATOM     17  C   UNL     1      -3.539   2.217  23.636  0.00  0.00    +0.008 A 
ATOM     19  C   UNL     1      -5.433   1.002  25.286  0.00  0.00    +0.046 A 
ATOM     20  C   UNL     1      -3.795   0.851  23.517  0.00  0.00    +0.001 A 
ATOM     21  C   UNL     1      -4.742   0.244  24.341  0.00  0.00    +0.004 A 
BRANCH  16   5
ATOM      5  O   UNL     1      -5.861   3.094  26.333  0.00  0.00    -0.506 OA
ATOM     30  H   UNL     1      -5.883   4.027  26.055  0.00  0.00    +0.292 HD
ENDBRANCH  16   5
ENDBRANCH  13  14
ENDBRANCH   6  13
ENDBRANCH   8   6
BRANCH  10  12
ATOM     12  C   UNL     1       0.642   2.136  24.454  0.00  0.00    +0.138 C 
BRANCH  12   7
ATOM      4  O   UNL     1       0.799  -0.533  23.405  0.00  0.00    -0.270 OA
ATOM      7  N   UNL     1      -0.276   1.062  24.703  0.00  0.00    -0.309 N 
ATOM     15  C   UNL     1      -0.120  -0.206  24.149  0.00  0.00    +0.244 C 
ATOM     29  H   UNL     1      -1.097   1.285  25.254  0.00  0.00    +0.149 HD
BRANCH  15  18
ATOM      1  F   UNL     1      -4.092  -3.968  25.413  0.00  0.00    -0.205 F 
ATOM     18  C   UNL     1      -1.172  -1.200  24.483  0.00  0.00    +0.037 A 
ATOM     22  C   UNL     1      -1.405  -2.282  23.632  0.00  0.00    +0.016 A 
ATOM     23  C   UNL     1      -1.926  -1.055  25.648  0.00  0.00    +0.016 A 
ATOM     24  C   UNL     1      -2.391  -3.216  23.946  0.00  0.00    +0.039 A 
ATOM     25  C   UNL     1      -2.913  -1.989  25.962  0.00  0.00    +0.039 A 
ATOM     26  C   UNL     1      -3.146  -3.070  25.110  0.00  0.00    +0.123 A 
ENDBRANCH  15  18
ENDBRANCH  12   7
ENDBRANCH  10  12
TORSDOF 8
ENDMDL
MODEL 5
REMARK VINA RESULT:      -3.6      1.624      4.225
REMARK  Name = 75536643
REMARK  8 active torsions:
REMARK  status: ('A' for Active; 'I' for Inactive)
REMARK    1  A    between atoms: O_3  and  C_9
REMARK    2  A    between atoms: O_5  and  C_16
REMARK    3  A    between atoms: N_6  and  C_8
REMARK    4  A    between atoms: N_6  and  C_13
REMARK    5  A    between atoms: N_7  and  C_12
REMARK    6  A    between atoms: C_10  and  C_12
REMARK    7  A    between atoms: C_13  and  C_14
REMARK    8  A    between atoms: C_15  and  C_18
REMARK                            x       y       z     vdW  Elec       q    Type
REMARK                         _______ _______ _______ _____ _____    ______ ____
ROOT
ATOM      2  O   UNL     1      -2.108  -1.490  26.760  0.00  0.00    -0.371 OA
ATOM      8  C   UNL     1      -3.469  -2.260  24.971  0.00  0.00    +0.111 C 
ATOM      9  C   UNL     1      -2.084  -1.944  24.438  0.00  0.00    +0.164 C 
ATOM     10  C   UNL     1      -1.257  -1.997  25.717  0.00  0.00    +0.165 C 
ATOM     11  C   UNL     1      -3.466  -1.498  26.287  0.00  0.00    +0.181 C 
ENDROOT
BRANCH   9   3
ATOM      3  O   UNL     1      -1.637  -2.886  23.483  0.00  0.00    -0.388 OA
ATOM     28  H   UNL     1      -0.666  -2.919  23.517  0.00  0.00    +0.210 HD
ENDBRANCH   9   3
BRANCH   8   6
ATOM      6  N   UNL     1      -4.543  -1.852  24.083  0.00  0.00    -0.305 NA
ATOM     27  H   UNL     1      -5.347  -1.565  24.642  0.00  0.00    +0.123 HD
BRANCH   6  13
ATOM     13  C   UNL     1      -4.133  -0.736  23.239  0.00  0.00    +0.120 C 
BRANCH  13  14
ATOM     14  C   UNL     1      -4.448   0.593  23.874  0.00  0.00    +0.008 A 
ATOM     16  C   UNL     1      -3.822   1.759  23.431  0.00  0.00    +0.121 A 
ATOM     17  C   UNL     1      -5.376   0.651  24.912  0.00  0.00    +0.008 A 
ATOM     19  C   UNL     1      -4.125   2.983  24.029  0.00  0.00    +0.046 A 
ATOM     20  C   UNL     1      -5.679   1.874  25.510  0.00  0.00    +0.001 A 
ATOM     21  C   UNL     1      -5.053   3.040  25.069  0.00  0.00    +0.004 A 
BRANCH  16   5
ATOM      5  O   UNL     1      -2.914   1.721  22.417  0.00  0.00    -0.506 OA
ATOM     30  H   UNL     1      -2.762   2.625  22.091  0.00  0.00    +0.292 HD
ENDBRANCH  16   5
ENDBRANCH  13  14
ENDBRANCH   6  13
ENDBRANCH   8   6
BRANCH  10  12
ATOM     12  C   UNL     1       0.014  -1.171  25.645  0.00  0.00    +0.138 C 
BRANCH  12   7
ATOM      4  O   UNL     1      -0.077   0.590  23.377  0.00  0.00    -0.270 OA
ATOM      7  N   UNL     1      -0.276   0.235  25.662  0.00  0.00    -0.309 N 
ATOM     15  C   UNL     1      -0.298   1.013  24.508  0.00  0.00    +0.244 C 
ATOM     29  H   UNL     1      -0.399   0.662  26.573  0.00  0.00    +0.149 HD
BRANCH  15  18
ATOM      1  F   UNL     1      -1.400   6.472  25.222  0.00  0.00    -0.205 F 
ATOM     18  C   UNL     1      -0.589   2.457  24.698  0.00  0.00    +0.037 A 
ATOM     22  C   UNL     1      -0.100   3.393  23.785  0.00  0.00    +0.016 A 
ATOM     23  C   UNL     1      -1.353   2.879  25.787  0.00  0.00    +0.016 A 
ATOM     24  C   UNL     1      -0.373   4.749  23.963  0.00  0.00    +0.039 A 
ATOM     25  C   UNL     1      -1.626   4.235  25.964  0.00  0.00    +0.039 A 
ATOM     26  C   UNL     1      -1.136   5.171  25.052  0.00  0.00    +0.123 A 
ENDBRANCH  15  18
ENDBRANCH  12   7
ENDBRANCH  10  12
TORSDOF 8
ENDMDL
MODEL 6
REMARK VINA RESULT:      -3.0      2.932      5.346
REMARK  Name = 75536643
REMARK  8 active torsions:
REMARK  status: ('A' for Active; 'I' for Inactive)
REMARK    1  A    between atoms: O_3  and  C_9
REMARK    2  A    between atoms: O_5  and  C_16
REMARK    3  A    between atoms: N_6  and  C_8
REMARK    4  A    between atoms: N_6  and  C_13
REMARK    5  A    between atoms: N_7  and  C_12
REMARK    6  A    between atoms: C_10  and  C_12
REMARK    7  A    between atoms: C_13  and  C_14
REMARK    8  A    between atoms: C_15  and  C_18
REMARK                            x       y       z     vdW  Elec       q    Type
REMARK                         _______ _______ _______ _____ _____    ______ ____
ROOT
ATOM      2  O   UNL     1      -5.251   3.254  26.447  0.00  0.00    -0.371 OA
ATOM      8  C   UNL     1      -3.869   4.475  24.949  0.00  0.00    +0.111 C 
ATOM      9  C   UNL     1      -4.195   3.127  24.334  0.00  0.00    +0.164 C 
ATOM     10  C   UNL     1      -5.442   2.739  25.118  0.00  0.00    +0.165 C 
ATOM     11  C   UNL     1      -4.188   4.222  26.414  0.00  0.00    +0.181 C 
ENDROOT
BRANCH   9   3
ATOM      3  O   UNL     1      -4.450   3.206  22.945  0.00  0.00    -0.388 OA
ATOM     28  H   UNL     1      -4.370   2.314  22.568  0.00  0.00    +0.210 HD
ENDBRANCH   9   3
BRANCH   8   6
ATOM      6  N   UNL     1      -2.496   4.899  24.733  0.00  0.00    -0.305 NA
ATOM     27  H   UNL     1      -2.413   5.889  24.966  0.00  0.00    +0.123 HD
BRANCH   6  13
ATOM     13  C   UNL     1      -1.574   4.138  25.566  0.00  0.00    +0.120 C 
BRANCH  13  14
ATOM     14  C   UNL     1      -0.992   2.960  24.829  0.00  0.00    +0.008 A 
ATOM     16  C   UNL     1       0.128   2.294  25.325  0.00  0.00    +0.121 A 
ATOM     17  C   UNL     1      -1.586   2.538  23.640  0.00  0.00    +0.008 A 
ATOM     19  C   UNL     1       0.654   1.204  24.631  0.00  0.00    +0.046 A 
ATOM     20  C   UNL     1      -1.059   1.449  22.947  0.00  0.00    +0.001 A 
ATOM     21  C   UNL     1       0.060   0.782  23.441  0.00  0.00    +0.004 A 
BRANCH  16   5
ATOM      5  O   UNL     1       0.720   2.691  26.485  0.00  0.00    -0.506 OA
ATOM     30  H   UNL     1       0.087   3.222  27.000  0.00  0.00    +0.292 HD
ENDBRANCH  16   5
ENDBRANCH  13  14
ENDBRANCH   6  13
ENDBRANCH   8   6
BRANCH  10  12
ATOM     12  C   UNL     1      -5.672   1.240  25.177  0.00  0.00    +0.138 C 
BRANCH  12   7
ATOM      4  O   UNL     1      -4.881  -1.154  23.801  0.00  0.00    -0.270 OA
ATOM      7  N   UNL     1      -4.437   0.528  25.337  0.00  0.00    -0.309 N 
ATOM     15  C   UNL     1      -4.136  -0.629  24.625  0.00  0.00    +0.244 C 
ATOM     29  H   UNL     1      -3.806   0.870  26.053  0.00  0.00    +0.149 HD
BRANCH  15  18
ATOM      1  F   UNL     1       0.815  -3.021  25.759  0.00  0.00    -0.205 F 
ATOM     18  C   UNL     1      -2.826  -1.261  24.924  0.00  0.00    +0.037 A 
ATOM     22  C   UNL     1      -2.025  -0.755  25.949  0.00  0.00    +0.016 A 
ATOM     23  C   UNL     1      -2.397  -2.362  24.183  0.00  0.00    +0.016 A 
ATOM     24  C   UNL     1      -0.795  -1.348  26.230  0.00  0.00    +0.039 A 
ATOM     25  C   UNL     1      -1.166  -2.956  24.464  0.00  0.00    +0.039 A 
ATOM     26  C   UNL     1      -0.365  -2.449  25.488  0.00  0.00    +0.123 A 
ENDBRANCH  15  18
ENDBRANCH  12   7
ENDBRANCH  10  12
TORSDOF 8
ENDMDL
MODEL 7
REMARK VINA RESULT:      -3.0      1.766      4.371
REMARK  Name = 75536643
REMARK  8 active torsions:
REMARK  status: ('A' for Active; 'I' for Inactive)
REMARK    1  A    between atoms: O_3  and  C_9
REMARK    2  A    between atoms: O_5  and  C_16
REMARK    3  A    between atoms: N_6  and  C_8
REMARK    4  A    between atoms: N_6  and  C_13
REMARK    5  A    between atoms: N_7  and  C_12
REMARK    6  A    between atoms: C_10  and  C_12
REMARK    7  A    between atoms: C_13  and  C_14
REMARK    8  A    between atoms: C_15  and  C_18
REMARK                            x       y       z     vdW  Elec       q    Type
REMARK                         _______ _______ _______ _____ _____    ______ ____
ROOT
ATOM      2  O   UNL     1      -1.830  -2.537  25.117  0.00  0.00    -0.371 OA
ATOM      8  C   UNL     1      -3.794  -1.641  24.125  0.00  0.00    +0.111 C 
ATOM      9  C   UNL     1      -2.609  -0.773  23.746  0.00  0.00    +0.164 C 
ATOM     10  C   UNL     1      -1.452  -1.735  23.985  0.00  0.00    +0.165 C 
ATOM     11  C   UNL     1      -3.244  -2.391  25.329  0.00  0.00    +0.181 C 
ENDROOT
BRANCH   9   3
ATOM      3  O   UNL     1      -2.661  -0.336  22.402  0.00  0.00    -0.388 OA
ATOM     28  H   UNL     1      -1.947  -0.776  21.910  0.00  0.00    +0.210 HD
ENDBRANCH   9   3
BRANCH   8   6
ATOM      6  N   UNL     1      -4.997  -0.886  24.430  0.00  0.00    -0.305 NA
ATOM     27  H   UNL     1      -5.745  -1.535  24.678  0.00  0.00    +0.123 HD
BRANCH   6  13
ATOM     13  C   UNL     1      -4.777   0.028  25.544  0.00  0.00    +0.120 C 
BRANCH  13  14
ATOM     14  C   UNL     1      -4.789   1.467  25.101  0.00  0.00    +0.008 A 
ATOM     16  C   UNL     1      -5.535   2.419  25.796  0.00  0.00    +0.121 A 
ATOM     17  C   UNL     1      -4.043   1.844  23.984  0.00  0.00    +0.008 A 
ATOM     19  C   UNL     1      -5.535   3.749  25.373  0.00  0.00    +0.046 A 
ATOM     20  C   UNL     1      -4.044   3.173  23.562  0.00  0.00    +0.001 A 
ATOM     21  C   UNL     1      -4.790   4.125  24.255  0.00  0.00    +0.004 A 
BRANCH  16   5
ATOM      5  O   UNL     1      -6.268   2.069  26.889  0.00  0.00    -0.506 OA
ATOM     30  H   UNL     1      -6.459   2.866  27.413  0.00  0.00    +0.292 HD
ENDBRANCH  16   5
ENDBRANCH  13  14
ENDBRANCH   6  13
ENDBRANCH   8   6
BRANCH  10  12
ATOM     12  C   UNL     1      -0.137  -1.032  24.269  0.00  0.00    +0.138 C 
BRANCH  12   7
ATOM      4  O   UNL     1      -1.045   0.529  26.502  0.00  0.00    -0.270 OA
ATOM      7  N   UNL     1      -0.304   0.393  24.307  0.00  0.00    -0.309 N 
ATOM     15  C   UNL     1      -0.751   1.069  25.438  0.00  0.00    +0.244 C 
ATOM     29  H   UNL     1      -0.145   0.892  23.439  0.00  0.00    +0.149 HD
BRANCH  15  18
ATOM      1  F   UNL     1      -1.295   6.635  24.946  0.00  0.00    -0.205 F 
ATOM     18  C   UNL     1      -0.896   2.541  25.308  0.00  0.00    +0.037 A 
ATOM     22  C   UNL     1      -1.749   3.238  26.165  0.00  0.00    +0.016 A 
ATOM     23  C   UNL     1      -0.179   3.229  24.328  0.00  0.00    +0.016 A 
ATOM     24  C   UNL     1      -1.884   4.620  26.043  0.00  0.00    +0.039 A 
ATOM     25  C   UNL     1      -0.314   4.612  24.206  0.00  0.00    +0.039 A 
ATOM     26  C   UNL     1      -1.167   5.307  25.063  0.00  0.00    +0.123 A 
ENDBRANCH  15  18
ENDBRANCH  12   7
ENDBRANCH  10  12
TORSDOF 8
ENDMDL
MODEL 8
REMARK VINA RESULT:      -2.9      3.938      6.814
REMARK  Name = 75536643
REMARK  8 active torsions:
REMARK  status: ('A' for Active; 'I' for Inactive)
REMARK    1  A    between atoms: O_3  and  C_9
REMARK    2  A    between atoms: O_5  and  C_16
REMARK    3  A    between atoms: N_6  and  C_8
REMARK    4  A    between atoms: N_6  and  C_13
REMARK    5  A    between atoms: N_7  and  C_12
REMARK    6  A    between atoms: C_10  and  C_12
REMARK    7  A    between atoms: C_13  and  C_14
REMARK    8  A    between atoms: C_15  and  C_18
REMARK                            x       y       z     vdW  Elec       q    Type
REMARK                         _______ _______ _______ _____ _____    ______ ____
ROOT
ATOM      2  O   UNL     1      -0.990  -0.352  25.550  0.00  0.00    -0.371 OA
ATOM      8  C   UNL     1      -3.259  -1.003  25.817  0.00  0.00    +0.111 C 
ATOM      9  C   UNL     1      -2.811  -1.341  24.407  0.00  0.00    +0.164 C 
ATOM     10  C   UNL     1      -1.298  -1.367  24.579  0.00  0.00    +0.165 C 
ATOM     11  C   UNL     1      -2.202   0.008  26.235  0.00  0.00    +0.181 C 
ENDROOT
BRANCH   9   3
ATOM      3  O   UNL     1      -3.312  -2.585  23.958  0.00  0.00    -0.388 OA
ATOM     28  H   UNL     1      -2.755  -3.290  24.330  0.00  0.00    +0.210 HD
ENDBRANCH   9   3
BRANCH   8   6
ATOM      6  N   UNL     1      -4.610  -0.472  25.888  0.00  0.00    -0.305 NA
ATOM     27  H   UNL     1      -4.663   0.202  26.653  0.00  0.00    +0.123 HD
BRANCH   6  13
ATOM     13  C   UNL     1      -4.979   0.195  24.646  0.00  0.00    +0.120 C 
BRANCH  13  14
ATOM     14  C   UNL     1      -4.735   1.680  24.712  0.00  0.00    +0.008 A 
ATOM     16  C   UNL     1      -5.483   2.486  25.571  0.00  0.00    +0.121 A 
ATOM     17  C   UNL     1      -3.750   2.247  23.904  0.00  0.00    +0.008 A 
ATOM     19  C   UNL     1      -5.244   3.860  25.621  0.00  0.00    +0.046 A 
ATOM     20  C   UNL     1      -3.513   3.620  23.954  0.00  0.00    +0.001 A 
ATOM     21  C   UNL     1      -4.259   4.427  24.812  0.00  0.00    +0.004 A 
BRANCH  16   5
ATOM      5  O   UNL     1      -6.447   1.949  26.368  0.00  0.00    -0.506 OA
ATOM     30  H   UNL     1      -6.614   2.551  27.115  0.00  0.00    +0.292 HD
ENDBRANCH  16   5
ENDBRANCH  13  14
ENDBRANCH   6  13
ENDBRANCH   8   6
BRANCH  10  12
ATOM     12  C   UNL     1      -0.543  -1.092  23.291  0.00  0.00    +0.138 C 
BRANCH  12   7
ATOM      4  O   UNL     1       1.441  -0.313  21.366  0.00  0.00    -0.270 OA
ATOM      7  N   UNL     1       0.849  -0.848  23.545  0.00  0.00    -0.309 N 
ATOM     15  C   UNL     1       1.742  -0.472  22.546  0.00  0.00    +0.244 C 
ATOM     29  H   UNL     1       1.178  -1.029  24.486  0.00  0.00    +0.149 HD
BRANCH  15  18
ATOM      1  F   UNL     1       7.080   0.244  24.132  0.00  0.00    -0.205 F 
ATOM     18  C   UNL     1       3.153  -0.282  22.966  0.00  0.00    +0.037 A 
ATOM     22  C   UNL     1       3.831  -1.312  23.620  0.00  0.00    +0.016 A 
ATOM     23  C   UNL     1       3.803   0.925  22.706  0.00  0.00    +0.016 A 
ATOM     24  C   UNL     1       5.157  -1.135  24.015  0.00  0.00    +0.039 A 
ATOM     25  C   UNL     1       5.129   1.103  23.101  0.00  0.00    +0.039 A 
ATOM     26  C   UNL     1       5.806   0.073  23.755  0.00  0.00    +0.123 A 
ENDBRANCH  15  18
ENDBRANCH  12   7
ENDBRANCH  10  12
TORSDOF 8
ENDMDL
MODEL 9
REMARK VINA RESULT:      -2.8      3.781      6.310
REMARK  Name = 75536643
REMARK  8 active torsions:
REMARK  status: ('A' for Active; 'I' for Inactive)
REMARK    1  A    between atoms: O_3  and  C_9
REMARK    2  A    between atoms: O_5  and  C_16
REMARK    3  A    between atoms: N_6  and  C_8
REMARK    4  A    between atoms: N_6  and  C_13
REMARK    5  A    between atoms: N_7  and  C_12
REMARK    6  A    between atoms: C_10  and  C_12
REMARK    7  A    between atoms: C_13  and  C_14
REMARK    8  A    between atoms: C_15  and  C_18
REMARK                            x       y       z     vdW  Elec       q    Type
REMARK                         _______ _______ _______ _____ _____    ______ ____
ROOT
ATOM      2  O   UNL     1      -0.966  -0.602  25.436  0.00  0.00    -0.371 OA
ATOM      8  C   UNL     1      -3.330  -0.541  25.662  0.00  0.00    +0.111 C 
ATOM      9  C   UNL     1      -2.979  -1.007  24.261  0.00  0.00    +0.164 C 
ATOM     10  C   UNL     1      -1.547  -1.485  24.460  0.00  0.00    +0.165 C 
ATOM     11  C   UNL     1      -2.026   0.109  26.098  0.00  0.00    +0.181 C 
ENDROOT
BRANCH   9   3
ATOM      3  O   UNL     1      -3.822  -2.046  23.804  0.00  0.00    -0.388 OA
ATOM     28  H   UNL     1      -4.526  -2.180  24.462  0.00  0.00    +0.210 HD
ENDBRANCH   9   3
BRANCH   8   6
ATOM      6  N   UNL     1      -4.460   0.371  25.708  0.00  0.00    -0.305 NA
ATOM     27  H   UNL     1      -4.420   0.908  26.576  0.00  0.00    +0.123 HD
BRANCH   6  13
ATOM     13  C   UNL     1      -4.437   1.295  24.581  0.00  0.00    +0.120 C 
BRANCH  13  14
ATOM     14  C   UNL     1      -3.536   2.474  24.839  0.00  0.00    +0.008 A 
ATOM     16  C   UNL     1      -2.401   2.687  24.057  0.00  0.00    +0.121 A 
ATOM     17  C   UNL     1      -3.848   3.357  25.872  0.00  0.00    +0.008 A 
ATOM     19  C   UNL     1      -1.577   3.785  24.309  0.00  0.00    +0.046 A 
ATOM     20  C   UNL     1      -3.024   4.454  26.123  0.00  0.00    +0.001 A 
ATOM     21  C   UNL     1      -1.889   4.668  25.342  0.00  0.00    +0.004 A 
BRANCH  16   5
ATOM      5  O   UNL     1      -2.082   1.835  23.044  0.00  0.00    -0.506 OA
ATOM     30  H   UNL     1      -2.218   2.287  22.193  0.00  0.00    +0.292 HD
ENDBRANCH  16   5
ENDBRANCH  13  14
ENDBRANCH   6  13
ENDBRANCH   8   6
BRANCH  10  12
ATOM     12  C   UNL     1      -0.722  -1.456  23.187  0.00  0.00    +0.138 C 
BRANCH  12   7
ATOM      4  O   UNL     1       1.183  -0.355  21.341  0.00  0.00    -0.270 OA
ATOM      7  N   UNL     1       0.649  -1.134  23.460  0.00  0.00    -0.309 N 
ATOM     15  C   UNL     1       1.504  -0.600  22.500  0.00  0.00    +0.244 C 
ATOM     29  H   UNL     1       0.998  -1.378  24.381  0.00  0.00    +0.149 HD
BRANCH  15  18
ATOM      1  F   UNL     1       6.787   0.359  24.142  0.00  0.00    -0.205 F 
ATOM     18  C   UNL     1       2.901  -0.346  22.935  0.00  0.00    +0.037 A 
ATOM     22  C   UNL     1       3.608  -1.333  23.625  0.00  0.00    +0.016 A 
ATOM     23  C   UNL     1       3.508   0.878  22.654  0.00  0.00    +0.016 A 
ATOM     24  C   UNL     1       4.919  -1.094  24.033  0.00  0.00    +0.039 A 
ATOM     25  C   UNL     1       4.821   1.117  23.062  0.00  0.00    +0.039 A 
ATOM     26  C   UNL     1       5.526   0.130  23.752  0.00  0.00    +0.123 A 
ENDBRANCH  15  18
ENDBRANCH  12   7
ENDBRANCH  10  12
TORSDOF 8
ENDMDL
MODEL 10
REMARK VINA RESULT:      -2.1      2.908      5.503
REMARK  Name = 75536643
REMARK  8 active torsions:
REMARK  status: ('A' for Active; 'I' for Inactive)
REMARK    1  A    between atoms: O_3  and  C_9
REMARK    2  A    between atoms: O_5  and  C_16
REMARK    3  A    between atoms: N_6  and  C_8
REMARK    4  A    between atoms: N_6  and  C_13
REMARK    5  A    between atoms: N_7  and  C_12
REMARK    6  A    between atoms: C_10  and  C_12
REMARK    7  A    between atoms: C_13  and  C_14
REMARK    8  A    between atoms: C_15  and  C_18
REMARK                            x       y       z     vdW  Elec       q    Type
REMARK                         _______ _______ _______ _____ _____    ______ ____
ROOT
ATOM      2  O   UNL     1      -5.557   0.357  25.376  0.00  0.00    -0.371 OA
ATOM      8  C   UNL     1      -5.162   2.612  24.740  0.00  0.00    +0.111 C 
ATOM      9  C   UNL     1      -3.952   1.774  24.370  0.00  0.00    +0.164 C 
ATOM     10  C   UNL     1      -4.559   0.378  24.341  0.00  0.00    +0.165 C 
ATOM     11  C   UNL     1      -5.851   1.712  25.755  0.00  0.00    +0.181 C 
ENDROOT
BRANCH   9   3
ATOM      3  O   UNL     1      -3.400   2.135  23.119  0.00  0.00    -0.388 OA
ATOM     28  H   UNL     1      -4.059   2.660  22.634  0.00  0.00    +0.210 HD
ENDBRANCH   9   3
BRANCH   8   6
ATOM      6  N   UNL     1      -4.825   3.918  25.279  0.00  0.00    -0.305 NA
ATOM     27  H   UNL     1      -5.653   4.321  25.719  0.00  0.00    +0.123 HD
BRANCH   6  13
ATOM     13  C   UNL     1      -3.762   3.820  26.271  0.00  0.00    +0.120 C 
BRANCH  13  14
ATOM     14  C   UNL     1      -2.419   4.180  25.694  0.00  0.00    +0.008 A 
ATOM     16  C   UNL     1      -1.379   3.249  25.676  0.00  0.00    +0.121 A 
ATOM     17  C   UNL     1      -2.220   5.457  25.172  0.00  0.00    +0.008 A 
ATOM     19  C   UNL     1      -0.141   3.598  25.137  0.00  0.00    +0.046 A 
ATOM     20  C   UNL     1      -0.982   5.806  24.633  0.00  0.00    +0.001 A 
ATOM     21  C   UNL     1       0.057   4.877  24.616  0.00  0.00    +0.004 A 
BRANCH  16   5
ATOM      5  O   UNL     1      -1.556   1.997  26.180  0.00  0.00    -0.506 OA
ATOM     30  H   UNL     1      -1.947   1.429  25.493  0.00  0.00    +0.292 HD
ENDBRANCH  16   5
ENDBRANCH  13  14
ENDBRANCH   6  13
ENDBRANCH   8   6
BRANCH  10  12
ATOM     12  C   UNL     1      -3.543  -0.724  24.586  0.00  0.00    +0.138 C 
BRANCH  12   7
ATOM      4  O   UNL     1      -0.930  -1.051  25.731  0.00  0.00    -0.270 OA
ATOM      7  N   UNL     1      -2.288  -0.425  23.957  0.00  0.00    -0.309 N 
ATOM     15  C   UNL     1      -1.064  -0.616  24.590  0.00  0.00    +0.244 C 
ATOM     29  H   UNL     1      -2.331   0.004  23.039  0.00  0.00    +0.149 HD
BRANCH  15  18
ATOM      1  F   UNL     1       3.496   0.830  21.651  0.00  0.00    -0.205 F 
ATOM     18  C   UNL     1       0.143  -0.234  23.813  0.00  0.00    +0.037 A 
ATOM     22  C   UNL     1       0.469  -0.926  22.645  0.00  0.00    +0.016 A 
ATOM     23  C   UNL     1       0.951   0.816  24.250  0.00  0.00    +0.016 A 
ATOM     24  C   UNL     1       1.601  -0.567  21.916  0.00  0.00    +0.039 A 
ATOM     25  C   UNL     1       2.084   1.175  23.520  0.00  0.00    +0.039 A 
ATOM     26  C   UNL     1       2.409   0.483  22.352  0.00  0.00    +0.123 A 
ENDBRANCH  15  18
ENDBRANCH  12   7
ENDBRANCH  10  12
TORSDOF 8
ENDMDL
