MODEL 1
REMARK VINA RESULT:       1.0      0.000      0.000
REMARK  Name = 45360936
REMARK  11 active torsions:
REMARK  status: ('A' for Active; 'I' for Inactive)
REMARK    1  A    between atoms: O_3  and  C_26
REMARK    2  A    between atoms: O_4  and  C_33
REMARK    3  A    between atoms: O_4  and  C_34
REMARK    4  A    between atoms: N_5  and  C_16
REMARK    5  A    between atoms: N_6  and  C_18
REMARK    6  A    between atoms: N_8  and  C_27
REMARK    7  A    between atoms: C_13  and  C_17
REMARK    8  A    between atoms: C_16  and  C_20
REMARK    9  A    between atoms: C_17  and  C_19
REMARK   10  A    between atoms: C_19  and  C_21
REMARK   11  A    between atoms: C_27  and  C_28
REMARK                            x       y       z     vdW  Elec       q    Type
REMARK                         _______ _______ _______ _____ _____    ______ ____
ROOT
ATOM      1  O   UNL     1      -1.167   1.992  23.481  0.00  0.00    -0.274 OA
ATOM      5  N   UNL     1       0.142  -0.348  23.807  0.00  0.00    -0.286 NA
ATOM      6  N   UNL     1      -3.138  -0.748  25.379  0.00  0.00    -0.296 NA
ATOM      7  N   UNL     1      -3.209   1.029  23.107  0.00  0.00    -0.312 N 
ATOM      9  C   UNL     1      -1.913  -1.257  24.723  0.00  0.00    +0.084 C 
ATOM     10  C   UNL     1      -1.307  -0.438  23.546  0.00  0.00    +0.161 C 
ATOM     11  C   UNL     1      -0.708  -1.396  25.671  0.00  0.00    +0.036 C 
ATOM     12  C   UNL     1       0.479  -1.425  24.731  0.00  0.00    +0.087 C 
ATOM     13  C   UNL     1      -4.333  -0.690  24.492  0.00  0.00    +0.074 C 
ATOM     14  C   UNL     1      -1.858   0.978  23.393  0.00  0.00    +0.232 C 
ATOM     15  C   UNL     1      -4.066  -0.140  23.078  0.00  0.00    +0.123 C 
ATOM     18  C   UNL     1      -3.442  -1.523  26.594  0.00  0.00    +0.105 C 
ATOM     35  H   UNL     1      -3.635   1.941  22.971  0.00  0.00    +0.149 HD
ENDROOT
BRANCH   5  16
ATOM     16  C   UNL     1       0.951  -0.393  22.595  0.00  0.00    +0.120 C 
BRANCH  16  20
ATOM     20  C   UNL     1       2.420  -0.262  22.896  0.00  0.00    -0.033 A 
ATOM     22  C   UNL     1       3.116  -1.334  23.455  0.00  0.00    +0.008 A 
ATOM     23  C   UNL     1       3.085   0.932  22.617  0.00  0.00    +0.008 A 
ATOM     24  C   UNL     1       4.477  -1.212  23.735  0.00  0.00    +0.046 A 
ATOM     25  C   UNL     1       4.446   1.054  22.898  0.00  0.00    +0.046 A 
ATOM     26  C   UNL     1       5.142  -0.018  23.456  0.00  0.00    +0.117 A 
BRANCH  26   3
ATOM      3  O   UNL     1       6.470   0.100  23.728  0.00  0.00    -0.507 OA
ATOM     37  H   UNL     1       6.620   0.934  24.207  0.00  0.00    +0.292 HD
ENDBRANCH  26   3
ENDBRANCH  16  20
ENDBRANCH   5  16
BRANCH  13  17
ATOM     17  C   UNL     1      -5.435   0.183  25.128  0.00  0.00    +0.029 C 
BRANCH  17  19
ATOM     19  C   UNL     1      -5.594   1.486  24.368  0.00  0.00    +0.097 C 
BRANCH  19  21
ATOM      2  O   UNL     1      -5.267   2.987  26.240  0.00  0.00    -0.276 OA
ATOM      8  N   UNL     1      -3.969   3.258  24.334  0.00  0.00    -0.311 N 
ATOM     21  C   UNL     1      -4.947   2.646  25.104  0.00  0.00    +0.213 C 
ATOM     36  H   UNL     1      -3.784   2.929  23.392  0.00  0.00    +0.149 HD
BRANCH   8  27
ATOM     27  C   UNL     1      -3.208   4.389  24.811  0.00  0.00    +0.139 C 
BRANCH  27  28
ATOM     28  C   UNL     1      -1.923   3.962  25.471  0.00  0.00    -0.030 A 
ATOM     29  C   UNL     1      -1.942   2.984  26.466  0.00  0.00    +0.009 A 
ATOM     30  C   UNL     1      -0.715   4.543  25.087  0.00  0.00    +0.009 A 
ATOM     31  C   UNL     1      -0.752   2.587  27.077  0.00  0.00    +0.046 A 
ATOM     32  C   UNL     1       0.474   4.146  25.697  0.00  0.00    +0.046 A 
ATOM     33  C   UNL     1       0.456   3.170  26.693  0.00  0.00    +0.120 A 
BRANCH  33   4
ATOM      4  O   UNL     1       1.616   2.783  27.289  0.00  0.00    -0.495 OA
ATOM     34  C   UNL     1       1.606   2.655  28.710  0.00  0.00    +0.277 C 
ENDBRANCH  33   4
ENDBRANCH  27  28
ENDBRANCH   8  27
ENDBRANCH  19  21
ENDBRANCH  17  19
ENDBRANCH  13  17
TORSDOF 9
ENDMDL
MODEL 2
REMARK VINA RESULT:       1.2      1.707      4.123
REMARK  Name = 45360936
REMARK  11 active torsions:
REMARK  status: ('A' for Active; 'I' for Inactive)
REMARK    1  A    between atoms: O_3  and  C_26
REMARK    2  A    between atoms: O_4  and  C_33
REMARK    3  A    between atoms: O_4  and  C_34
REMARK    4  A    between atoms: N_5  and  C_16
REMARK    5  A    between atoms: N_6  and  C_18
REMARK    6  A    between atoms: N_8  and  C_27
REMARK    7  A    between atoms: C_13  and  C_17
REMARK    8  A    between atoms: C_16  and  C_20
REMARK    9  A    between atoms: C_17  and  C_19
REMARK   10  A    between atoms: C_19  and  C_21
REMARK   11  A    between atoms: C_27  and  C_28
REMARK                            x       y       z     vdW  Elec       q    Type
REMARK                         _______ _______ _______ _____ _____    ______ ____
ROOT
ATOM      1  O   UNL     1       0.758   2.320  26.169  0.00  0.00    -0.274 OA
ATOM      5  N   UNL     1       0.820   1.554  23.580  0.00  0.00    -0.286 NA
ATOM      6  N   UNL     1      -2.607   2.632  24.278  0.00  0.00    -0.296 NA
ATOM      7  N   UNL     1      -0.652   4.089  25.822  0.00  0.00    -0.312 N 
ATOM      9  C   UNL     1      -1.456   2.376  23.385  0.00  0.00    +0.084 C 
ATOM     10  C   UNL     1      -0.027   2.720  23.899  0.00  0.00    +0.161 C 
ATOM     11  C   UNL     1      -1.302   0.902  22.970  0.00  0.00    +0.036 C 
ATOM     12  C   UNL     1       0.143   0.810  22.525  0.00  0.00    +0.087 C 
ATOM     13  C   UNL     1      -2.817   4.068  24.617  0.00  0.00    +0.074 C 
ATOM     14  C   UNL     1       0.072   2.991  25.399  0.00  0.00    +0.232 C 
ATOM     15  C   UNL     1      -1.533   4.849  24.957  0.00  0.00    +0.123 C 
ATOM     18  C   UNL     1      -3.841   2.055  23.720  0.00  0.00    +0.105 C 
ATOM     35  H   UNL     1      -0.612   4.338  26.806  0.00  0.00    +0.149 HD
ENDROOT
BRANCH   5  16
ATOM     16  C   UNL     1       2.183   1.915  23.209  0.00  0.00    +0.120 C 
BRANCH  16  20
ATOM     20  C   UNL     1       3.133   0.760  23.377  0.00  0.00    -0.033 A 
ATOM     22  C   UNL     1       2.639  -0.539  23.499  0.00  0.00    +0.008 A 
ATOM     23  C   UNL     1       4.509   0.989  23.410  0.00  0.00    +0.008 A 
ATOM     24  C   UNL     1       3.520  -1.609  23.655  0.00  0.00    +0.046 A 
ATOM     25  C   UNL     1       5.389  -0.082  23.567  0.00  0.00    +0.046 A 
ATOM     26  C   UNL     1       4.895  -1.380  23.689  0.00  0.00    +0.117 A 
BRANCH  26   3
ATOM      3  O   UNL     1       5.755  -2.424  23.840  0.00  0.00    -0.507 OA
ATOM     37  H   UNL     1       6.314  -2.489  23.046  0.00  0.00    +0.292 HD
ENDBRANCH  26   3
ENDBRANCH  16  20
ENDBRANCH   5  16
BRANCH  13  17
ATOM     17  C   UNL     1      -3.774   4.204  25.820  0.00  0.00    +0.029 C 
BRANCH  17  19
ATOM     19  C   UNL     1      -5.204   3.916  25.404  0.00  0.00    +0.097 C 
BRANCH  19  21
ATOM      2  O   UNL     1      -6.212   2.296  26.895  0.00  0.00    -0.276 OA
ATOM      8  N   UNL     1      -5.319   1.573  24.878  0.00  0.00    -0.311 N 
ATOM     21  C   UNL     1      -5.643   2.527  25.831  0.00  0.00    +0.213 C 
ATOM     36  H   UNL     1      -4.824   1.844  24.035  0.00  0.00    +0.149 HD
BRANCH   8  27
ATOM     27  C   UNL     1      -5.631   0.173  25.051  0.00  0.00    +0.139 C 
BRANCH  27  28
ATOM     28  C   UNL     1      -4.396  -0.688  24.994  0.00  0.00    -0.030 A 
ATOM     29  C   UNL     1      -3.333  -0.442  25.862  0.00  0.00    +0.009 A 
ATOM     30  C   UNL     1      -4.318  -1.733  24.073  0.00  0.00    +0.009 A 
ATOM     31  C   UNL     1      -2.190  -1.240  25.810  0.00  0.00    +0.046 A 
ATOM     32  C   UNL     1      -3.175  -2.531  24.021  0.00  0.00    +0.046 A 
ATOM     33  C   UNL     1      -2.111  -2.284  24.889  0.00  0.00    +0.120 A 
BRANCH  33   4
ATOM      4  O   UNL     1      -0.997  -3.063  24.838  0.00  0.00    -0.495 OA
ATOM     34  C   UNL     1       0.192  -2.535  25.424  0.00  0.00    +0.277 C 
ENDBRANCH  33   4
ENDBRANCH  27  28
ENDBRANCH   8  27
ENDBRANCH  19  21
ENDBRANCH  17  19
ENDBRANCH  13  17
TORSDOF 9
ENDMDL
MODEL 3
REMARK VINA RESULT:       1.4      1.826      3.831
REMARK  Name = 45360936
REMARK  11 active torsions:
REMARK  status: ('A' for Active; 'I' for Inactive)
REMARK    1  A    between atoms: O_3  and  C_26
REMARK    2  A    between atoms: O_4  and  C_33
REMARK    3  A    between atoms: O_4  and  C_34
REMARK    4  A    between atoms: N_5  and  C_16
REMARK    5  A    between atoms: N_6  and  C_18
REMARK    6  A    between atoms: N_8  and  C_27
REMARK    7  A    between atoms: C_13  and  C_17
REMARK    8  A    between atoms: C_16  and  C_20
REMARK    9  A    between atoms: C_17  and  C_19
REMARK   10  A    between atoms: C_19  and  C_21
REMARK   11  A    between atoms: C_27  and  C_28
REMARK                            x       y       z     vdW  Elec       q    Type
REMARK                         _______ _______ _______ _____ _____    ______ ____
ROOT
ATOM      1  O   UNL     1      -0.985   2.665  21.687  0.00  0.00    -0.274 OA
ATOM      5  N   UNL     1       0.423   1.487  23.668  0.00  0.00    -0.286 NA
ATOM      6  N   UNL     1      -2.295   3.344  25.267  0.00  0.00    -0.296 NA
ATOM      7  N   UNL     1      -3.027   2.331  22.666  0.00  0.00    -0.312 N 
ATOM      9  C   UNL     1      -1.282   2.267  25.209  0.00  0.00    +0.084 C 
ATOM     10  C   UNL     1      -1.040   1.548  23.850  0.00  0.00    +0.161 C 
ATOM     11  C   UNL     1       0.139   2.724  25.588  0.00  0.00    +0.036 C 
ATOM     12  C   UNL     1       1.026   1.655  24.985  0.00  0.00    +0.087 C 
ATOM     13  C   UNL     1      -3.688   2.895  24.986  0.00  0.00    +0.074 C 
ATOM     14  C   UNL     1      -1.648   2.244  22.634  0.00  0.00    +0.232 C 
ATOM     15  C   UNL     1      -3.829   1.920  23.801  0.00  0.00    +0.123 C 
ATOM     18  C   UNL     1      -2.237   4.048  26.559  0.00  0.00    +0.105 C 
ATOM     35  H   UNL     1      -3.497   2.764  21.876  0.00  0.00    +0.149 HD
ENDROOT
BRANCH   5  16
ATOM     16  C   UNL     1       0.872   0.266  23.010  0.00  0.00    +0.120 C 
BRANCH  16  20
ATOM     20  C   UNL     1       2.366   0.098  23.102  0.00  0.00    -0.033 A 
ATOM     22  C   UNL     1       3.210   1.140  22.718  0.00  0.00    +0.008 A 
ATOM     23  C   UNL     1       2.904  -1.100  23.570  0.00  0.00    +0.008 A 
ATOM     24  C   UNL     1       4.594   0.983  22.802  0.00  0.00    +0.046 A 
ATOM     25  C   UNL     1       4.288  -1.257  23.654  0.00  0.00    +0.046 A 
ATOM     26  C   UNL     1       5.132  -0.215  23.270  0.00  0.00    +0.117 A 
BRANCH  26   3
ATOM      3  O   UNL     1       6.482  -0.367  23.353  0.00  0.00    -0.507 OA
ATOM     37  H   UNL     1       6.879   0.481  23.619  0.00  0.00    +0.292 HD
ENDBRANCH  26   3
ENDBRANCH  16  20
ENDBRANCH   5  16
BRANCH  13  17
ATOM     17  C   UNL     1      -4.598   4.108  24.699  0.00  0.00    +0.029 C 
BRANCH  17  19
ATOM     19  C   UNL     1      -5.926   3.964  25.417  0.00  0.00    +0.097 C 
BRANCH  19  21
ATOM      2  O   UNL     1      -6.437   2.250  27.048  0.00  0.00    -0.276 OA
ATOM      8  N   UNL     1      -6.009   1.628  24.853  0.00  0.00    -0.311 N 
ATOM     21  C   UNL     1      -6.157   2.540  25.888  0.00  0.00    +0.213 C 
ATOM     36  H   UNL     1      -5.750   1.950  23.926  0.00  0.00    +0.149 HD
BRANCH   8  27
ATOM     27  C   UNL     1      -6.177   0.207  25.047  0.00  0.00    +0.139 C 
BRANCH  27  28
ATOM     28  C   UNL     1      -4.866  -0.530  24.956  0.00  0.00    -0.030 A 
ATOM     29  C   UNL     1      -3.919  -0.396  25.971  0.00  0.00    +0.009 A 
ATOM     30  C   UNL     1      -4.601  -1.348  23.858  0.00  0.00    +0.009 A 
ATOM     31  C   UNL     1      -2.706  -1.080  25.888  0.00  0.00    +0.046 A 
ATOM     32  C   UNL     1      -3.389  -2.031  23.775  0.00  0.00    +0.046 A 
ATOM     33  C   UNL     1      -2.441  -1.897  24.789  0.00  0.00    +0.120 A 
BRANCH  33   4
ATOM      4  O   UNL     1      -1.258  -2.564  24.708  0.00  0.00    -0.495 OA
ATOM     34  C   UNL     1      -0.154  -2.021  25.432  0.00  0.00    +0.277 C 
ENDBRANCH  33   4
ENDBRANCH  27  28
ENDBRANCH   8  27
ENDBRANCH  19  21
ENDBRANCH  17  19
ENDBRANCH  13  17
TORSDOF 9
ENDMDL
MODEL 4
REMARK VINA RESULT:       1.9      1.472      2.064
REMARK  Name = 45360936
REMARK  11 active torsions:
REMARK  status: ('A' for Active; 'I' for Inactive)
REMARK    1  A    between atoms: O_3  and  C_26
REMARK    2  A    between atoms: O_4  and  C_33
REMARK    3  A    between atoms: O_4  and  C_34
REMARK    4  A    between atoms: N_5  and  C_16
REMARK    5  A    between atoms: N_6  and  C_18
REMARK    6  A    between atoms: N_8  and  C_27
REMARK    7  A    between atoms: C_13  and  C_17
REMARK    8  A    between atoms: C_16  and  C_20
REMARK    9  A    between atoms: C_17  and  C_19
REMARK   10  A    between atoms: C_19  and  C_21
REMARK   11  A    between atoms: C_27  and  C_28
REMARK                            x       y       z     vdW  Elec       q    Type
REMARK                         _______ _______ _______ _____ _____    ______ ____
ROOT
ATOM      1  O   UNL     1      -0.760   1.832  24.240  0.00  0.00    -0.274 OA
ATOM      5  N   UNL     1       0.471  -0.547  23.898  0.00  0.00    -0.286 NA
ATOM      6  N   UNL     1      -2.786  -1.254  25.411  0.00  0.00    -0.296 NA
ATOM      7  N   UNL     1      -2.844   1.061  23.689  0.00  0.00    -0.312 N 
ATOM      9  C   UNL     1      -1.595  -1.607  24.606  0.00  0.00    +0.084 C 
ATOM     10  C   UNL     1      -0.986  -0.524  23.668  0.00  0.00    +0.161 C 
ATOM     11  C   UNL     1      -0.374  -2.026  25.446  0.00  0.00    +0.036 C 
ATOM     12  C   UNL     1       0.789  -1.839  24.496  0.00  0.00    +0.087 C 
ATOM     13  C   UNL     1      -3.998  -0.929  24.608  0.00  0.00    +0.074 C 
ATOM     14  C   UNL     1      -1.489   0.898  23.910  0.00  0.00    +0.232 C 
ATOM     15  C   UNL     1      -3.743  -0.033  23.380  0.00  0.00    +0.123 C 
ATOM     18  C   UNL     1      -3.090  -2.312  26.388  0.00  0.00    +0.105 C 
ATOM     35  H   UNL     1      -3.240   1.989  23.811  0.00  0.00    +0.149 HD
ENDROOT
BRANCH   5  16
ATOM     16  C   UNL     1       1.250  -0.293  22.692  0.00  0.00    +0.120 C 
BRANCH  16  20
ATOM     20  C   UNL     1       2.724  -0.206  22.986  0.00  0.00    -0.033 A 
ATOM     22  C   UNL     1       3.423   0.968  22.704  0.00  0.00    +0.008 A 
ATOM     23  C   UNL     1       3.390  -1.300  23.538  0.00  0.00    +0.008 A 
ATOM     24  C   UNL     1       4.789   1.048  22.975  0.00  0.00    +0.046 A 
ATOM     25  C   UNL     1       4.756  -1.219  23.809  0.00  0.00    +0.046 A 
ATOM     26  C   UNL     1       5.455  -0.046  23.528  0.00  0.00    +0.117 A 
BRANCH  26   3
ATOM      3  O   UNL     1       6.788   0.033  23.794  0.00  0.00    -0.507 OA
ATOM     37  H   UNL     1       6.921   0.602  24.572  0.00  0.00    +0.292 HD
ENDBRANCH  26   3
ENDBRANCH  16  20
ENDBRANCH   5  16
BRANCH  13  17
ATOM     17  C   UNL     1      -5.053  -0.224  25.485  0.00  0.00    +0.029 C 
BRANCH  17  19
ATOM     19  C   UNL     1      -5.995   0.603  24.631  0.00  0.00    +0.097 C 
BRANCH  19  21
ATOM      2  O   UNL     1      -5.158   2.628  23.599  0.00  0.00    -0.276 OA
ATOM      8  N   UNL     1      -5.760   2.668  25.840  0.00  0.00    -0.311 N 
ATOM     21  C   UNL     1      -5.588   2.066  24.603  0.00  0.00    +0.213 C 
ATOM     36  H   UNL     1      -6.097   2.124  26.628  0.00  0.00    +0.149 HD
BRANCH   8  27
ATOM     27  C   UNL     1      -5.442   4.057  26.072  0.00  0.00    +0.139 C 
BRANCH  27  28
ATOM     28  C   UNL     1      -4.018   4.377  25.702  0.00  0.00    -0.030 A 
ATOM     29  C   UNL     1      -2.967   3.837  26.443  0.00  0.00    +0.009 A 
ATOM     30  C   UNL     1      -3.750   5.210  24.616  0.00  0.00    +0.009 A 
ATOM     31  C   UNL     1      -1.647   4.132  26.100  0.00  0.00    +0.046 A 
ATOM     32  C   UNL     1      -2.431   5.504  24.272  0.00  0.00    +0.046 A 
ATOM     33  C   UNL     1      -1.379   4.966  25.014  0.00  0.00    +0.120 A 
BRANCH  33   4
ATOM      4  O   UNL     1      -0.092   5.253  24.678  0.00  0.00    -0.495 OA
ATOM     34  C   UNL     1       0.303   4.987  23.333  0.00  0.00    +0.277 C 
ENDBRANCH  33   4
ENDBRANCH  27  28
ENDBRANCH   8  27
ENDBRANCH  19  21
ENDBRANCH  17  19
ENDBRANCH  13  17
TORSDOF 9
ENDMDL
MODEL 5
REMARK VINA RESULT:       2.0      2.043      3.221
REMARK  Name = 45360936
REMARK  11 active torsions:
REMARK  status: ('A' for Active; 'I' for Inactive)
REMARK    1  A    between atoms: O_3  and  C_26
REMARK    2  A    between atoms: O_4  and  C_33
REMARK    3  A    between atoms: O_4  and  C_34
REMARK    4  A    between atoms: N_5  and  C_16
REMARK    5  A    between atoms: N_6  and  C_18
REMARK    6  A    between atoms: N_8  and  C_27
REMARK    7  A    between atoms: C_13  and  C_17
REMARK    8  A    between atoms: C_16  and  C_20
REMARK    9  A    between atoms: C_17  and  C_19
REMARK   10  A    between atoms: C_19  and  C_21
REMARK   11  A    between atoms: C_27  and  C_28
REMARK                            x       y       z     vdW  Elec       q    Type
REMARK                         _______ _______ _______ _____ _____    ______ ____
ROOT
ATOM      1  O   UNL     1      -1.127  -0.927  21.992  0.00  0.00    -0.274 OA
ATOM      5  N   UNL     1       0.923   0.651  22.767  0.00  0.00    -0.286 NA
ATOM      6  N   UNL     1      -1.238   0.220  25.689  0.00  0.00    -0.296 NA
ATOM      7  N   UNL     1      -1.241  -2.090  23.960  0.00  0.00    -0.312 N 
ATOM      9  C   UNL     1       0.057   0.496  25.030  0.00  0.00    +0.084 C 
ATOM     10  C   UNL     1       0.434  -0.324  23.761  0.00  0.00    +0.161 C 
ATOM     11  C   UNL     1       0.209   1.945  24.532  0.00  0.00    +0.036 C 
ATOM     12  C   UNL     1       1.314   1.850  23.500  0.00  0.00    +0.087 C 
ATOM     13  C   UNL     1      -1.363  -1.154  26.250  0.00  0.00    +0.074 C 
ATOM     14  C   UNL     1      -0.716  -1.112  23.137  0.00  0.00    +0.232 C 
ATOM     15  C   UNL     1      -0.835  -2.278  25.339  0.00  0.00    +0.123 C 
ATOM     18  C   UNL     1      -1.521   1.223  26.729  0.00  0.00    +0.105 C 
ATOM     35  H   UNL     1      -1.995  -2.666  23.597  0.00  0.00    +0.149 HD
ENDROOT
BRANCH   5  16
ATOM     16  C   UNL     1       2.007   0.137  21.939  0.00  0.00    +0.120 C 
BRANCH  16  20
ATOM     20  C   UNL     1       3.245  -0.144  22.748  0.00  0.00    -0.033 A 
ATOM     22  C   UNL     1       4.209   0.850  22.917  0.00  0.00    +0.008 A 
ATOM     23  C   UNL     1       3.428  -1.399  23.329  0.00  0.00    +0.008 A 
ATOM     24  C   UNL     1       5.356   0.589  23.666  0.00  0.00    +0.046 A 
ATOM     25  C   UNL     1       4.576  -1.660  24.078  0.00  0.00    +0.046 A 
ATOM     26  C   UNL     1       5.540  -0.665  24.246  0.00  0.00    +0.117 A 
BRANCH  26   3
ATOM      3  O   UNL     1       6.659  -0.919  24.978  0.00  0.00    -0.507 OA
ATOM     37  H   UNL     1       7.271  -0.169  24.888  0.00  0.00    +0.292 HD
ENDBRANCH  26   3
ENDBRANCH  16  20
ENDBRANCH   5  16
BRANCH  13  17
ATOM     17  C   UNL     1      -2.839  -1.473  26.572  0.00  0.00    +0.029 C 
BRANCH  17  19
ATOM     19  C   UNL     1      -3.590  -1.865  25.314  0.00  0.00    +0.097 C 
BRANCH  19  21
ATOM      2  O   UNL     1      -3.973  -0.475  23.369  0.00  0.00    -0.276 OA
ATOM      8  N   UNL     1      -4.778   0.222  25.432  0.00  0.00    -0.311 N 
ATOM     21  C   UNL     1      -4.121  -0.649  24.576  0.00  0.00    +0.213 C 
ATOM     36  H   UNL     1      -4.833   0.015  26.424  0.00  0.00    +0.149 HD
BRANCH   8  27
ATOM     27  C   UNL     1      -5.372   1.454  24.971  0.00  0.00    +0.139 C 
BRANCH  27  28
ATOM     28  C   UNL     1      -4.391   2.597  25.005  0.00  0.00    -0.030 A 
ATOM     29  C   UNL     1      -4.232   3.345  26.171  0.00  0.00    +0.009 A 
ATOM     30  C   UNL     1      -3.641   2.906  23.870  0.00  0.00    +0.009 A 
ATOM     31  C   UNL     1      -3.322   4.403  26.204  0.00  0.00    +0.046 A 
ATOM     32  C   UNL     1      -2.732   3.963  23.902  0.00  0.00    +0.046 A 
ATOM     33  C   UNL     1      -2.573   4.712  25.068  0.00  0.00    +0.120 A 
BRANCH  33   4
ATOM      4  O   UNL     1      -1.686   5.743  25.099  0.00  0.00    -0.495 OA
ATOM     34  C   UNL     1      -0.359   5.472  24.649  0.00  0.00    +0.277 C 
ENDBRANCH  33   4
ENDBRANCH  27  28
ENDBRANCH   8  27
ENDBRANCH  19  21
ENDBRANCH  17  19
ENDBRANCH  13  17
TORSDOF 9
ENDMDL
MODEL 6
REMARK VINA RESULT:       2.9      1.257      2.144
REMARK  Name = 45360936
REMARK  11 active torsions:
REMARK  status: ('A' for Active; 'I' for Inactive)
REMARK    1  A    between atoms: O_3  and  C_26
REMARK    2  A    between atoms: O_4  and  C_33
REMARK    3  A    between atoms: O_4  and  C_34
REMARK    4  A    between atoms: N_5  and  C_16
REMARK    5  A    between atoms: N_6  and  C_18
REMARK    6  A    between atoms: N_8  and  C_27
REMARK    7  A    between atoms: C_13  and  C_17
REMARK    8  A    between atoms: C_16  and  C_20
REMARK    9  A    between atoms: C_17  and  C_19
REMARK   10  A    between atoms: C_19  and  C_21
REMARK   11  A    between atoms: C_27  and  C_28
REMARK                            x       y       z     vdW  Elec       q    Type
REMARK                         _______ _______ _______ _____ _____    ______ ____
ROOT
ATOM      1  O   UNL     1      -1.930  -2.663  23.574  0.00  0.00    -0.274 OA
ATOM      5  N   UNL     1      -0.046  -0.728  23.627  0.00  0.00    -0.286 NA
ATOM      6  N   UNL     1      -3.293   0.961  23.644  0.00  0.00    -0.296 NA
ATOM      7  N   UNL     1      -3.363  -1.587  24.996  0.00  0.00    -0.312 N 
ATOM      9  C   UNL     1      -1.843   0.876  23.928  0.00  0.00    +0.084 C 
ATOM     10  C   UNL     1      -1.262  -0.481  24.424  0.00  0.00    +0.161 C 
ATOM     11  C   UNL     1      -0.948   1.182  22.712  0.00  0.00    +0.036 C 
ATOM     12  C   UNL     1       0.380   0.557  23.086  0.00  0.00    +0.087 C 
ATOM     13  C   UNL     1      -4.167   0.751  24.831  0.00  0.00    +0.074 C 
ATOM     14  C   UNL     1      -2.195  -1.680  24.264  0.00  0.00    +0.232 C 
ATOM     15  C   UNL     1      -3.743  -0.410  25.752  0.00  0.00    +0.123 C 
ATOM     18  C   UNL     1      -3.623   2.236  22.986  0.00  0.00    +0.105 C 
ATOM     35  H   UNL     1      -4.019  -2.362  24.952  0.00  0.00    +0.149 HD
ENDROOT
BRANCH   5  16
ATOM     16  C   UNL     1       1.015  -1.385  24.381  0.00  0.00    +0.120 C 
BRANCH  16  20
ATOM     20  C   UNL     1       2.381  -0.950  23.920  0.00  0.00    -0.033 A 
ATOM     22  C   UNL     1       2.530   0.235  23.200  0.00  0.00    +0.008 A 
ATOM     23  C   UNL     1       3.497  -1.734  24.213  0.00  0.00    +0.008 A 
ATOM     24  C   UNL     1       3.796   0.636  22.772  0.00  0.00    +0.046 A 
ATOM     25  C   UNL     1       4.762  -1.332  23.786  0.00  0.00    +0.046 A 
ATOM     26  C   UNL     1       4.911  -0.147  23.065  0.00  0.00    +0.117 A 
BRANCH  26   3
ATOM      3  O   UNL     1       6.146   0.245  22.649  0.00  0.00    -0.507 OA
ATOM     37  H   UNL     1       6.224   0.081  21.693  0.00  0.00    +0.292 HD
ENDBRANCH  26   3
ENDBRANCH  16  20
ENDBRANCH   5  16
BRANCH  13  17
ATOM     17  C   UNL     1      -5.621   0.485  24.391  0.00  0.00    +0.029 C 
BRANCH  17  19
ATOM     19  C   UNL     1      -6.543   1.582  24.889  0.00  0.00    +0.097 C 
BRANCH  19  21
ATOM      2  O   UNL     1      -5.843   2.714  26.912  0.00  0.00    -0.276 OA
ATOM      8  N   UNL     1      -5.041   3.460  24.866  0.00  0.00    -0.311 N 
ATOM     21  C   UNL     1      -5.786   2.628  25.688  0.00  0.00    +0.213 C 
ATOM     36  H   UNL     1      -5.069   3.338  23.859  0.00  0.00    +0.149 HD
BRANCH   8  27
ATOM     27  C   UNL     1      -4.233   4.537  25.388  0.00  0.00    +0.139 C 
BRANCH  27  28
ATOM     28  C   UNL     1      -2.816   4.099  25.651  0.00  0.00    -0.030 A 
ATOM     29  C   UNL     1      -2.550   3.165  26.652  0.00  0.00    +0.009 A 
ATOM     30  C   UNL     1      -1.771   4.627  24.893  0.00  0.00    +0.009 A 
ATOM     31  C   UNL     1      -1.238   2.759  26.896  0.00  0.00    +0.046 A 
ATOM     32  C   UNL     1      -0.459   4.220  25.137  0.00  0.00    +0.046 A 
ATOM     33  C   UNL     1      -0.192   3.287  26.138  0.00  0.00    +0.120 A 
BRANCH  33   4
ATOM      4  O   UNL     1       1.087   2.890  26.376  0.00  0.00    -0.495 OA
ATOM     34  C   UNL     1       1.463   2.688  27.737  0.00  0.00    +0.277 C 
ENDBRANCH  33   4
ENDBRANCH  27  28
ENDBRANCH   8  27
ENDBRANCH  19  21
ENDBRANCH  17  19
ENDBRANCH  13  17
TORSDOF 9
ENDMDL
MODEL 7
REMARK VINA RESULT:       3.0      1.927      4.610
REMARK  Name = 45360936
REMARK  11 active torsions:
REMARK  status: ('A' for Active; 'I' for Inactive)
REMARK    1  A    between atoms: O_3  and  C_26
REMARK    2  A    between atoms: O_4  and  C_33
REMARK    3  A    between atoms: O_4  and  C_34
REMARK    4  A    between atoms: N_5  and  C_16
REMARK    5  A    between atoms: N_6  and  C_18
REMARK    6  A    between atoms: N_8  and  C_27
REMARK    7  A    between atoms: C_13  and  C_17
REMARK    8  A    between atoms: C_16  and  C_20
REMARK    9  A    between atoms: C_17  and  C_19
REMARK   10  A    between atoms: C_19  and  C_21
REMARK   11  A    between atoms: C_27  and  C_28
REMARK                            x       y       z     vdW  Elec       q    Type
REMARK                         _______ _______ _______ _____ _____    ______ ____
ROOT
ATOM      1  O   UNL     1      -1.113   0.314  26.635  0.00  0.00    -0.274 OA
ATOM      5  N   UNL     1      -0.560  -0.494  24.118  0.00  0.00    -0.286 NA
ATOM      6  N   UNL     1      -1.763   2.954  23.877  0.00  0.00    -0.296 NA
ATOM      7  N   UNL     1      -0.340   2.447  26.336  0.00  0.00    -0.312 N 
ATOM      9  C   UNL     1      -0.999   1.781  23.396  0.00  0.00    +0.084 C 
ATOM     10  C   UNL     1      -0.242   0.910  24.441  0.00  0.00    +0.161 C 
ATOM     11  C   UNL     1      -1.857   0.732  22.665  0.00  0.00    +0.036 C 
ATOM     12  C   UNL     1      -1.013  -0.523  22.733  0.00  0.00    +0.087 C 
ATOM     13  C   UNL     1      -0.931   4.014  24.510  0.00  0.00    +0.074 C 
ATOM     14  C   UNL     1      -0.625   1.168  25.897  0.00  0.00    +0.232 C 
ATOM     15  C   UNL     1       0.158   3.498  25.471  0.00  0.00    +0.123 C 
ATOM     18  C   UNL     1      -2.581   3.525  22.794  0.00  0.00    +0.105 C 
ATOM     35  H   UNL     1      -0.550   2.679  27.302  0.00  0.00    +0.149 HD
ENDROOT
BRANCH   5  16
ATOM     16  C   UNL     1       0.554  -1.406  24.351  0.00  0.00    +0.120 C 
BRANCH  16  20
ATOM     20  C   UNL     1       1.852  -0.848  23.834  0.00  0.00    -0.033 A 
ATOM     22  C   UNL     1       1.862   0.351  23.119  0.00  0.00    +0.008 A 
ATOM     23  C   UNL     1       3.046  -1.529  24.068  0.00  0.00    +0.008 A 
ATOM     24  C   UNL     1       3.065   0.867  22.639  0.00  0.00    +0.046 A 
ATOM     25  C   UNL     1       4.250  -1.013  23.588  0.00  0.00    +0.046 A 
ATOM     26  C   UNL     1       4.259   0.186  22.874  0.00  0.00    +0.117 A 
BRANCH  26   3
ATOM      3  O   UNL     1       5.433   0.690  22.406  0.00  0.00    -0.507 OA
ATOM     37  H   UNL     1       5.761   0.116  21.692  0.00  0.00    +0.292 HD
ENDBRANCH  26   3
ENDBRANCH  16  20
ENDBRANCH   5  16
BRANCH  13  17
ATOM     17  C   UNL     1      -1.819   4.997  25.301  0.00  0.00    +0.029 C 
BRANCH  17  19
ATOM     19  C   UNL     1      -2.611   4.265  26.368  0.00  0.00    +0.097 C 
BRANCH  19  21
ATOM      2  O   UNL     1      -4.819   4.308  25.374  0.00  0.00    -0.276 OA
ATOM      8  N   UNL     1      -3.825   2.260  25.832  0.00  0.00    -0.311 N 
ATOM     21  C   UNL     1      -3.876   3.646  25.801  0.00  0.00    +0.213 C 
ATOM     36  H   UNL     1      -3.017   1.790  26.226  0.00  0.00    +0.149 HD
BRANCH   8  27
ATOM     27  C   UNL     1      -4.909   1.438  25.348  0.00  0.00    +0.139 C 
BRANCH  27  28
ATOM     28  C   UNL     1      -4.458   0.031  25.053  0.00  0.00    -0.030 A 
ATOM     29  C   UNL     1      -4.766  -0.557  23.827  0.00  0.00    +0.009 A 
ATOM     30  C   UNL     1      -3.731  -0.682  26.006  0.00  0.00    +0.009 A 
ATOM     31  C   UNL     1      -4.348  -1.860  23.553  0.00  0.00    +0.046 A 
ATOM     32  C   UNL     1      -3.312  -1.984  25.732  0.00  0.00    +0.046 A 
ATOM     33  C   UNL     1      -3.621  -2.573  24.507  0.00  0.00    +0.120 A 
BRANCH  33   4
ATOM      4  O   UNL     1      -3.212  -3.843  24.239  0.00  0.00    -0.495 OA
ATOM     34  C   UNL     1      -2.121  -3.996  23.333  0.00  0.00    +0.277 C 
ENDBRANCH  33   4
ENDBRANCH  27  28
ENDBRANCH   8  27
ENDBRANCH  19  21
ENDBRANCH  17  19
ENDBRANCH  13  17
TORSDOF 9
ENDMDL
MODEL 8
REMARK VINA RESULT:       3.5      2.748      5.350
REMARK  Name = 45360936
REMARK  11 active torsions:
REMARK  status: ('A' for Active; 'I' for Inactive)
REMARK    1  A    between atoms: O_3  and  C_26
REMARK    2  A    between atoms: O_4  and  C_33
REMARK    3  A    between atoms: O_4  and  C_34
REMARK    4  A    between atoms: N_5  and  C_16
REMARK    5  A    between atoms: N_6  and  C_18
REMARK    6  A    between atoms: N_8  and  C_27
REMARK    7  A    between atoms: C_13  and  C_17
REMARK    8  A    between atoms: C_16  and  C_20
REMARK    9  A    between atoms: C_17  and  C_19
REMARK   10  A    between atoms: C_19  and  C_21
REMARK   11  A    between atoms: C_27  and  C_28
REMARK                            x       y       z     vdW  Elec       q    Type
REMARK                         _______ _______ _______ _____ _____    ______ ____
ROOT
ATOM      1  O   UNL     1      -1.778   3.221  27.377  0.00  0.00    -0.274 OA
ATOM      5  N   UNL     1       0.248   2.515  25.735  0.00  0.00    -0.286 NA
ATOM      6  N   UNL     1      -2.762   2.729  23.664  0.00  0.00    -0.296 NA
ATOM      7  N   UNL     1      -2.794   4.600  25.860  0.00  0.00    -0.312 N 
ATOM      9  C   UNL     1      -1.298   2.766  23.881  0.00  0.00    +0.084 C 
ATOM     10  C   UNL     1      -0.757   3.439  25.177  0.00  0.00    +0.161 C 
ATOM     11  C   UNL     1      -0.640   1.376  23.943  0.00  0.00    +0.036 C 
ATOM     12  C   UNL     1       0.673   1.638  24.650  0.00  0.00    +0.087 C 
ATOM     13  C   UNL     1      -3.397   4.068  23.517  0.00  0.00    +0.074 C 
ATOM     14  C   UNL     1      -1.809   3.713  26.250  0.00  0.00    +0.232 C 
ATOM     15  C   UNL     1      -2.906   5.133  24.517  0.00  0.00    +0.123 C 
ATOM     18  C   UNL     1      -3.098   1.876  22.512  0.00  0.00    +0.105 C 
ATOM     35  H   UNL     1      -3.514   4.843  26.535  0.00  0.00    +0.149 HD
ENDROOT
BRANCH   5  16
ATOM     16  C   UNL     1       1.373   3.198  26.363  0.00  0.00    +0.120 C 
BRANCH  16  20
ATOM     20  C   UNL     1       1.550   2.781  27.799  0.00  0.00    -0.033 A 
ATOM     22  C   UNL     1       0.443   2.400  28.557  0.00  0.00    +0.008 A 
ATOM     23  C   UNL     1       2.822   2.778  28.372  0.00  0.00    +0.008 A 
ATOM     24  C   UNL     1       0.607   2.015  29.887  0.00  0.00    +0.046 A 
ATOM     25  C   UNL     1       2.986   2.394  29.702  0.00  0.00    +0.046 A 
ATOM     26  C   UNL     1       1.878   2.012  30.460  0.00  0.00    +0.117 A 
BRANCH  26   3
ATOM      3  O   UNL     1       2.039   1.636  31.758  0.00  0.00    -0.507 OA
ATOM     37  H   UNL     1       1.230   1.856  32.252  0.00  0.00    +0.292 HD
ENDBRANCH  26   3
ENDBRANCH  16  20
ENDBRANCH   5  16
BRANCH  13  17
ATOM     17  C   UNL     1      -4.928   3.959  23.671  0.00  0.00    +0.029 C 
BRANCH  17  19
ATOM     19  C   UNL     1      -5.322   3.965  25.136  0.00  0.00    +0.097 C 
BRANCH  19  21
ATOM      2  O   UNL     1      -6.144   2.350  26.742  0.00  0.00    -0.276 OA
ATOM      8  N   UNL     1      -5.446   1.613  24.654  0.00  0.00    -0.311 N 
ATOM     21  C   UNL     1      -5.690   2.575  25.623  0.00  0.00    +0.213 C 
ATOM     36  H   UNL     1      -5.045   1.881  23.761  0.00  0.00    +0.149 HD
BRANCH   8  27
ATOM     27  C   UNL     1      -5.713   0.211  24.876  0.00  0.00    +0.139 C 
BRANCH  27  28
ATOM     28  C   UNL     1      -4.449  -0.608  24.875  0.00  0.00    -0.030 A 
ATOM     29  C   UNL     1      -3.396  -0.266  25.724  0.00  0.00    +0.009 A 
ATOM     30  C   UNL     1      -4.332  -1.709  24.026  0.00  0.00    +0.009 A 
ATOM     31  C   UNL     1      -2.225  -1.024  25.724  0.00  0.00    +0.046 A 
ATOM     32  C   UNL     1      -3.161  -2.467  24.027  0.00  0.00    +0.046 A 
ATOM     33  C   UNL     1      -2.108  -2.125  24.875  0.00  0.00    +0.120 A 
BRANCH  33   4
ATOM      4  O   UNL     1      -0.967  -2.865  24.876  0.00  0.00    -0.495 OA
ATOM     34  C   UNL     1       0.225  -2.222  25.326  0.00  0.00    +0.277 C 
ENDBRANCH  33   4
ENDBRANCH  27  28
ENDBRANCH   8  27
ENDBRANCH  19  21
ENDBRANCH  17  19
ENDBRANCH  13  17
TORSDOF 9
ENDMDL
MODEL 9
REMARK VINA RESULT:       4.2      1.714      5.495
REMARK  Name = 45360936
REMARK  11 active torsions:
REMARK  status: ('A' for Active; 'I' for Inactive)
REMARK    1  A    between atoms: O_3  and  C_26
REMARK    2  A    between atoms: O_4  and  C_33
REMARK    3  A    between atoms: O_4  and  C_34
REMARK    4  A    between atoms: N_5  and  C_16
REMARK    5  A    between atoms: N_6  and  C_18
REMARK    6  A    between atoms: N_8  and  C_27
REMARK    7  A    between atoms: C_13  and  C_17
REMARK    8  A    between atoms: C_16  and  C_20
REMARK    9  A    between atoms: C_17  and  C_19
REMARK   10  A    between atoms: C_19  and  C_21
REMARK   11  A    between atoms: C_27  and  C_28
REMARK                            x       y       z     vdW  Elec       q    Type
REMARK                         _______ _______ _______ _____ _____    ______ ____
ROOT
ATOM      1  O   UNL     1      -3.260   3.030  22.164  0.00  0.00    -0.274 OA
ATOM      5  N   UNL     1      -4.107   4.196  24.448  0.00  0.00    -0.286 NA
ATOM      6  N   UNL     1      -5.413   0.778  24.464  0.00  0.00    -0.296 NA
ATOM      7  N   UNL     1      -2.871   0.985  23.115  0.00  0.00    -0.312 N 
ATOM      9  C   UNL     1      -4.972   2.030  25.118  0.00  0.00    +0.084 C 
ATOM     10  C   UNL     1      -3.732   2.773  24.539  0.00  0.00    +0.161 C 
ATOM     11  C   UNL     1      -6.038   3.142  25.124  0.00  0.00    +0.036 C 
ATOM     12  C   UNL     1      -5.231   4.402  25.354  0.00  0.00    +0.087 C 
ATOM     13  C   UNL     1      -4.423  -0.333  24.527  0.00  0.00    +0.074 C 
ATOM     14  C   UNL     1      -3.286   2.303  23.156  0.00  0.00    +0.232 C 
ATOM     15  C   UNL     1      -2.965   0.081  24.244  0.00  0.00    +0.123 C 
ATOM     18  C   UNL     1      -6.711   0.336  25.001  0.00  0.00    +0.105 C 
ATOM     35  H   UNL     1      -2.540   0.615  22.229  0.00  0.00    +0.149 HD
ENDROOT
BRANCH   5  16
ATOM     16  C   UNL     1      -3.001   5.103  24.731  0.00  0.00    +0.120 C 
BRANCH  16  20
ATOM     20  C   UNL     1      -1.815   4.377  25.308  0.00  0.00    -0.033 A 
ATOM     22  C   UNL     1      -1.933   3.703  26.524  0.00  0.00    +0.008 A 
ATOM     23  C   UNL     1      -0.598   4.378  24.627  0.00  0.00    +0.008 A 
ATOM     24  C   UNL     1      -0.834   3.032  27.059  0.00  0.00    +0.046 A 
ATOM     25  C   UNL     1       0.501   3.706  25.162  0.00  0.00    +0.046 A 
ATOM     26  C   UNL     1       0.383   3.033  26.378  0.00  0.00    +0.117 A 
BRANCH  26   3
ATOM      3  O   UNL     1       1.455   2.376  26.900  0.00  0.00    -0.507 OA
ATOM     37  H   UNL     1       1.175   1.486  27.176  0.00  0.00    +0.292 HD
ENDBRANCH  26   3
ENDBRANCH  16  20
ENDBRANCH   5  16
BRANCH  13  17
ATOM     17  C   UNL     1      -4.793  -1.444  23.522  0.00  0.00    +0.029 C 
BRANCH  17  19
ATOM     19  C   UNL     1      -4.150  -2.760  23.916  0.00  0.00    +0.097 C 
BRANCH  19  21
ATOM      2  O   UNL     1      -3.281  -2.602  26.170  0.00  0.00    -0.276 OA
ATOM      8  N   UNL     1      -1.829  -2.337  24.379  0.00  0.00    -0.311 N 
ATOM     21  C   UNL     1      -3.067  -2.564  24.961  0.00  0.00    +0.213 C 
ATOM     36  H   UNL     1      -1.742  -2.296  23.368  0.00  0.00    +0.149 HD
BRANCH   8  27
ATOM     27  C   UNL     1      -0.636  -2.120  25.163  0.00  0.00    +0.139 C 
BRANCH  27  28
ATOM     28  C   UNL     1       0.399  -1.333  24.403  0.00  0.00    -0.030 A 
ATOM     29  C   UNL     1       0.061  -0.108  23.828  0.00  0.00    +0.009 A 
ATOM     30  C   UNL     1       1.697  -1.829  24.275  0.00  0.00    +0.009 A 
ATOM     31  C   UNL     1       1.020   0.621  23.124  0.00  0.00    +0.046 A 
ATOM     32  C   UNL     1       2.656  -1.100  23.573  0.00  0.00    +0.046 A 
ATOM     33  C   UNL     1       2.318   0.124  22.996  0.00  0.00    +0.120 A 
BRANCH  33   4
ATOM      4  O   UNL     1       3.253   0.836  22.311  0.00  0.00    -0.495 OA
ATOM     34  C   UNL     1       4.597   0.768  22.786  0.00  0.00    +0.277 C 
ENDBRANCH  33   4
ENDBRANCH  27  28
ENDBRANCH   8  27
ENDBRANCH  19  21
ENDBRANCH  17  19
ENDBRANCH  13  17
TORSDOF 9
ENDMDL
MODEL 10
REMARK VINA RESULT:       4.9      1.781      6.356
REMARK  Name = 45360936
REMARK  11 active torsions:
REMARK  status: ('A' for Active; 'I' for Inactive)
REMARK    1  A    between atoms: O_3  and  C_26
REMARK    2  A    between atoms: O_4  and  C_33
REMARK    3  A    between atoms: O_4  and  C_34
REMARK    4  A    between atoms: N_5  and  C_16
REMARK    5  A    between atoms: N_6  and  C_18
REMARK    6  A    between atoms: N_8  and  C_27
REMARK    7  A    between atoms: C_13  and  C_17
REMARK    8  A    between atoms: C_16  and  C_20
REMARK    9  A    between atoms: C_17  and  C_19
REMARK   10  A    between atoms: C_19  and  C_21
REMARK   11  A    between atoms: C_27  and  C_28
REMARK                            x       y       z     vdW  Elec       q    Type
REMARK                         _______ _______ _______ _____ _____    ______ ____
ROOT
ATOM      1  O   UNL     1      -3.067   2.372  23.151  0.00  0.00    -0.274 OA
ATOM      5  N   UNL     1      -5.357   2.340  24.583  0.00  0.00    -0.286 NA
ATOM      6  N   UNL     1      -4.249  -1.135  24.291  0.00  0.00    -0.296 NA
ATOM      7  N   UNL     1      -2.045   0.726  24.370  0.00  0.00    -0.312 N 
ATOM      9  C   UNL     1      -4.980  -0.029  24.949  0.00  0.00    +0.084 C 
ATOM     10  C   UNL     1      -4.315   1.378  24.990  0.00  0.00    +0.161 C 
ATOM     11  C   UNL     1      -6.348   0.281  24.313  0.00  0.00    +0.036 C 
ATOM     12  C   UNL     1      -6.645   1.688  24.785  0.00  0.00    +0.087 C 
ATOM     13  C   UNL     1      -2.963  -1.501  24.950  0.00  0.00    +0.074 C 
ATOM     14  C   UNL     1      -3.111   1.552  24.067  0.00  0.00    +0.232 C 
ATOM     15  C   UNL     1      -2.095  -0.305  25.388  0.00  0.00    +0.123 C 
ATOM     18  C   UNL     1      -5.108  -2.323  24.156  0.00  0.00    +0.105 C 
ATOM     35  H   UNL     1      -1.203   0.807  23.807  0.00  0.00    +0.149 HD
ENDROOT
BRANCH   5  16
ATOM     16  C   UNL     1      -5.271   3.615  25.285  0.00  0.00    +0.120 C 
BRANCH  16  20
ATOM     20  C   UNL     1      -3.892   4.213  25.193  0.00  0.00    -0.033 A 
ATOM     22  C   UNL     1      -2.918   3.869  26.130  0.00  0.00    +0.008 A 
ATOM     23  C   UNL     1      -3.589   5.113  24.171  0.00  0.00    +0.008 A 
ATOM     24  C   UNL     1      -1.641   4.424  26.045  0.00  0.00    +0.046 A 
ATOM     25  C   UNL     1      -2.313   5.667  24.086  0.00  0.00    +0.046 A 
ATOM     26  C   UNL     1      -1.338   5.323  25.023  0.00  0.00    +0.117 A 
BRANCH  26   3
ATOM      3  O   UNL     1      -0.092   5.864  24.939  0.00  0.00    -0.507 OA
ATOM     37  H   UNL     1       0.283   5.931  25.834  0.00  0.00    +0.292 HD
ENDBRANCH  26   3
ENDBRANCH  16  20
ENDBRANCH   5  16
BRANCH  13  17
ATOM     17  C   UNL     1      -2.106  -2.376  24.011  0.00  0.00    +0.029 C 
BRANCH  17  19
ATOM     19  C   UNL     1      -0.688  -2.496  24.535  0.00  0.00    +0.097 C 
BRANCH  19  21
ATOM      2  O   UNL     1       0.388  -0.418  25.161  0.00  0.00    -0.276 OA
ATOM      8  N   UNL     1       0.477  -1.115  22.948  0.00  0.00    -0.311 N 
ATOM     21  C   UNL     1       0.112  -1.230  24.281  0.00  0.00    +0.213 C 
ATOM     36  H   UNL     1       0.186  -1.819  22.278  0.00  0.00    +0.149 HD
BRANCH   8  27
ATOM     27  C   UNL     1       1.244   0.004  22.453  0.00  0.00    +0.139 C 
BRANCH  27  28
ATOM     28  C   UNL     1       2.690  -0.079  22.867  0.00  0.00    -0.030 A 
ATOM     29  C   UNL     1       3.191  -1.258  23.417  0.00  0.00    +0.009 A 
ATOM     30  C   UNL     1       3.528   1.023  22.697  0.00  0.00    +0.009 A 
ATOM     31  C   UNL     1       4.530  -1.337  23.800  0.00  0.00    +0.046 A 
ATOM     32  C   UNL     1       4.867   0.945  23.079  0.00  0.00    +0.046 A 
ATOM     33  C   UNL     1       5.368  -0.234  23.631  0.00  0.00    +0.120 A 
BRANCH  33   4
ATOM      4  O   UNL     1       6.675  -0.310  24.003  0.00  0.00    -0.495 OA
ATOM     34  C   UNL     1       7.648  -0.315  22.959  0.00  0.00    +0.277 C 
ENDBRANCH  33   4
ENDBRANCH  27  28
ENDBRANCH   8  27
ENDBRANCH  19  21
ENDBRANCH  17  19
ENDBRANCH  13  17
TORSDOF 9
ENDMDL
