MODEL 1
REMARK VINA RESULT:      -4.6      0.000      0.000
REMARK  Name = 26743574
REMARK  4 active torsions:
REMARK  status: ('A' for Active; 'I' for Inactive)
REMARK    1  A    between atoms: O_2  and  C_11
REMARK    2  A    between atoms: N_4  and  C_7
REMARK    3  A    between atoms: C_8  and  C_14
REMARK    4  A    between atoms: C_17  and  C_18
REMARK                            x       y       z     vdW  Elec       q    Type
REMARK                         _______ _______ _______ _____ _____    ______ ____
ROOT
ATOM      4  N   UNL     1      -4.131   1.099  25.551  0.00  0.00    -0.286 NA
ATOM      8  C   UNL     1      -3.603   1.816  24.374  0.00  0.00    +0.149 C 
ATOM      9  C   UNL     1      -5.389   1.753  25.905  0.00  0.00    +0.116 C 
ATOM     10  C   UNL     1      -4.165   3.245  24.498  0.00  0.00    +0.061 C 
ATOM     11  C   UNL     1      -5.033   3.219  25.751  0.00  0.00    +0.130 C 
ENDROOT
BRANCH   4   7
ATOM      1  O   UNL     1      -3.294  -2.793  24.215  0.00  0.00    -0.380 OA
ATOM      7  C   UNL     1      -4.302  -0.335  25.324  0.00  0.00    +0.062 C 
ATOM     12  C   UNL     1      -4.340  -0.634  23.823  0.00  0.00    +0.047 C 
ATOM     13  C   UNL     1      -3.180  -1.137  25.990  0.00  0.00    +0.047 C 
ATOM     15  C   UNL     1      -4.396  -2.139  23.584  0.00  0.00    +0.161 C 
ATOM     16  C   UNL     1      -3.300  -2.613  25.631  0.00  0.00    +0.161 C 
ENDBRANCH   4   7
BRANCH   8  14
ATOM      3  O   UNL     1      -1.427   2.551  25.208  0.00  0.00    -0.336 OA
ATOM      5  N   UNL     1      -1.310   1.127  23.484  0.00  0.00    -0.190 NA
ATOM      6  N   UNL     1      -0.063   2.364  24.949  0.00  0.00    -0.056 NA
ATOM     14  C   UNL     1      -2.091   1.787  24.303  0.00  0.00    +0.245 A 
ATOM     17  C   UNL     1      -0.076   1.513  23.920  0.00  0.00    +0.202 A 
BRANCH  17  18
ATOM     18  C   UNL     1       1.125   1.027  23.305  0.00  0.00    +0.022 A 
ATOM     19  C   UNL     1       1.076  -0.080  22.459  0.00  0.00    +0.012 A 
ATOM     20  C   UNL     1       2.342   1.663  23.552  0.00  0.00    +0.012 A 
ATOM     21  C   UNL     1       2.244  -0.554  21.861  0.00  0.00    +0.001 A 
ATOM     22  C   UNL     1       3.510   1.189  22.954  0.00  0.00    +0.001 A 
ATOM     23  C   UNL     1       3.461   0.081  22.109  0.00  0.00    +0.000 A 
ENDBRANCH  17  18
ENDBRANCH   8  14
BRANCH  11   2
ATOM      2  O   UNL     1      -6.182   4.024  25.580  0.00  0.00    -0.390 OA
ATOM     24  H   UNL     1      -6.898   3.626  26.105  0.00  0.00    +0.210 HD
ENDBRANCH  11   2
TORSDOF 4
ENDMDL
MODEL 2
REMARK VINA RESULT:      -3.9      1.990      2.769
REMARK  Name = 26743574
REMARK  4 active torsions:
REMARK  status: ('A' for Active; 'I' for Inactive)
REMARK    1  A    between atoms: O_2  and  C_11
REMARK    2  A    between atoms: N_4  and  C_7
REMARK    3  A    between atoms: C_8  and  C_14
REMARK    4  A    between atoms: C_17  and  C_18
REMARK                            x       y       z     vdW  Elec       q    Type
REMARK                         _______ _______ _______ _____ _____    ______ ____
ROOT
ATOM      4  N   UNL     1      -1.691   1.806  25.274  0.00  0.00    -0.286 NA
ATOM      8  C   UNL     1      -1.169   2.109  23.927  0.00  0.00    +0.149 C 
ATOM      9  C   UNL     1      -2.262   3.050  25.787  0.00  0.00    +0.116 C 
ATOM     10  C   UNL     1      -0.820   3.609  23.967  0.00  0.00    +0.061 C 
ATOM     11  C   UNL     1      -1.223   4.069  25.363  0.00  0.00    +0.130 C 
ENDROOT
BRANCH   4   7
ATOM      1  O   UNL     1      -3.589  -1.768  24.158  0.00  0.00    -0.380 OA
ATOM      7  C   UNL     1      -2.659   0.711  25.285  0.00  0.00    +0.062 C 
ATOM     12  C   UNL     1      -3.403   0.646  23.950  0.00  0.00    +0.047 C 
ATOM     13  C   UNL     1      -1.972  -0.628  25.570  0.00  0.00    +0.047 C 
ATOM     15  C   UNL     1      -4.324  -0.569  23.914  0.00  0.00    +0.161 C 
ATOM     16  C   UNL     1      -2.973  -1.772  25.446  0.00  0.00    +0.161 C 
ENDBRANCH   4   7
BRANCH   8  14
ATOM      3  O   UNL     1      -0.237   0.207  22.708  0.00  0.00    -0.336 OA
ATOM      5  N   UNL     1       1.265   1.339  23.923  0.00  0.00    -0.190 NA
ATOM      6  N   UNL     1       0.990  -0.440  22.511  0.00  0.00    -0.056 NA
ATOM     14  C   UNL     1       0.014   1.243  23.551  0.00  0.00    +0.245 A 
ATOM     17  C   UNL     1       1.825   0.286  23.260  0.00  0.00    +0.202 A 
BRANCH  17  18
ATOM     18  C   UNL     1       3.224  -0.013  23.366  0.00  0.00    +0.022 A 
ATOM     19  C   UNL     1       3.637  -1.285  23.759  0.00  0.00    +0.012 A 
ATOM     20  C   UNL     1       4.171   0.969  23.075  0.00  0.00    +0.012 A 
ATOM     21  C   UNL     1       4.996  -1.577  23.863  0.00  0.00    +0.001 A 
ATOM     22  C   UNL     1       5.532   0.677  23.180  0.00  0.00    +0.001 A 
ATOM     23  C   UNL     1       5.944  -0.596  23.573  0.00  0.00    +0.000 A 
ENDBRANCH  17  18
ENDBRANCH   8  14
BRANCH  11   2
ATOM      2  O   UNL     1      -1.755   5.379  25.324  0.00  0.00    -0.390 OA
ATOM     24  H   UNL     1      -2.604   5.363  25.798  0.00  0.00    +0.210 HD
ENDBRANCH  11   2
TORSDOF 4
ENDMDL
MODEL 3
REMARK VINA RESULT:      -2.5      1.209      1.582
REMARK  Name = 26743574
REMARK  4 active torsions:
REMARK  status: ('A' for Active; 'I' for Inactive)
REMARK    1  A    between atoms: O_2  and  C_11
REMARK    2  A    between atoms: N_4  and  C_7
REMARK    3  A    between atoms: C_8  and  C_14
REMARK    4  A    between atoms: C_17  and  C_18
REMARK                            x       y       z     vdW  Elec       q    Type
REMARK                         _______ _______ _______ _____ _____    ______ ____
ROOT
ATOM      4  N   UNL     1      -3.103   0.778  24.668  0.00  0.00    -0.286 NA
ATOM      8  C   UNL     1      -2.535   1.747  23.709  0.00  0.00    +0.149 C 
ATOM      9  C   UNL     1      -4.412   1.301  25.058  0.00  0.00    +0.116 C 
ATOM     10  C   UNL     1      -3.171   3.097  24.089  0.00  0.00    +0.061 C 
ATOM     11  C   UNL     1      -4.116   2.777  25.241  0.00  0.00    +0.130 C 
ENDROOT
BRANCH   4   7
ATOM      1  O   UNL     1      -3.763  -3.367  24.565  0.00  0.00    -0.380 OA
ATOM      7  C   UNL     1      -3.191  -0.579  24.133  0.00  0.00    +0.062 C 
ATOM     12  C   UNL     1      -2.230  -1.507  24.879  0.00  0.00    +0.047 C 
ATOM     13  C   UNL     1      -4.622  -1.118  24.229  0.00  0.00    +0.047 C 
ATOM     15  C   UNL     1      -2.408  -2.946  24.406  0.00  0.00    +0.161 C 
ATOM     16  C   UNL     1      -4.667  -2.577  23.791  0.00  0.00    +0.161 C 
ENDBRANCH   4   7
BRANCH   8  14
ATOM      3  O   UNL     1      -0.453   2.935  24.185  0.00  0.00    -0.336 OA
ATOM      5  N   UNL     1      -0.161   0.856  23.408  0.00  0.00    -0.190 NA
ATOM      6  N   UNL     1       0.932   2.732  24.128  0.00  0.00    -0.056 NA
ATOM     14  C   UNL     1      -1.022   1.782  23.745  0.00  0.00    +0.245 A 
ATOM     17  C   UNL     1       1.024   1.484  23.661  0.00  0.00    +0.202 A 
BRANCH  17  18
ATOM     18  C   UNL     1       2.283   0.835  23.436  0.00  0.00    +0.022 A 
ATOM     19  C   UNL     1       2.411  -0.535  23.659  0.00  0.00    +0.012 A 
ATOM     20  C   UNL     1       3.380   1.575  22.995  0.00  0.00    +0.012 A 
ATOM     21  C   UNL     1       3.635  -1.167  23.441  0.00  0.00    +0.001 A 
ATOM     22  C   UNL     1       4.605   0.944  22.777  0.00  0.00    +0.001 A 
ATOM     23  C   UNL     1       4.733  -0.427  23.000  0.00  0.00    +0.000 A 
ENDBRANCH  17  18
ENDBRANCH   8  14
BRANCH  11   2
ATOM      2  O   UNL     1      -5.289   3.562  25.159  0.00  0.00    -0.390 OA
ATOM     24  H   UNL     1      -5.872   3.295  25.891  0.00  0.00    +0.210 HD
ENDBRANCH  11   2
TORSDOF 4
ENDMDL
MODEL 4
REMARK VINA RESULT:      -2.3      2.920      3.780
REMARK  Name = 26743574
REMARK  4 active torsions:
REMARK  status: ('A' for Active; 'I' for Inactive)
REMARK    1  A    between atoms: O_2  and  C_11
REMARK    2  A    between atoms: N_4  and  C_7
REMARK    3  A    between atoms: C_8  and  C_14
REMARK    4  A    between atoms: C_17  and  C_18
REMARK                            x       y       z     vdW  Elec       q    Type
REMARK                         _______ _______ _______ _____ _____    ______ ____
ROOT
ATOM      4  N   UNL     1      -3.745   1.133  25.200  0.00  0.00    -0.286 NA
ATOM      8  C   UNL     1      -3.001   2.311  24.711  0.00  0.00    +0.149 C 
ATOM      9  C   UNL     1      -5.163   1.482  25.134  0.00  0.00    +0.116 C 
ATOM     10  C   UNL     1      -3.911   3.512  25.032  0.00  0.00    +0.061 C 
ATOM     11  C   UNL     1      -5.160   2.904  25.658  0.00  0.00    +0.130 C 
ENDROOT
BRANCH   4   7
ATOM      1  O   UNL     1      -3.326  -2.964  24.382  0.00  0.00    -0.380 OA
ATOM      7  C   UNL     1      -3.444  -0.089  24.457  0.00  0.00    +0.062 C 
ATOM     12  C   UNL     1      -2.342  -0.883  25.163  0.00  0.00    +0.047 C 
ATOM     13  C   UNL     1      -4.695  -0.957  24.293  0.00  0.00    +0.047 C 
ATOM     15  C   UNL     1      -2.113  -2.215  24.457  0.00  0.00    +0.161 C 
ATOM     16  C   UNL     1      -4.335  -2.284  23.634  0.00  0.00    +0.161 C 
ENDBRANCH   4   7
BRANCH   8  14
ATOM      3  O   UNL     1      -0.582   2.569  24.479  0.00  0.00    -0.336 OA
ATOM      5  N   UNL     1      -1.286   2.425  26.600  0.00  0.00    -0.190 NA
ATOM      6  N   UNL     1       0.565   2.661  25.278  0.00  0.00    -0.056 NA
ATOM     14  C   UNL     1      -1.628   2.433  25.336  0.00  0.00    +0.245 A 
ATOM     17  C   UNL     1       0.068   2.568  26.514  0.00  0.00    +0.202 A 
BRANCH  17  18
ATOM     18  C   UNL     1       0.896   2.615  27.684  0.00  0.00    +0.022 A 
ATOM     19  C   UNL     1       2.224   3.028  27.581  0.00  0.00    +0.012 A 
ATOM     20  C   UNL     1       0.374   2.249  28.924  0.00  0.00    +0.012 A 
ATOM     21  C   UNL     1       3.031   3.073  28.718  0.00  0.00    +0.001 A 
ATOM     22  C   UNL     1       1.181   2.295  30.062  0.00  0.00    +0.001 A 
ATOM     23  C   UNL     1       2.509   2.707  29.959  0.00  0.00    +0.000 A 
ENDBRANCH  17  18
ENDBRANCH   8  14
BRANCH  11   2
ATOM      2  O   UNL     1      -6.316   3.614  25.259  0.00  0.00    -0.390 OA
ATOM     24  H   UNL     1      -6.663   3.183  24.459  0.00  0.00    +0.210 HD
ENDBRANCH  11   2
TORSDOF 4
ENDMDL
