MODEL 1
REMARK VINA RESULT:      10.6      0.000      0.000
REMARK  Name = 7155623
REMARK  7 active torsions:
REMARK  status: ('A' for Active; 'I' for Inactive)
REMARK    1  A    between atoms: S_1  and  C_26
REMARK    2  A    between atoms: S_1  and  C_31
REMARK    3  A    between atoms: N_8  and  C_22
REMARK    4  A    between atoms: N_9  and  C_20
REMARK    5  A    between atoms: C_23  and  C_26
REMARK    6  A    between atoms: C_29  and  C_30
REMARK    7  A    between atoms: C_30  and  C_32
REMARK                            x       y       z     vdW  Elec       q    Type
REMARK                         _______ _______ _______ _____ _____    ______ ____
ROOT
ATOM      2  O   UNL     1      -1.247   1.643  22.232  0.00  0.00    -0.266 OA
ATOM      3  O   UNL     1      -2.372   4.895  25.973  0.00  0.00    -0.252 OA
ATOM      6  N   UNL     1      -4.060   3.316  25.964  0.00  0.00    -0.284 N 
ATOM      7  N   UNL     1      -3.051   1.385  23.693  0.00  0.00    -0.310 N 
ATOM      8  N   UNL     1      -2.268   3.139  27.486  0.00  0.00    -0.269 N 
ATOM     10  C   UNL     1      -5.055   2.981  23.712  0.00  0.00    +0.027 C 
ATOM     11  C   UNL     1      -4.966   1.105  25.308  0.00  0.00    +0.054 C 
ATOM     12  C   UNL     1      -5.828   1.775  24.237  0.00  0.00    +0.018 C 
ATOM     13  C   UNL     1      -4.755   3.972  24.855  0.00  0.00    +0.114 C 
ATOM     14  C   UNL     1      -3.774   2.481  23.030  0.00  0.00    +0.130 C 
ATOM     15  C   UNL     1      -4.731   2.102  26.459  0.00  0.00    +0.119 C 
ATOM     16  C   UNL     1      -3.635   0.656  24.736  0.00  0.00    +0.027 A 
ATOM     17  C   UNL     1      -3.002  -0.410  25.253  0.00  0.00    +0.024 A 
ATOM     18  C   UNL     1      -1.792   1.045  23.161  0.00  0.00    +0.273 A 
ATOM     19  C   UNL     1      -2.859   3.869  26.455  0.00  0.00    +0.306 C 
ATOM     20  C   UNL     1      -1.107  -0.133  23.783  0.00  0.00    +0.099 A 
ATOM     21  C   UNL     1      -1.712  -0.808  24.766  0.00  0.00    +0.030 A 
ATOM     33  H   UNL     1      -2.869   2.599  28.098  0.00  0.00    +0.156 HD
ENDROOT
BRANCH   8  22
ATOM     22  C   UNL     1      -0.888   3.042  27.789  0.00  0.00    +0.035 A 
ATOM     24  C   UNL     1       0.048   2.956  26.759  0.00  0.00    +0.024 A 
ATOM     25  C   UNL     1      -0.465   3.032  29.118  0.00  0.00    +0.024 A 
ATOM     27  C   UNL     1       1.408   2.860  27.058  0.00  0.00    +0.013 A 
ATOM     28  C   UNL     1       0.894   2.936  29.417  0.00  0.00    +0.013 A 
ATOM     29  C   UNL     1       1.830   2.850  28.387  0.00  0.00    +0.017 A 
BRANCH  29  30
ATOM      5  O   UNL     1       3.944   1.808  28.270  0.00  0.00    -0.292 OA
ATOM     30  C   UNL     1       3.248   2.751  28.698  0.00  0.00    +0.160 C 
ATOM     32  C   UNL     1       3.920   3.809  29.566  0.00  0.00    +0.091 C 
ENDBRANCH  29  30
ENDBRANCH   8  22
BRANCH  20   9
ATOM      4  O   UNL     1       1.273   1.453  23.909  0.00  0.00    -0.275 OA
ATOM      9  N   UNL     1       0.123  -0.482  23.308  0.00  0.00    -0.281 N 
ATOM     23  C   UNL     1       1.243   0.331  23.405  0.00  0.00    +0.227 C 
ATOM     34  H   UNL     1       0.156  -1.270  22.666  0.00  0.00    +0.155 HD
BRANCH  23  26
ATOM     26  C   UNL     1       2.476  -0.298  22.799  0.00  0.00    +0.164 C 
BRANCH  26   1
ATOM      1  S   UNL     1       3.779   0.952  22.694  0.00  0.00    -0.155 S 
ATOM     31  C   UNL     1       5.130  -0.005  23.422  0.00  0.00    +0.085 C 
ENDBRANCH  26   1
ENDBRANCH  23  26
ENDBRANCH  20   9
TORSDOF 5
ENDMDL
MODEL 2
REMARK VINA RESULT:      11.9      2.581      5.578
REMARK  Name = 7155623
REMARK  7 active torsions:
REMARK  status: ('A' for Active; 'I' for Inactive)
REMARK    1  A    between atoms: S_1  and  C_26
REMARK    2  A    between atoms: S_1  and  C_31
REMARK    3  A    between atoms: N_8  and  C_22
REMARK    4  A    between atoms: N_9  and  C_20
REMARK    5  A    between atoms: C_23  and  C_26
REMARK    6  A    between atoms: C_29  and  C_30
REMARK    7  A    between atoms: C_30  and  C_32
REMARK                            x       y       z     vdW  Elec       q    Type
REMARK                         _______ _______ _______ _____ _____    ______ ____
ROOT
ATOM      2  O   UNL     1       0.078   2.246  26.477  0.00  0.00    -0.266 OA
ATOM      3  O   UNL     1      -4.702   0.533  26.693  0.00  0.00    -0.252 OA
ATOM      6  N   UNL     1      -4.786   2.526  25.525  0.00  0.00    -0.284 N 
ATOM      7  N   UNL     1      -1.731   3.276  25.416  0.00  0.00    -0.310 N 
ATOM      8  N   UNL     1      -4.749   0.467  24.374  0.00  0.00    -0.269 N 
ATOM     10  C   UNL     1      -3.643   4.387  26.709  0.00  0.00    +0.027 C 
ATOM     11  C   UNL     1      -3.691   4.343  24.245  0.00  0.00    +0.054 C 
ATOM     12  C   UNL     1      -3.784   5.261  25.466  0.00  0.00    +0.018 C 
ATOM     13  C   UNL     1      -4.757   3.322  26.753  0.00  0.00    +0.114 C 
ATOM     14  C   UNL     1      -2.243   3.759  26.707  0.00  0.00    +0.130 C 
ATOM     15  C   UNL     1      -4.849   3.328  24.290  0.00  0.00    +0.119 C 
ATOM     16  C   UNL     1      -2.364   3.611  24.213  0.00  0.00    +0.027 A 
ATOM     17  C   UNL     1      -1.818   3.251  23.040  0.00  0.00    +0.024 A 
ATOM     18  C   UNL     1      -0.525   2.548  25.446  0.00  0.00    +0.273 A 
ATOM     19  C   UNL     1      -4.755   1.118  25.607  0.00  0.00    +0.306 C 
ATOM     20  C   UNL     1       0.036   2.143  24.118  0.00  0.00    +0.099 A 
ATOM     21  C   UNL     1      -0.595   2.500  22.995  0.00  0.00    +0.030 A 
ATOM     33  H   UNL     1      -5.201   0.922  23.589  0.00  0.00    +0.156 HD
ENDROOT
BRANCH   8  22
ATOM     22  C   UNL     1      -4.161  -0.784  24.065  0.00  0.00    +0.035 A 
ATOM     24  C   UNL     1      -4.948  -1.818  23.560  0.00  0.00    +0.024 A 
ATOM     25  C   UNL     1      -2.796  -0.982  24.269  0.00  0.00    +0.024 A 
ATOM     27  C   UNL     1      -4.369  -3.051  23.257  0.00  0.00    +0.013 A 
ATOM     28  C   UNL     1      -2.217  -2.214  23.966  0.00  0.00    +0.013 A 
ATOM     29  C   UNL     1      -3.004  -3.248  23.460  0.00  0.00    +0.017 A 
BRANCH  29  30
ATOM      5  O   UNL     1      -3.087  -5.572  23.059  0.00  0.00    -0.292 OA
ATOM     30  C   UNL     1      -2.401  -4.534  23.144  0.00  0.00    +0.160 C 
ATOM     32  C   UNL     1      -0.897  -4.641  22.907  0.00  0.00    +0.091 C 
ENDBRANCH  29  30
ENDBRANCH   8  22
BRANCH  20   9
ATOM      4  O   UNL     1       0.565  -0.185  22.538  0.00  0.00    -0.275 OA
ATOM      9  N   UNL     1       1.193   1.421  24.105  0.00  0.00    -0.281 N 
ATOM     23  C   UNL     1       1.391   0.301  23.309  0.00  0.00    +0.227 C 
ATOM     34  H   UNL     1       1.841   1.586  24.871  0.00  0.00    +0.155 HD
BRANCH  23  26
ATOM     26  C   UNL     1       2.762  -0.309  23.489  0.00  0.00    +0.164 C 
BRANCH  26   1
ATOM      1  S   UNL     1       3.992   0.784  22.741  0.00  0.00    -0.155 S 
ATOM     31  C   UNL     1       5.471   0.106  23.529  0.00  0.00    +0.085 C 
ENDBRANCH  26   1
ENDBRANCH  23  26
ENDBRANCH  20   9
TORSDOF 5
ENDMDL
MODEL 3
REMARK VINA RESULT:      12.1      2.808      4.388
REMARK  Name = 7155623
REMARK  7 active torsions:
REMARK  status: ('A' for Active; 'I' for Inactive)
REMARK    1  A    between atoms: S_1  and  C_26
REMARK    2  A    between atoms: S_1  and  C_31
REMARK    3  A    between atoms: N_8  and  C_22
REMARK    4  A    between atoms: N_9  and  C_20
REMARK    5  A    between atoms: C_23  and  C_26
REMARK    6  A    between atoms: C_29  and  C_30
REMARK    7  A    between atoms: C_30  and  C_32
REMARK                            x       y       z     vdW  Elec       q    Type
REMARK                         _______ _______ _______ _____ _____    ______ ____
ROOT
ATOM      2  O   UNL     1      -0.305  -1.357  22.051  0.00  0.00    -0.266 OA
ATOM      3  O   UNL     1      -4.746   0.681  23.446  0.00  0.00    -0.252 OA
ATOM      6  N   UNL     1      -4.365  -1.082  24.892  0.00  0.00    -0.284 N 
ATOM      7  N   UNL     1      -1.536  -2.051  23.911  0.00  0.00    -0.310 N 
ATOM      8  N   UNL     1      -3.846   1.126  25.539  0.00  0.00    -0.269 N 
ATOM     10  C   UNL     1      -3.818  -3.197  23.709  0.00  0.00    +0.027 C 
ATOM     11  C   UNL     1      -2.862  -2.751  25.937  0.00  0.00    +0.054 C 
ATOM     12  C   UNL     1      -3.450  -3.843  25.042  0.00  0.00    +0.018 C 
ATOM     13  C   UNL     1      -4.845  -2.066  23.920  0.00  0.00    +0.114 C 
ATOM     14  C   UNL     1      -2.532  -2.693  23.041  0.00  0.00    +0.130 C 
ATOM     15  C   UNL     1      -3.929  -1.665  26.173  0.00  0.00    +0.119 C 
ATOM     16  C   UNL     1      -1.629  -2.133  25.305  0.00  0.00    +0.027 A 
ATOM     17  C   UNL     1      -0.651  -1.634  26.078  0.00  0.00    +0.024 A 
ATOM     18  C   UNL     1      -0.440  -1.438  23.273  0.00  0.00    +0.273 A 
ATOM     19  C   UNL     1      -4.359   0.287  24.550  0.00  0.00    +0.306 C 
ATOM     20  C   UNL     1       0.615  -0.870  24.171  0.00  0.00    +0.099 A 
ATOM     21  C   UNL     1       0.491  -0.988  25.497  0.00  0.00    +0.030 A 
ATOM     33  H   UNL     1      -3.945   0.843  26.507  0.00  0.00    +0.156 HD
ENDROOT
BRANCH   8  22
ATOM     22  C   UNL     1      -3.173   2.359  25.356  0.00  0.00    +0.035 A 
ATOM     24  C   UNL     1      -1.810   2.457  25.634  0.00  0.00    +0.024 A 
ATOM     25  C   UNL     1      -3.875   3.475  24.901  0.00  0.00    +0.024 A 
ATOM     27  C   UNL     1      -1.148   3.671  25.455  0.00  0.00    +0.013 A 
ATOM     28  C   UNL     1      -3.212   4.689  24.722  0.00  0.00    +0.013 A 
ATOM     29  C   UNL     1      -1.849   4.787  24.999  0.00  0.00    +0.017 A 
BRANCH  29  30
ATOM      5  O   UNL     1      -1.715   7.142  25.057  0.00  0.00    -0.292 OA
ATOM     30  C   UNL     1      -1.157   6.053  24.812  0.00  0.00    +0.160 C 
ATOM     32  C   UNL     1       0.281   6.076  24.306  0.00  0.00    +0.091 C 
ENDBRANCH  29  30
ENDBRANCH   8  22
BRANCH  20   9
ATOM      4  O   UNL     1       1.059   1.954  24.008  0.00  0.00    -0.275 OA
ATOM      9  N   UNL     1       1.684  -0.252  23.591  0.00  0.00    -0.281 N 
ATOM     23  C   UNL     1       1.846   1.126  23.550  0.00  0.00    +0.227 C 
ATOM     34  H   UNL     1       2.261  -0.821  22.977  0.00  0.00    +0.155 HD
BRANCH  23  26
ATOM     26  C   UNL     1       3.117   1.545  22.849  0.00  0.00    +0.164 C 
BRANCH  26   1
ATOM      1  S   UNL     1       4.135   0.079  22.558  0.00  0.00    -0.155 S 
ATOM     31  C   UNL     1       5.391   0.367  23.826  0.00  0.00    +0.085 C 
ENDBRANCH  26   1
ENDBRANCH  23  26
ENDBRANCH  20   9
TORSDOF 5
ENDMDL
MODEL 4
REMARK VINA RESULT:      12.4      3.422      5.594
REMARK  Name = 7155623
REMARK  7 active torsions:
REMARK  status: ('A' for Active; 'I' for Inactive)
REMARK    1  A    between atoms: S_1  and  C_26
REMARK    2  A    between atoms: S_1  and  C_31
REMARK    3  A    between atoms: N_8  and  C_22
REMARK    4  A    between atoms: N_9  and  C_20
REMARK    5  A    between atoms: C_23  and  C_26
REMARK    6  A    between atoms: C_29  and  C_30
REMARK    7  A    between atoms: C_30  and  C_32
REMARK                            x       y       z     vdW  Elec       q    Type
REMARK                         _______ _______ _______ _____ _____    ______ ____
ROOT
ATOM      2  O   UNL     1      -2.650   2.239  26.085  0.00  0.00    -0.266 OA
ATOM      3  O   UNL     1      -0.284  -2.257  25.963  0.00  0.00    -0.252 OA
ATOM      6  N   UNL     1      -2.174  -2.489  24.652  0.00  0.00    -0.284 N 
ATOM      7  N   UNL     1      -3.348   0.428  24.785  0.00  0.00    -0.310 N 
ATOM      8  N   UNL     1      -0.081  -2.050  23.660  0.00  0.00    -0.269 N 
ATOM     10  C   UNL     1      -4.245  -1.744  25.806  0.00  0.00    +0.027 C 
ATOM     11  C   UNL     1      -4.054  -1.526  23.358  0.00  0.00    +0.054 C 
ATOM     12  C   UNL     1      -5.017  -1.871  24.496  0.00  0.00    +0.018 C 
ATOM     13  C   UNL     1      -3.035  -2.700  25.818  0.00  0.00    +0.114 C 
ATOM     14  C   UNL     1      -3.825  -0.278  25.983  0.00  0.00    +0.130 C 
ATOM     15  C   UNL     1      -2.887  -2.531  23.363  0.00  0.00    +0.119 C 
ATOM     16  C   UNL     1      -3.519  -0.114  23.506  0.00  0.00    +0.027 A 
ATOM     17  C   UNL     1      -3.175   0.596  22.419  0.00  0.00    +0.024 A 
ATOM     18  C   UNL     1      -2.804   1.712  24.982  0.00  0.00    +0.273 A 
ATOM     19  C   UNL     1      -0.793  -2.275  24.838  0.00  0.00    +0.306 C 
ATOM     20  C   UNL     1      -2.408   2.460  23.746  0.00  0.00    +0.099 A 
ATOM     21  C   UNL     1      -2.607   1.908  22.545  0.00  0.00    +0.030 A 
ATOM     33  H   UNL     1      -0.420  -2.475  22.805  0.00  0.00    +0.156 HD
ENDROOT
BRANCH   8  22
ATOM     22  C   UNL     1       1.089  -1.267  23.499  0.00  0.00    +0.035 A 
ATOM     24  C   UNL     1       2.341  -1.820  23.767  0.00  0.00    +0.024 A 
ATOM     25  C   UNL     1       0.988   0.058  23.075  0.00  0.00    +0.024 A 
ATOM     27  C   UNL     1       3.492  -1.049  23.609  0.00  0.00    +0.013 A 
ATOM     28  C   UNL     1       2.139   0.829  22.918  0.00  0.00    +0.013 A 
ATOM     29  C   UNL     1       3.391   0.276  23.185  0.00  0.00    +0.017 A 
BRANCH  29  30
ATOM      5  O   UNL     1       4.573   2.160  22.397  0.00  0.00    -0.292 OA
ATOM     30  C   UNL     1       4.592   1.080  23.020  0.00  0.00    +0.160 C 
ATOM     32  C   UNL     1       5.918   0.612  23.613  0.00  0.00    +0.091 C 
ENDBRANCH  29  30
ENDBRANCH   8  22
BRANCH  20   9
ATOM      4  O   UNL     1       0.150   3.057  24.886  0.00  0.00    -0.275 OA
ATOM      9  N   UNL     1      -1.860   3.700  23.897  0.00  0.00    -0.281 N 
ATOM     23  C   UNL     1      -0.608   3.924  24.453  0.00  0.00    +0.227 C 
ATOM     34  H   UNL     1      -2.491   4.491  23.800  0.00  0.00    +0.155 HD
BRANCH  23  26
ATOM     26  C   UNL     1      -0.243   5.390  24.500  0.00  0.00    +0.164 C 
BRANCH  26   1
ATOM      1  S   UNL     1      -1.744   6.358  24.783  0.00  0.00    -0.155 S 
ATOM     31  C   UNL     1      -2.536   5.279  25.998  0.00  0.00    +0.085 C 
ENDBRANCH  26   1
ENDBRANCH  23  26
ENDBRANCH  20   9
TORSDOF 5
ENDMDL
MODEL 5
REMARK VINA RESULT:      13.1      2.412      5.684
REMARK  Name = 7155623
REMARK  7 active torsions:
REMARK  status: ('A' for Active; 'I' for Inactive)
REMARK    1  A    between atoms: S_1  and  C_26
REMARK    2  A    between atoms: S_1  and  C_31
REMARK    3  A    between atoms: N_8  and  C_22
REMARK    4  A    between atoms: N_9  and  C_20
REMARK    5  A    between atoms: C_23  and  C_26
REMARK    6  A    between atoms: C_29  and  C_30
REMARK    7  A    between atoms: C_30  and  C_32
REMARK                            x       y       z     vdW  Elec       q    Type
REMARK                         _______ _______ _______ _____ _____    ______ ____
ROOT
ATOM      2  O   UNL     1      -1.023   0.373  27.540  0.00  0.00    -0.266 OA
ATOM      3  O   UNL     1      -0.539  -1.487  22.835  0.00  0.00    -0.252 OA
ATOM      6  N   UNL     1      -1.763   0.462  22.632  0.00  0.00    -0.284 N 
ATOM      7  N   UNL     1      -1.787   1.460  25.617  0.00  0.00    -0.310 N 
ATOM      8  N   UNL     1       0.557   0.462  22.213  0.00  0.00    -0.269 N 
ATOM     10  C   UNL     1      -3.704   0.548  24.182  0.00  0.00    +0.027 C 
ATOM     11  C   UNL     1      -2.562   2.632  23.525  0.00  0.00    +0.054 C 
ATOM     12  C   UNL     1      -3.930   2.011  23.812  0.00  0.00    +0.018 C 
ATOM     13  C   UNL     1      -3.006  -0.201  23.029  0.00  0.00    +0.114 C 
ATOM     14  C   UNL     1      -2.888   0.495  25.481  0.00  0.00    +0.130 C 
ATOM     15  C   UNL     1      -1.917   1.897  22.334  0.00  0.00    +0.119 C 
ATOM     16  C   UNL     1      -1.656   2.541  24.738  0.00  0.00    +0.027 A 
ATOM     17  C   UNL     1      -0.708   3.470  24.945  0.00  0.00    +0.024 A 
ATOM     18  C   UNL     1      -0.936   1.297  26.728  0.00  0.00    +0.273 A 
ATOM     19  C   UNL     1      -0.568  -0.283  22.565  0.00  0.00    +0.306 C 
ATOM     20  C   UNL     1       0.124   2.339  26.909  0.00  0.00    +0.099 A 
ATOM     21  C   UNL     1       0.199   3.363  26.052  0.00  0.00    +0.030 A 
ATOM     33  H   UNL     1       0.429   1.274  21.621  0.00  0.00    +0.156 HD
ENDROOT
BRANCH   8  22
ATOM     22  C   UNL     1       1.899   0.226  22.600  0.00  0.00    +0.035 A 
ATOM     24  C   UNL     1       2.277  -1.027  23.080  0.00  0.00    +0.024 A 
ATOM     25  C   UNL     1       2.842   1.250  22.504  0.00  0.00    +0.024 A 
ATOM     27  C   UNL     1       3.599  -1.259  23.462  0.00  0.00    +0.013 A 
ATOM     28  C   UNL     1       4.163   1.019  22.886  0.00  0.00    +0.013 A 
ATOM     29  C   UNL     1       4.542  -0.235  23.365  0.00  0.00    +0.017 A 
BRANCH  29  30
ATOM      5  O   UNL     1       6.228  -0.672  24.955  0.00  0.00    -0.292 OA
ATOM     30  C   UNL     1       5.920  -0.477  23.763  0.00  0.00    +0.160 C 
ATOM     32  C   UNL     1       7.030  -0.495  22.717  0.00  0.00    +0.091 C 
ENDBRANCH  29  30
ENDBRANCH   8  22
BRANCH  20   9
ATOM      4  O   UNL     1      -0.419   3.039  29.631  0.00  0.00    -0.275 OA
ATOM      9  N   UNL     1       0.979   2.206  27.963  0.00  0.00    -0.281 N 
ATOM     23  C   UNL     1       0.654   2.559  29.265  0.00  0.00    +0.227 C 
ATOM     34  H   UNL     1       1.959   2.053  27.738  0.00  0.00    +0.155 HD
BRANCH  23  26
ATOM     26  C   UNL     1       1.783   2.309  30.238  0.00  0.00    +0.164 C 
BRANCH  26   1
ATOM      1  S   UNL     1       3.357   2.500  29.370  0.00  0.00    -0.155 S 
ATOM     31  C   UNL     1       3.140   4.199  28.789  0.00  0.00    +0.085 C 
ENDBRANCH  26   1
ENDBRANCH  23  26
ENDBRANCH  20   9
TORSDOF 5
ENDMDL
MODEL 6
REMARK VINA RESULT:      14.3      3.223      6.293
REMARK  Name = 7155623
REMARK  7 active torsions:
REMARK  status: ('A' for Active; 'I' for Inactive)
REMARK    1  A    between atoms: S_1  and  C_26
REMARK    2  A    between atoms: S_1  and  C_31
REMARK    3  A    between atoms: N_8  and  C_22
REMARK    4  A    between atoms: N_9  and  C_20
REMARK    5  A    between atoms: C_23  and  C_26
REMARK    6  A    between atoms: C_29  and  C_30
REMARK    7  A    between atoms: C_30  and  C_32
REMARK                            x       y       z     vdW  Elec       q    Type
REMARK                         _______ _______ _______ _____ _____    ______ ____
ROOT
ATOM      2  O   UNL     1       0.029   0.685  22.741  0.00  0.00    -0.266 OA
ATOM      3  O   UNL     1      -4.712  -1.091  23.189  0.00  0.00    -0.252 OA
ATOM      6  N   UNL     1      -3.426  -2.312  24.671  0.00  0.00    -0.284 N 
ATOM      7  N   UNL     1      -0.622  -0.930  24.298  0.00  0.00    -0.310 N 
ATOM      8  N   UNL     1      -4.696  -0.474  25.426  0.00  0.00    -0.269 N 
ATOM     10  C   UNL     1      -1.394  -3.277  23.617  0.00  0.00    +0.027 C 
ATOM     11  C   UNL     1      -1.359  -2.640  25.998  0.00  0.00    +0.054 C 
ATOM     12  C   UNL     1      -0.879  -3.689  24.993  0.00  0.00    +0.018 C 
ATOM     13  C   UNL     1      -2.934  -3.197  23.615  0.00  0.00    +0.114 C 
ATOM     14  C   UNL     1      -0.746  -1.939  23.235  0.00  0.00    +0.130 C 
ATOM     15  C   UNL     1      -2.899  -2.624  26.012  0.00  0.00    +0.119 C 
ATOM     16  C   UNL     1      -0.833  -1.263  25.641  0.00  0.00    +0.027 A 
ATOM     17  C   UNL     1      -0.608  -0.354  26.605  0.00  0.00    +0.024 A 
ATOM     18  C   UNL     1      -0.188   0.351  23.907  0.00  0.00    +0.273 A 
ATOM     19  C   UNL     1      -4.326  -1.275  24.347  0.00  0.00    +0.306 C 
ATOM     20  C   UNL     1       0.025   1.342  25.009  0.00  0.00    +0.099 A 
ATOM     21  C   UNL     1      -0.173   0.974  26.279  0.00  0.00    +0.030 A 
ATOM     33  H   UNL     1      -4.709  -0.889  26.351  0.00  0.00    +0.156 HD
ENDROOT
BRANCH   8  22
ATOM     22  C   UNL     1      -5.057   0.895  25.396  0.00  0.00    +0.035 A 
ATOM     24  C   UNL     1      -4.322   1.794  24.623  0.00  0.00    +0.024 A 
ATOM     25  C   UNL     1      -6.147   1.345  26.142  0.00  0.00    +0.024 A 
ATOM     27  C   UNL     1      -4.678   3.143  24.595  0.00  0.00    +0.013 A 
ATOM     28  C   UNL     1      -6.502   2.694  26.113  0.00  0.00    +0.013 A 
ATOM     29  C   UNL     1      -5.768   3.592  25.340  0.00  0.00    +0.017 A 
BRANCH  29  30
ATOM      5  O   UNL     1      -6.891   5.493  26.172  0.00  0.00    -0.292 OA
ATOM     30  C   UNL     1      -6.138   4.999  25.309  0.00  0.00    +0.160 C 
ATOM     32  C   UNL     1      -5.608   5.909  24.206  0.00  0.00    +0.091 C 
ENDBRANCH  29  30
ENDBRANCH   8  22
BRANCH  20   9
ATOM      4  O   UNL     1      -1.500   3.275  23.547  0.00  0.00    -0.275 OA
ATOM      9  N   UNL     1       0.428   2.600  24.670  0.00  0.00    -0.281 N 
ATOM     23  C   UNL     1      -0.363   3.496  23.963  0.00  0.00    +0.227 C 
ATOM     34  H   UNL     1       1.423   2.796  24.748  0.00  0.00    +0.155 HD
BRANCH  23  26
ATOM     26  C   UNL     1       0.326   4.819  23.721  0.00  0.00    +0.164 C 
BRANCH  26   1
ATOM      1  S   UNL     1      -0.634   6.132  24.510  0.00  0.00    -0.155 S 
ATOM     31  C   UNL     1      -1.774   5.099  25.459  0.00  0.00    +0.085 C 
ENDBRANCH  26   1
ENDBRANCH  23  26
ENDBRANCH  20   9
TORSDOF 5
ENDMDL
