MODEL 1
REMARK VINA RESULT:      11.0      0.000      0.000
REMARK  Name = 75368456
REMARK  6 active torsions:
REMARK  status: ('A' for Active; 'I' for Inactive)
REMARK    1  A    between atoms: O_6  and  C_26
REMARK    2  A    between atoms: O_6  and  C_31
REMARK    3  A    between atoms: N_8  and  C_16
REMARK    4  A    between atoms: C_16  and  C_18
REMARK    5  A    between atoms: C_17  and  C_19
REMARK    6  A    between atoms: C_29  and  C_30
REMARK                            x       y       z     vdW  Elec       q    Type
REMARK                         _______ _______ _______ _____ _____    ______ ____
ROOT
ATOM      4  O   UNL     1       2.689  -1.780  23.438  0.00  0.00    -0.252 OA
ATOM      5  O   UNL     1      -3.742  -1.374  26.136  0.00  0.00    -0.270 OA
ATOM      7  N   UNL     1       0.648  -0.848  24.135  0.00  0.00    -0.278 N 
ATOM      8  N   UNL     1       2.002   0.397  22.844  0.00  0.00    -0.279 N 
ATOM      9  N   UNL     1      -2.086  -0.726  24.622  0.00  0.00    -0.294 N 
ATOM     10  C   UNL     1      -0.006   0.448  24.061  0.00  0.00    +0.112 C 
ATOM     11  C   UNL     1       0.808   1.205  23.016  0.00  0.00    +0.133 C 
ATOM     12  C   UNL     1      -1.483   0.274  23.720  0.00  0.00    +0.132 C 
ATOM     13  C   UNL     1       0.056  -1.912  24.928  0.00  0.00    +0.128 C 
ATOM     14  C   UNL     1      -1.432  -2.042  24.602  0.00  0.00    +0.127 C 
ATOM     15  C   UNL     1       1.882  -0.859  23.473  0.00  0.00    +0.306 C 
ATOM     17  C   UNL     1      -3.215  -0.526  25.418  0.00  0.00    +0.247 C 
ENDROOT
BRANCH  17  19
ATOM     19  C   UNL     1      -3.833   0.806  25.421  0.00  0.00    +0.037 A 
ATOM     22  C   UNL     1      -5.221   0.931  25.451  0.00  0.00    +0.013 A 
ATOM     23  C   UNL     1      -3.030   1.946  25.394  0.00  0.00    +0.013 A 
ATOM     27  C   UNL     1      -5.808   2.196  25.454  0.00  0.00    +0.013 A 
ATOM     28  C   UNL     1      -3.616   3.212  25.396  0.00  0.00    +0.013 A 
ATOM     29  C   UNL     1      -5.005   3.337  25.426  0.00  0.00    +0.055 A 
BRANCH  29  30
ATOM      1  F   UNL     1      -5.462   5.374  24.259  0.00  0.00    -0.166 F 
ATOM      2  F   UNL     1      -5.146   5.517  26.399  0.00  0.00    -0.166 F 
ATOM      3  F   UNL     1      -6.982   4.642  25.631  0.00  0.00    -0.166 F 
ATOM     30  C   UNL     1      -5.633   4.690  25.428  0.00  0.00    +0.417 C 
ENDBRANCH  29  30
ENDBRANCH  17  19
BRANCH   8  16
ATOM     16  C   UNL     1       3.100   0.821  22.004  0.00  0.00    +0.144 C 
BRANCH  16  18
ATOM     18  C   UNL     1       4.433   0.492  22.611  0.00  0.00    -0.030 A 
ATOM     20  C   UNL     1       5.329  -0.330  21.926  0.00  0.00    +0.009 A 
ATOM     21  C   UNL     1       4.777   1.010  23.860  0.00  0.00    +0.009 A 
ATOM     24  C   UNL     1       6.567  -0.634  22.491  0.00  0.00    +0.046 A 
ATOM     25  C   UNL     1       6.015   0.706  24.424  0.00  0.00    +0.046 A 
ATOM     26  C   UNL     1       6.910  -0.116  23.739  0.00  0.00    +0.120 A 
BRANCH  26   6
ATOM      6  O   UNL     1       8.120  -0.412  24.289  0.00  0.00    -0.495 OA
ATOM     31  C   UNL     1       9.280   0.023  23.581  0.00  0.00    +0.277 C 
ENDBRANCH  26   6
ENDBRANCH  16  18
ENDBRANCH   8  16
TORSDOF 5
ENDMDL
MODEL 2
REMARK VINA RESULT:      14.5      1.748      2.476
REMARK  Name = 75368456
REMARK  6 active torsions:
REMARK  status: ('A' for Active; 'I' for Inactive)
REMARK    1  A    between atoms: O_6  and  C_26
REMARK    2  A    between atoms: O_6  and  C_31
REMARK    3  A    between atoms: N_8  and  C_16
REMARK    4  A    between atoms: C_16  and  C_18
REMARK    5  A    between atoms: C_17  and  C_19
REMARK    6  A    between atoms: C_29  and  C_30
REMARK                            x       y       z     vdW  Elec       q    Type
REMARK                         _______ _______ _______ _____ _____    ______ ____
ROOT
ATOM      4  O   UNL     1       0.491  -2.865  25.117  0.00  0.00    -0.252 OA
ATOM      5  O   UNL     1      -5.109   1.071  26.514  0.00  0.00    -0.270 OA
ATOM      7  N   UNL     1      -0.993  -1.045  25.052  0.00  0.00    -0.278 N 
ATOM      8  N   UNL     1       0.640  -1.144  23.512  0.00  0.00    -0.279 N 
ATOM      9  N   UNL     1      -3.437   0.277  25.088  0.00  0.00    -0.294 N 
ATOM     10  C   UNL     1      -1.111   0.201  24.313  0.00  0.00    +0.112 C 
ATOM     11  C   UNL     1      -0.144   0.022  23.145  0.00  0.00    +0.133 C 
ATOM     12  C   UNL     1      -2.564   0.438  23.910  0.00  0.00    +0.132 C 
ATOM     13  C   UNL     1      -1.888  -1.313  26.165  0.00  0.00    +0.128 C 
ATOM     14  C   UNL     1      -3.333  -1.028  25.754  0.00  0.00    +0.127 C 
ATOM     15  C   UNL     1       0.097  -1.815  24.626  0.00  0.00    +0.306 C 
ATOM     17  C   UNL     1      -4.350   1.223  25.558  0.00  0.00    +0.247 C 
ENDROOT
BRANCH  17  19
ATOM     19  C   UNL     1      -4.416   2.521  24.875  0.00  0.00    +0.037 A 
ATOM     22  C   UNL     1      -3.882   2.663  23.594  0.00  0.00    +0.013 A 
ATOM     23  C   UNL     1      -5.013   3.612  25.506  0.00  0.00    +0.013 A 
ATOM     27  C   UNL     1      -3.944   3.896  22.945  0.00  0.00    +0.013 A 
ATOM     28  C   UNL     1      -5.074   4.845  24.858  0.00  0.00    +0.013 A 
ATOM     29  C   UNL     1      -4.540   4.987  23.578  0.00  0.00    +0.055 A 
BRANCH  29  30
ATOM      1  F   UNL     1      -4.654   6.206  21.522  0.00  0.00    -0.166 F 
ATOM      2  F   UNL     1      -3.537   7.115  23.144  0.00  0.00    -0.166 F 
ATOM      3  F   UNL     1      -5.707   7.030  23.237  0.00  0.00    -0.166 F 
ATOM     30  C   UNL     1      -4.606   6.306  22.883  0.00  0.00    +0.417 C 
ENDBRANCH  29  30
ENDBRANCH  17  19
BRANCH   8  16
ATOM     16  C   UNL     1       1.758  -1.597  22.714  0.00  0.00    +0.144 C 
BRANCH  16  18
ATOM     18  C   UNL     1       3.033  -0.896  23.081  0.00  0.00    -0.030 A 
ATOM     20  C   UNL     1       3.267   0.407  22.638  0.00  0.00    +0.009 A 
ATOM     21  C   UNL     1       3.985  -1.547  23.867  0.00  0.00    +0.009 A 
ATOM     24  C   UNL     1       4.452   1.056  22.980  0.00  0.00    +0.046 A 
ATOM     25  C   UNL     1       5.169  -0.895  24.209  0.00  0.00    +0.046 A 
ATOM     26  C   UNL     1       5.403   0.406  23.766  0.00  0.00    +0.120 A 
BRANCH  26   6
ATOM      6  O   UNL     1       6.559   1.042  24.101  0.00  0.00    -0.495 OA
ATOM     31  C   UNL     1       7.777   0.465  23.630  0.00  0.00    +0.277 C 
ENDBRANCH  26   6
ENDBRANCH  16  18
ENDBRANCH   8  16
TORSDOF 5
ENDMDL
MODEL 3
REMARK VINA RESULT:      14.6      2.320      3.621
REMARK  Name = 75368456
REMARK  6 active torsions:
REMARK  status: ('A' for Active; 'I' for Inactive)
REMARK    1  A    between atoms: O_6  and  C_26
REMARK    2  A    between atoms: O_6  and  C_31
REMARK    3  A    between atoms: N_8  and  C_16
REMARK    4  A    between atoms: C_16  and  C_18
REMARK    5  A    between atoms: C_17  and  C_19
REMARK    6  A    between atoms: C_29  and  C_30
REMARK                            x       y       z     vdW  Elec       q    Type
REMARK                         _______ _______ _______ _____ _____    ______ ____
ROOT
ATOM      4  O   UNL     1      -1.822  -3.771  25.310  0.00  0.00    -0.252 OA
ATOM      5  O   UNL     1      -5.988   1.821  24.882  0.00  0.00    -0.270 OA
ATOM      7  N   UNL     1      -2.480  -1.518  25.200  0.00  0.00    -0.278 N 
ATOM      8  N   UNL     1      -0.304  -2.007  24.931  0.00  0.00    -0.279 N 
ATOM      9  N   UNL     1      -4.002   0.677  24.431  0.00  0.00    -0.294 N 
ATOM     10  C   UNL     1      -1.823  -0.225  25.109  0.00  0.00    +0.112 C 
ATOM     11  C   UNL     1      -0.390  -0.573  24.714  0.00  0.00    +0.133 C 
ATOM     12  C   UNL     1      -2.560   0.672  24.118  0.00  0.00    +0.132 C 
ATOM     13  C   UNL     1      -3.916  -1.586  25.409  0.00  0.00    +0.128 C 
ATOM     14  C   UNL     1      -4.633  -0.649  24.437  0.00  0.00    +0.127 C 
ATOM     15  C   UNL     1      -1.568  -2.581  25.169  0.00  0.00    +0.306 C 
ATOM     17  C   UNL     1      -4.778   1.814  24.664  0.00  0.00    +0.247 C 
ENDROOT
BRANCH  17  19
ATOM     19  C   UNL     1      -4.109   3.122  24.664  0.00  0.00    +0.037 A 
ATOM     22  C   UNL     1      -4.184   3.943  23.539  0.00  0.00    +0.013 A 
ATOM     23  C   UNL     1      -3.399   3.541  25.788  0.00  0.00    +0.013 A 
ATOM     27  C   UNL     1      -3.548   5.185  23.539  0.00  0.00    +0.013 A 
ATOM     28  C   UNL     1      -2.762   4.782  25.788  0.00  0.00    +0.013 A 
ATOM     29  C   UNL     1      -2.837   5.603  24.664  0.00  0.00    +0.055 A 
BRANCH  29  30
ATOM      1  F   UNL     1      -2.403   7.672  23.543  0.00  0.00    -0.166 F 
ATOM      2  F   UNL     1      -0.795   6.848  24.743  0.00  0.00    -0.166 F 
ATOM      3  F   UNL     1      -2.536   7.716  25.713  0.00  0.00    -0.166 F 
ATOM     30  C   UNL     1      -2.156   6.931  24.663  0.00  0.00    +0.417 C 
ENDBRANCH  29  30
ENDBRANCH  17  19
BRANCH   8  16
ATOM     16  C   UNL     1       0.938  -2.731  24.775  0.00  0.00    +0.144 C 
BRANCH  16  18
ATOM     18  C   UNL     1       2.022  -1.871  24.193  0.00  0.00    -0.030 A 
ATOM     20  C   UNL     1       1.690  -0.736  23.452  0.00  0.00    +0.009 A 
ATOM     21  C   UNL     1       3.362  -2.205  24.394  0.00  0.00    +0.009 A 
ATOM     24  C   UNL     1       2.698   0.063  22.912  0.00  0.00    +0.046 A 
ATOM     25  C   UNL     1       4.369  -1.406  23.854  0.00  0.00    +0.046 A 
ATOM     26  C   UNL     1       4.037  -0.272  23.113  0.00  0.00    +0.120 A 
BRANCH  26   6
ATOM      6  O   UNL     1       5.020   0.509  22.587  0.00  0.00    -0.495 OA
ATOM     31  C   UNL     1       6.342   0.315  23.090  0.00  0.00    +0.277 C 
ENDBRANCH  26   6
ENDBRANCH  16  18
ENDBRANCH   8  16
TORSDOF 5
ENDMDL
