MODEL 1
REMARK VINA RESULT:       0.4      0.000      0.000
REMARK  Name = 45783582
REMARK  5 active torsions:
REMARK  status: ('A' for Active; 'I' for Inactive)
REMARK    1  A    between atoms: O_1  and  C_11
REMARK    2  A    between atoms: O_1  and  C_19
REMARK    3  A    between atoms: N_3  and  C_18
REMARK    4  A    between atoms: C_7  and  C_17
REMARK    5  A    between atoms: C_20  and  C_21
REMARK                            x       y       z     vdW  Elec       q    Type
REMARK                         _______ _______ _______ _____ _____    ______ ____
ROOT
ATOM      6  N   UNL     1      -2.881   2.494  23.286  0.00  0.00    -0.221 NA
ATOM     19  C   UNL     1      -2.838   3.269  24.393  0.00  0.00    +0.215 A 
ATOM     21  C   UNL     1      -0.776   1.531  23.982  0.00  0.00    +0.041 A 
ATOM     22  C   UNL     1      -1.814   3.233  25.327  0.00  0.00    +0.068 A 
ATOM     23  C   UNL     1      -0.768   2.344  25.109  0.00  0.00    +0.018 A 
ATOM     24  C   UNL     1      -1.846   1.643  23.109  0.00  0.00    +0.126 A 
ENDROOT
BRANCH  21  20
ATOM      2  O   UNL     1       1.399  -1.202  23.475  0.00  0.00    -0.336 OA
ATOM      4  N   UNL     1       1.553   1.032  23.431  0.00  0.00    -0.190 NA
ATOM      5  N   UNL     1       0.120  -0.718  23.776  0.00  0.00    -0.056 NA
ATOM     17  C   UNL     1       2.181  -0.107  23.286  0.00  0.00    +0.245 A 
ATOM     20  C   UNL     1       0.291   0.607  23.731  0.00  0.00    +0.204 A 
BRANCH  17   7
ATOM      3  N   UNL     1       4.500   0.795  23.227  0.00  0.00    -0.294 NA
ATOM      7  C   UNL     1       3.633  -0.366  22.942  0.00  0.00    +0.146 C 
ATOM      8  C   UNL     1       4.242  -1.518  23.762  0.00  0.00    +0.030 C 
ATOM      9  C   UNL     1       5.478  -0.927  24.423  0.00  0.00    +0.017 C 
ATOM     10  C   UNL     1       5.823   0.256  23.542  0.00  0.00    +0.085 C 
ATOM     18  C   UNL     1       4.546   1.760  22.136  0.00  0.00    +0.105 C 
ENDBRANCH  17   7
ENDBRANCH  21  20
BRANCH  19   1
ATOM      1  O   UNL     1      -3.882   4.135  24.584  0.00  0.00    -0.473 OA
BRANCH   1  11
ATOM     11  C   UNL     1      -5.107   3.572  25.040  0.00  0.00    +0.175 C 
ATOM     12  C   UNL     1      -5.387   2.275  24.282  0.00  0.00    +0.044 C 
ATOM     13  C   UNL     1      -5.035   3.339  26.548  0.00  0.00    +0.044 C 
ATOM     14  C   UNL     1      -6.641   1.581  24.803  0.00  0.00    +0.004 C 
ATOM     15  C   UNL     1      -6.289   2.644  27.069  0.00  0.00    +0.004 C 
ATOM     16  C   UNL     1      -6.571   1.350  26.311  0.00  0.00    +0.000 C 
ENDBRANCH   1  11
ENDBRANCH  19   1
TORSDOF 4
ENDMDL
MODEL 2
REMARK VINA RESULT:       0.6      1.863      8.603
REMARK  Name = 45783582
REMARK  5 active torsions:
REMARK  status: ('A' for Active; 'I' for Inactive)
REMARK    1  A    between atoms: O_1  and  C_11
REMARK    2  A    between atoms: O_1  and  C_19
REMARK    3  A    between atoms: N_3  and  C_18
REMARK    4  A    between atoms: C_7  and  C_17
REMARK    5  A    between atoms: C_20  and  C_21
REMARK                            x       y       z     vdW  Elec       q    Type
REMARK                         _______ _______ _______ _____ _____    ______ ____
ROOT
ATOM      6  N   UNL     1       1.869   1.412  23.313  0.00  0.00    -0.221 NA
ATOM     19  C   UNL     1       2.107   0.463  22.379  0.00  0.00    +0.215 A 
ATOM     21  C   UNL     1      -0.280   0.373  23.698  0.00  0.00    +0.041 A 
ATOM     22  C   UNL     1       1.216  -0.548  22.055  0.00  0.00    +0.068 A 
ATOM     23  C   UNL     1       0.002  -0.586  22.732  0.00  0.00    +0.018 A 
ATOM     24  C   UNL     1       0.678   1.342  23.949  0.00  0.00    +0.126 A 
ENDROOT
BRANCH  21  20
ATOM      2  O   UNL     1      -3.254  -0.306  25.473  0.00  0.00    -0.336 OA
ATOM      4  N   UNL     1      -2.212   1.509  24.672  0.00  0.00    -0.190 NA
ATOM      5  N   UNL     1      -2.083  -0.768  24.858  0.00  0.00    -0.056 NA
ATOM     17  C   UNL     1      -3.252   1.044  25.318  0.00  0.00    +0.245 A 
ATOM     20  C   UNL     1      -1.523   0.360  24.411  0.00  0.00    +0.204 A 
BRANCH  17   7
ATOM      3  N   UNL     1      -4.473   3.207  25.484  0.00  0.00    -0.294 NA
ATOM      7  C   UNL     1      -4.430   1.793  25.906  0.00  0.00    +0.146 C 
ATOM      8  C   UNL     1      -5.785   1.212  25.461  0.00  0.00    +0.030 C 
ATOM      9  C   UNL     1      -6.542   2.385  24.857  0.00  0.00    +0.017 C 
ATOM     10  C   UNL     1      -5.883   3.597  25.484  0.00  0.00    +0.085 C 
ATOM     18  C   UNL     1      -3.662   4.081  26.323  0.00  0.00    +0.105 C 
ENDBRANCH  17   7
ENDBRANCH  21  20
BRANCH  19   1
ATOM      1  O   UNL     1       3.311   0.523  21.728  0.00  0.00    -0.473 OA
BRANCH   1  11
ATOM     11  C   UNL     1       4.444   0.021  22.428  0.00  0.00    +0.175 C 
ATOM     12  C   UNL     1       5.042   1.127  23.295  0.00  0.00    +0.044 C 
ATOM     13  C   UNL     1       4.034  -1.192  23.263  0.00  0.00    +0.044 C 
ATOM     14  C   UNL     1       6.201   0.612  24.141  0.00  0.00    +0.004 C 
ATOM     15  C   UNL     1       5.195  -1.707  24.110  0.00  0.00    +0.004 C 
ATOM     16  C   UNL     1       5.794  -0.601  24.974  0.00  0.00    +0.000 C 
ENDBRANCH   1  11
ENDBRANCH  19   1
TORSDOF 4
ENDMDL
MODEL 3
REMARK VINA RESULT:       1.1      1.693      2.220
REMARK  Name = 45783582
REMARK  5 active torsions:
REMARK  status: ('A' for Active; 'I' for Inactive)
REMARK    1  A    between atoms: O_1  and  C_11
REMARK    2  A    between atoms: O_1  and  C_19
REMARK    3  A    between atoms: N_3  and  C_18
REMARK    4  A    between atoms: C_7  and  C_17
REMARK    5  A    between atoms: C_20  and  C_21
REMARK                            x       y       z     vdW  Elec       q    Type
REMARK                         _______ _______ _______ _____ _____    ______ ____
ROOT
ATOM      6  N   UNL     1      -3.078   0.990  23.691  0.00  0.00    -0.221 NA
ATOM     19  C   UNL     1      -3.362   0.180  24.736  0.00  0.00    +0.215 A 
ATOM     21  C   UNL     1      -0.931  -0.111  23.531  0.00  0.00    +0.041 A 
ATOM     22  C   UNL     1      -2.497  -0.784  25.228  0.00  0.00    +0.068 A 
ATOM     23  C   UNL     1      -1.261  -0.926  24.609  0.00  0.00    +0.018 A 
ATOM     24  C   UNL     1      -1.866   0.823  23.114  0.00  0.00    +0.126 A 
ENDROOT
BRANCH  21  20
ATOM      2  O   UNL     1       1.835  -0.531  21.380  0.00  0.00    -0.336 OA
ATOM      4  N   UNL     1       1.512  -0.079  23.550  0.00  0.00    -0.190 NA
ATOM      5  N   UNL     1       0.447  -0.507  21.571  0.00  0.00    -0.056 NA
ATOM     17  C   UNL     1       2.386  -0.270  22.595  0.00  0.00    +0.245 A 
ATOM     20  C   UNL     1       0.336  -0.234  22.874  0.00  0.00    +0.204 A 
BRANCH  17   7
ATOM      3  N   UNL     1       4.415   0.968  23.332  0.00  0.00    -0.294 NA
ATOM      7  C   UNL     1       3.899  -0.239  22.656  0.00  0.00    +0.146 C 
ATOM      8  C   UNL     1       4.485  -1.416  23.458  0.00  0.00    +0.030 C 
ATOM      9  C   UNL     1       5.363  -0.775  24.521  0.00  0.00    +0.017 C 
ATOM     10  C   UNL     1       5.689   0.587  23.943  0.00  0.00    +0.085 C 
ATOM     18  C   UNL     1       4.555   2.111  22.439  0.00  0.00    +0.105 C 
ENDBRANCH  17   7
ENDBRANCH  21  20
BRANCH  19   1
ATOM      1  O   UNL     1      -4.588   0.339  25.328  0.00  0.00    -0.473 OA
BRANCH   1  11
ATOM     11  C   UNL     1      -4.891   1.634  25.833  0.00  0.00    +0.175 C 
ATOM     12  C   UNL     1      -3.668   2.539  25.692  0.00  0.00    +0.044 C 
ATOM     13  C   UNL     1      -6.101   2.203  25.093  0.00  0.00    +0.044 C 
ATOM     14  C   UNL     1      -3.973   3.967  26.131  0.00  0.00    +0.004 C 
ATOM     15  C   UNL     1      -6.406   3.632  25.532  0.00  0.00    +0.004 C 
ATOM     16  C   UNL     1      -5.184   4.535  25.393  0.00  0.00    +0.000 C 
ENDBRANCH   1  11
ENDBRANCH  19   1
TORSDOF 4
ENDMDL
MODEL 4
REMARK VINA RESULT:       1.9      1.899      8.929
REMARK  Name = 45783582
REMARK  5 active torsions:
REMARK  status: ('A' for Active; 'I' for Inactive)
REMARK    1  A    between atoms: O_1  and  C_11
REMARK    2  A    between atoms: O_1  and  C_19
REMARK    3  A    between atoms: N_3  and  C_18
REMARK    4  A    between atoms: C_7  and  C_17
REMARK    5  A    between atoms: C_20  and  C_21
REMARK                            x       y       z     vdW  Elec       q    Type
REMARK                         _______ _______ _______ _____ _____    ______ ____
ROOT
ATOM      6  N   UNL     1       0.589   0.500  22.769  0.00  0.00    -0.221 NA
ATOM     19  C   UNL     1       1.167  -0.647  23.189  0.00  0.00    +0.215 A 
ATOM     21  C   UNL     1      -1.334  -0.074  24.117  0.00  0.00    +0.041 A 
ATOM     22  C   UNL     1       0.569  -1.545  24.059  0.00  0.00    +0.068 A 
ATOM     23  C   UNL     1      -0.706  -1.245  24.527  0.00  0.00    +0.018 A 
ATOM     24  C   UNL     1      -0.650   0.757  23.245  0.00  0.00    +0.126 A 
ENDROOT
BRANCH  21  20
ATOM      2  O   UNL     1      -4.560   0.154  25.529  0.00  0.00    -0.336 OA
ATOM      4  N   UNL     1      -3.225   1.463  24.296  0.00  0.00    -0.190 NA
ATOM      5  N   UNL     1      -3.385  -0.579  25.316  0.00  0.00    -0.056 NA
ATOM     17  C   UNL     1      -4.382   1.343  24.896  0.00  0.00    +0.245 A 
ATOM     20  C   UNL     1      -2.648   0.260  24.582  0.00  0.00    +0.204 A 
BRANCH  17   7
ATOM      3  N   UNL     1      -5.864   2.693  26.370  0.00  0.00    -0.294 NA
ATOM      7  C   UNL     1      -5.528   2.329  24.979  0.00  0.00    +0.146 C 
ATOM      8  C   UNL     1      -5.209   3.670  24.292  0.00  0.00    +0.030 C 
ATOM      9  C   UNL     1      -5.453   4.730  25.355  0.00  0.00    +0.017 C 
ATOM     10  C   UNL     1      -6.400   4.053  26.325  0.00  0.00    +0.085 C 
ATOM     18  C   UNL     1      -6.790   1.760  27.000  0.00  0.00    +0.105 C 
ENDBRANCH  17   7
ENDBRANCH  21  20
BRANCH  19   1
ATOM      1  O   UNL     1       2.423  -0.919  22.714  0.00  0.00    -0.473 OA
BRANCH   1  11
ATOM     11  C   UNL     1       3.518  -0.453  23.494  0.00  0.00    +0.175 C 
ATOM     12  C   UNL     1       4.509  -1.594  23.719  0.00  0.00    +0.044 C 
ATOM     13  C   UNL     1       4.176   0.737  22.796  0.00  0.00    +0.044 C 
ATOM     14  C   UNL     1       5.749  -1.119  24.470  0.00  0.00    +0.004 C 
ATOM     15  C   UNL     1       5.417   1.211  23.546  0.00  0.00    +0.004 C 
ATOM     16  C   UNL     1       6.406   0.071  23.773  0.00  0.00    +0.000 C 
ENDBRANCH   1  11
ENDBRANCH  19   1
TORSDOF 4
ENDMDL
MODEL 5
REMARK VINA RESULT:       2.0      1.559      8.695
REMARK  Name = 45783582
REMARK  5 active torsions:
REMARK  status: ('A' for Active; 'I' for Inactive)
REMARK    1  A    between atoms: O_1  and  C_11
REMARK    2  A    between atoms: O_1  and  C_19
REMARK    3  A    between atoms: N_3  and  C_18
REMARK    4  A    between atoms: C_7  and  C_17
REMARK    5  A    between atoms: C_20  and  C_21
REMARK                            x       y       z     vdW  Elec       q    Type
REMARK                         _______ _______ _______ _____ _____    ______ ____
ROOT
ATOM      6  N   UNL     1       0.475  -0.544  23.054  0.00  0.00    -0.221 NA
ATOM     19  C   UNL     1       1.607   0.135  22.762  0.00  0.00    +0.215 A 
ATOM     21  C   UNL     1      -0.308   1.426  24.216  0.00  0.00    +0.041 A 
ATOM     22  C   UNL     1       1.851   1.442  23.155  0.00  0.00    +0.068 A 
ATOM     23  C   UNL     1       0.870   2.092  23.896  0.00  0.00    +0.018 A 
ATOM     24  C   UNL     1      -0.455   0.121  23.775  0.00  0.00    +0.126 A 
ENDROOT
BRANCH  21  20
ATOM      2  O   UNL     1      -2.348   3.363  26.347  0.00  0.00    -0.336 OA
ATOM      4  N   UNL     1      -2.648   1.715  24.859  0.00  0.00    -0.190 NA
ATOM      5  N   UNL     1      -1.075   3.049  25.852  0.00  0.00    -0.056 NA
ATOM     17  C   UNL     1      -3.215   2.531  25.711  0.00  0.00    +0.245 A 
ATOM     20  C   UNL     1      -1.335   2.070  24.980  0.00  0.00    +0.204 A 
BRANCH  17   7
ATOM      3  N   UNL     1      -5.396   3.610  25.190  0.00  0.00    -0.294 NA
ATOM      7  C   UNL     1      -4.677   2.674  26.077  0.00  0.00    +0.146 C 
ATOM      8  C   UNL     1      -5.452   1.348  25.955  0.00  0.00    +0.030 C 
ATOM      9  C   UNL     1      -6.620   1.654  25.030  0.00  0.00    +0.017 C 
ATOM     10  C   UNL     1      -6.786   3.156  25.147  0.00  0.00    +0.085 C 
ATOM     18  C   UNL     1      -5.286   5.000  25.612  0.00  0.00    +0.105 C 
ENDBRANCH  17   7
ENDBRANCH  21  20
BRANCH  19   1
ATOM      1  O   UNL     1       2.557  -0.528  22.031  0.00  0.00    -0.473 OA
BRANCH   1  11
ATOM     11  C   UNL     1       3.887  -0.500  22.533  0.00  0.00    +0.175 C 
ATOM     12  C   UNL     1       4.260   0.931  22.917  0.00  0.00    +0.044 C 
ATOM     13  C   UNL     1       4.006  -1.452  23.723  0.00  0.00    +0.044 C 
ATOM     14  C   UNL     1       5.645   0.999  23.553  0.00  0.00    +0.004 C 
ATOM     15  C   UNL     1       5.391  -1.383  24.360  0.00  0.00    +0.004 C 
ATOM     16  C   UNL     1       5.765   0.047  24.741  0.00  0.00    +0.000 C 
ENDBRANCH   1  11
ENDBRANCH  19   1
TORSDOF 4
ENDMDL
