MODEL 1
REMARK VINA RESULT:       1.3      0.000      0.000
REMARK  Name = 7144110
REMARK  8 active torsions:
REMARK  status: ('A' for Active; 'I' for Inactive)
REMARK    1  A    between atoms: S_1  and  C_22
REMARK    2  A    between atoms: S_1  and  C_28
REMARK    3  A    between atoms: O_4  and  C_27
REMARK    4  A    between atoms: O_4  and  C_30
REMARK    5  A    between atoms: O_5  and  C_29
REMARK    6  A    between atoms: C_16  and  C_21
REMARK    7  A    between atoms: C_18  and  C_22
REMARK    8  A    between atoms: C_28  and  C_29
REMARK                            x       y       z     vdW  Elec       q    Type
REMARK                         _______ _______ _______ _____ _____    ______ ____
ROOT
ATOM      2  O   UNL     1      -3.208   4.837  26.775  0.00  0.00    -0.268 OA
ATOM      3  O   UNL     1      -5.404   0.117  25.974  0.00  0.00    -0.275 OA
ATOM      7  N   UNL     1      -4.091   0.690  24.145  0.00  0.00    -0.300 N 
ATOM      8  N   UNL     1      -2.741   3.462  24.937  0.00  0.00    -0.311 N 
ATOM      9  C   UNL     1      -4.520   2.940  23.167  0.00  0.00    +0.027 C 
ATOM     10  C   UNL     1      -2.280   1.945  22.986  0.00  0.00    +0.054 C 
ATOM     11  C   UNL     1      -3.332   2.760  22.235  0.00  0.00    +0.018 C 
ATOM     12  C   UNL     1      -5.105   1.579  23.577  0.00  0.00    +0.113 C 
ATOM     13  C   UNL     1      -4.068   3.756  24.377  0.00  0.00    +0.130 C 
ATOM     14  C   UNL     1      -2.863   0.564  23.349  0.00  0.00    +0.117 C 
ATOM     15  C   UNL     1      -1.803   2.667  24.249  0.00  0.00    +0.034 A 
ATOM     16  C   UNL     1      -0.538   2.545  24.730  0.00  0.00    +0.002 A 
ATOM     17  C   UNL     1      -2.433   4.121  26.141  0.00  0.00    +0.252 A 
ATOM     18  C   UNL     1      -4.364  -0.007  25.322  0.00  0.00    +0.225 C 
ATOM     19  C   UNL     1      -0.185   3.208  25.971  0.00  0.00    +0.015 A 
ATOM     20  C   UNL     1      -1.058   3.942  26.660  0.00  0.00    +0.071 A 
ENDROOT
BRANCH  16  21
ATOM     21  C   UNL     1       0.487   1.737  24.033  0.00  0.00    -0.016 A 
ATOM     23  C   UNL     1       0.159   0.474  23.548  0.00  0.00    +0.012 A 
ATOM     24  C   UNL     1       1.771   2.246  23.866  0.00  0.00    +0.012 A 
ATOM     25  C   UNL     1       1.126  -0.287  22.891  0.00  0.00    +0.046 A 
ATOM     26  C   UNL     1       2.737   1.485  23.209  0.00  0.00    +0.046 A 
ATOM     27  C   UNL     1       2.415   0.218  22.721  0.00  0.00    +0.120 A 
BRANCH  27   4
ATOM      4  O   UNL     1       3.358  -0.524  22.081  0.00  0.00    -0.495 OA
ATOM     30  C   UNL     1       4.720  -0.292  22.436  0.00  0.00    +0.277 C 
ENDBRANCH  27   4
ENDBRANCH  16  21
BRANCH  18  22
ATOM     22  C   UNL     1      -3.299  -0.958  25.806  0.00  0.00    +0.165 C 
BRANCH  22   1
ATOM      1  S   UNL     1      -3.330  -2.405  24.738  0.00  0.00    -0.140 S 
BRANCH   1  28
ATOM     28  C   UNL     1      -1.559  -2.532  24.387  0.00  0.00    +0.189 C 
BRANCH  28  29
ATOM      6  O   UNL     1      -1.198  -0.839  26.064  0.00  0.00    -0.250 OA
ATOM     29  C   UNL     1      -0.787  -1.822  25.460  0.00  0.00    +0.315 C 
BRANCH  29   5
ATOM      5  O   UNL     1       0.419  -2.396  25.706  0.00  0.00    -0.480 OA
ATOM     31  H   UNL     1       0.437  -2.853  26.573  0.00  0.00    +0.295 HD
ENDBRANCH  29   5
ENDBRANCH  28  29
ENDBRANCH   1  28
ENDBRANCH  22   1
ENDBRANCH  18  22
TORSDOF 7
ENDMDL
MODEL 2
REMARK VINA RESULT:       4.7      2.255      4.741
REMARK  Name = 7144110
REMARK  8 active torsions:
REMARK  status: ('A' for Active; 'I' for Inactive)
REMARK    1  A    between atoms: S_1  and  C_22
REMARK    2  A    between atoms: S_1  and  C_28
REMARK    3  A    between atoms: O_4  and  C_27
REMARK    4  A    between atoms: O_4  and  C_30
REMARK    5  A    between atoms: O_5  and  C_29
REMARK    6  A    between atoms: C_16  and  C_21
REMARK    7  A    between atoms: C_18  and  C_22
REMARK    8  A    between atoms: C_28  and  C_29
REMARK                            x       y       z     vdW  Elec       q    Type
REMARK                         _______ _______ _______ _____ _____    ______ ____
ROOT
ATOM      2  O   UNL     1      -4.041   4.229  21.082  0.00  0.00    -0.268 OA
ATOM      3  O   UNL     1      -1.304   5.819  25.292  0.00  0.00    -0.275 OA
ATOM      7  N   UNL     1      -2.550   3.935  25.834  0.00  0.00    -0.300 N 
ATOM      8  N   UNL     1      -3.954   3.066  23.113  0.00  0.00    -0.311 N 
ATOM      9  C   UNL     1      -4.971   4.034  25.258  0.00  0.00    +0.027 C 
ATOM     10  C   UNL     1      -3.826   1.861  25.316  0.00  0.00    +0.054 C 
ATOM     11  C   UNL     1      -5.127   2.579  25.669  0.00  0.00    +0.018 C 
ATOM     12  C   UNL     1      -3.793   4.689  25.998  0.00  0.00    +0.113 C 
ATOM     13  C   UNL     1      -4.796   4.094  23.740  0.00  0.00    +0.130 C 
ATOM     14  C   UNL     1      -2.660   2.495  26.102  0.00  0.00    +0.117 C 
ATOM     15  C   UNL     1      -3.542   1.914  23.812  0.00  0.00    +0.034 A 
ATOM     16  C   UNL     1      -2.894   0.918  23.153  0.00  0.00    +0.002 A 
ATOM     17  C   UNL     1      -3.693   3.252  21.744  0.00  0.00    +0.252 A 
ATOM     18  C   UNL     1      -1.371   4.607  25.514  0.00  0.00    +0.225 C 
ATOM     19  C   UNL     1      -2.603   1.076  21.741  0.00  0.00    +0.015 A 
ATOM     20  C   UNL     1      -2.954   2.166  21.059  0.00  0.00    +0.071 A 
ENDROOT
BRANCH  16  21
ATOM     21  C   UNL     1      -2.458  -0.317  23.840  0.00  0.00    -0.016 A 
ATOM     23  C   UNL     1      -3.334  -1.392  23.950  0.00  0.00    +0.012 A 
ATOM     24  C   UNL     1      -1.174  -0.395  24.371  0.00  0.00    +0.012 A 
ATOM     25  C   UNL     1      -2.923  -2.557  24.598  0.00  0.00    +0.046 A 
ATOM     26  C   UNL     1      -0.763  -1.560  25.019  0.00  0.00    +0.046 A 
ATOM     27  C   UNL     1      -1.637  -2.641  25.133  0.00  0.00    +0.120 A 
BRANCH  27   4
ATOM      4  O   UNL     1      -1.236  -3.777  25.765  0.00  0.00    -0.495 OA
ATOM     30  C   UNL     1       0.166  -4.039  25.803  0.00  0.00    +0.277 C 
ENDBRANCH  27   4
ENDBRANCH  16  21
BRANCH  18  22
ATOM     22  C   UNL     1      -0.118   3.772  25.433  0.00  0.00    +0.165 C 
BRANCH  22   1
ATOM      1  S   UNL     1      -0.073   3.010  23.804  0.00  0.00    -0.140 S 
BRANCH   1  28
ATOM     28  C   UNL     1       0.707   1.440  24.253  0.00  0.00    +0.189 C 
BRANCH  28  29
ATOM      6  O   UNL     1       1.320   0.145  22.315  0.00  0.00    -0.250 OA
ATOM     29  C   UNL     1       1.615   0.999  23.142  0.00  0.00    +0.315 C 
BRANCH  29   5
ATOM      5  O   UNL     1       2.800   1.660  23.140  0.00  0.00    -0.480 OA
ATOM     31  H   UNL     1       3.545   1.078  23.401  0.00  0.00    +0.295 HD
ENDBRANCH  29   5
ENDBRANCH  28  29
ENDBRANCH   1  28
ENDBRANCH  22   1
ENDBRANCH  18  22
TORSDOF 7
ENDMDL
