MODEL 1
REMARK VINA RESULT:      -0.8      0.000      0.000
REMARK  Name = 25389261
REMARK  5 active torsions:
REMARK  status: ('A' for Active; 'I' for Inactive)
REMARK    1  A    between atoms: N_5  and  C_14
REMARK    2  A    between atoms: N_6  and  C_15
REMARK    3  A    between atoms: C_8  and  C_14
REMARK    4  A    between atoms: C_9  and  C_15
REMARK    5  A    between atoms: C_21  and  C_24
REMARK                            x       y       z     vdW  Elec       q    Type
REMARK                         _______ _______ _______ _____ _____    ______ ____
ROOT
ATOM      4  N   UNL     1      -2.895  -1.354  23.532  0.00  0.00    -0.298 NA
ATOM      7  C   UNL     1      -3.527  -1.358  26.056  0.00  0.00    -0.003 C 
ATOM      8  C   UNL     1      -4.624  -0.669  25.213  0.00  0.00    +0.020 C 
ATOM      9  C   UNL     1      -1.777  -0.794  24.338  0.00  0.00    +0.074 C 
ATOM     10  C   UNL     1      -2.182  -0.646  25.822  0.00  0.00    +0.024 C 
ATOM     11  C   UNL     1      -4.134  -0.568  23.752  0.00  0.00    +0.089 C 
ATOM     12  C   UNL     1      -3.383  -2.793  25.515  0.00  0.00    +0.019 C 
ATOM     13  C   UNL     1      -3.142  -2.742  23.996  0.00  0.00    +0.085 C 
ENDROOT
BRANCH   8  14
ATOM     14  C   UNL     1      -5.041   0.693  25.764  0.00  0.00    +0.089 C 
BRANCH  14   5
ATOM      5  N   UNL     1      -4.271   1.766  25.137  0.00  0.00    -0.298 NA
ATOM     16  C   UNL     1      -5.077   2.987  25.021  0.00  0.00    +0.089 C 
ATOM     17  C   UNL     1      -3.045   2.037  25.910  0.00  0.00    +0.119 C 
ATOM     18  C   UNL     1      -4.330   4.027  24.179  0.00  0.00    +0.051 C 
ATOM     19  C   UNL     1      -2.268   3.229  25.400  0.00  0.00    -0.030 A 
ATOM     20  C   UNL     1      -2.897   4.205  24.607  0.00  0.00    -0.042 A 
ATOM     22  C   UNL     1      -0.927   3.398  25.770  0.00  0.00    +0.005 A 
ATOM     23  C   UNL     1      -2.165   5.316  24.166  0.00  0.00    +0.004 A 
ATOM     25  C   UNL     1      -0.210   4.513  25.334  0.00  0.00    +0.000 A 
ATOM     26  C   UNL     1      -0.828   5.469  24.532  0.00  0.00    +0.000 A 
ENDBRANCH  14   5
ENDBRANCH   8  14
BRANCH   9  15
ATOM     15  C   UNL     1      -1.244   0.519  23.761  0.00  0.00    +0.123 C 
BRANCH  15   6
ATOM      1  O   UNL     1       0.521  -0.507  21.741  0.00  0.00    -0.270 OA
ATOM      6  N   UNL     1       0.210   0.540  23.786  0.00  0.00    -0.310 N 
ATOM     21  C   UNL     1       0.969   0.017  22.758  0.00  0.00    +0.244 C 
ATOM     33  H   UNL     1       0.644   0.898  24.629  0.00  0.00    +0.149 HD
BRANCH  21  24
ATOM      2  O   UNL     1       5.318  -1.826  24.180  0.00  0.00    -0.453 OA
ATOM      3  O   UNL     1       6.505   0.165  23.522  0.00  0.00    -0.453 OA
ATOM     24  C   UNL     1       2.442   0.091  22.947  0.00  0.00    +0.040 A 
ATOM     27  C   UNL     1       3.124  -0.994  23.503  0.00  0.00    +0.062 A 
ATOM     28  C   UNL     1       3.134   1.253  22.564  0.00  0.00    +0.017 A 
ATOM     29  C   UNL     1       4.491  -0.879  23.659  0.00  0.00    +0.167 A 
ATOM     30  C   UNL     1       4.518   1.343  22.732  0.00  0.00    +0.050 A 
ATOM     31  C   UNL     1       5.168   0.258  23.284  0.00  0.00    +0.166 A 
ATOM     32  C   UNL     1       6.592  -1.158  24.090  0.00  0.00    +0.466 C 
ENDBRANCH  21  24
ENDBRANCH  15   6
ENDBRANCH   9  15
TORSDOF 5
ENDMDL
MODEL 2
REMARK VINA RESULT:       0.7      1.217      4.102
REMARK  Name = 25389261
REMARK  5 active torsions:
REMARK  status: ('A' for Active; 'I' for Inactive)
REMARK    1  A    between atoms: N_5  and  C_14
REMARK    2  A    between atoms: N_6  and  C_15
REMARK    3  A    between atoms: C_8  and  C_14
REMARK    4  A    between atoms: C_9  and  C_15
REMARK    5  A    between atoms: C_21  and  C_24
REMARK                            x       y       z     vdW  Elec       q    Type
REMARK                         _______ _______ _______ _____ _____    ______ ____
ROOT
ATOM      4  N   UNL     1      -1.862   3.062  24.934  0.00  0.00    -0.298 NA
ATOM      7  C   UNL     1      -4.285   3.766  24.300  0.00  0.00    -0.003 C 
ATOM      8  C   UNL     1      -4.290   2.781  25.491  0.00  0.00    +0.020 C 
ATOM      9  C   UNL     1      -2.091   2.846  23.479  0.00  0.00    +0.074 C 
ATOM     10  C   UNL     1      -3.566   3.115  23.104  0.00  0.00    +0.024 C 
ATOM     11  C   UNL     1      -2.846   2.288  25.730  0.00  0.00    +0.089 C 
ATOM     12  C   UNL     1      -3.445   4.984  24.729  0.00  0.00    +0.019 C 
ATOM     13  C   UNL     1      -2.068   4.502  25.220  0.00  0.00    +0.085 C 
ENDROOT
BRANCH   8  14
ATOM     14  C   UNL     1      -5.261   1.617  25.307  0.00  0.00    +0.089 C 
BRANCH  14   5
ATOM      5  N   UNL     1      -4.543   0.344  25.255  0.00  0.00    -0.298 NA
ATOM     16  C   UNL     1      -4.694  -0.287  23.938  0.00  0.00    +0.089 C 
ATOM     17  C   UNL     1      -3.116   0.547  25.562  0.00  0.00    +0.119 C 
ATOM     18  C   UNL     1      -4.115  -1.705  23.970  0.00  0.00    +0.051 C 
ATOM     19  C   UNL     1      -2.283  -0.703  25.391  0.00  0.00    -0.030 A 
ATOM     20  C   UNL     1      -2.744  -1.764  24.591  0.00  0.00    -0.042 A 
ATOM     22  C   UNL     1      -1.014  -0.783  25.981  0.00  0.00    +0.005 A 
ATOM     23  C   UNL     1      -1.946  -2.903  24.425  0.00  0.00    +0.004 A 
ATOM     25  C   UNL     1      -0.223  -1.918  25.801  0.00  0.00    +0.000 A 
ATOM     26  C   UNL     1      -0.689  -2.977  25.025  0.00  0.00    +0.000 A 
ENDBRANCH  14   5
ENDBRANCH   8  14
BRANCH   9  15
ATOM     15  C   UNL     1      -1.630   1.463  23.014  0.00  0.00    +0.123 C 
BRANCH  15   6
ATOM      1  O   UNL     1      -0.062  -0.882  22.476  0.00  0.00    -0.270 OA
ATOM      6  N   UNL     1      -0.183   1.348  23.099  0.00  0.00    -0.310 N 
ATOM     21  C   UNL     1       0.477   0.167  22.818  0.00  0.00    +0.244 C 
ATOM     33  H   UNL     1       0.318   2.160  23.441  0.00  0.00    +0.149 HD
BRANCH  21  24
ATOM      2  O   UNL     1       4.823  -1.839  24.006  0.00  0.00    -0.453 OA
ATOM      3  O   UNL     1       6.030   0.175  23.462  0.00  0.00    -0.453 OA
ATOM     24  C   UNL     1       1.954   0.205  22.978  0.00  0.00    +0.040 A 
ATOM     27  C   UNL     1       2.630  -0.927  23.440  0.00  0.00    +0.062 A 
ATOM     28  C   UNL     1       2.658   1.380  22.661  0.00  0.00    +0.017 A 
ATOM     29  C   UNL     1       4.001  -0.844  23.572  0.00  0.00    +0.167 A 
ATOM     30  C   UNL     1       4.047   1.437  22.803  0.00  0.00    +0.050 A 
ATOM     31  C   UNL     1       4.690   0.306  23.262  0.00  0.00    +0.166 A 
ATOM     32  C   UNL     1       6.107  -1.186  23.933  0.00  0.00    +0.466 C 
ENDBRANCH  21  24
ENDBRANCH  15   6
ENDBRANCH   9  15
TORSDOF 5
ENDMDL
MODEL 3
REMARK VINA RESULT:       0.8      2.513      6.607
REMARK  Name = 25389261
REMARK  5 active torsions:
REMARK  status: ('A' for Active; 'I' for Inactive)
REMARK    1  A    between atoms: N_5  and  C_14
REMARK    2  A    between atoms: N_6  and  C_15
REMARK    3  A    between atoms: C_8  and  C_14
REMARK    4  A    between atoms: C_9  and  C_15
REMARK    5  A    between atoms: C_21  and  C_24
REMARK                            x       y       z     vdW  Elec       q    Type
REMARK                         _______ _______ _______ _____ _____    ______ ____
ROOT
ATOM      4  N   UNL     1      -3.756   4.315  24.081  0.00  0.00    -0.298 NA
ATOM      7  C   UNL     1      -1.895   4.845  25.820  0.00  0.00    -0.003 C 
ATOM      8  C   UNL     1      -1.492   3.650  24.927  0.00  0.00    +0.020 C 
ATOM      9  C   UNL     1      -4.338   4.367  25.450  0.00  0.00    +0.074 C 
ATOM     10  C   UNL     1      -3.232   4.531  26.517  0.00  0.00    +0.024 C 
ATOM     11  C   UNL     1      -2.686   3.290  24.015  0.00  0.00    +0.089 C 
ATOM     12  C   UNL     1      -2.139   6.042  24.882  0.00  0.00    +0.019 C 
ATOM     13  C   UNL     1      -3.148   5.636  23.793  0.00  0.00    +0.085 C 
ENDROOT
BRANCH   8  14
ATOM     14  C   UNL     1      -1.005   2.440  25.722  0.00  0.00    +0.089 C 
BRANCH  14   5
ATOM      5  N   UNL     1      -0.265   1.515  24.863  0.00  0.00    -0.298 NA
ATOM     16  C   UNL     1      -1.048   1.174  23.670  0.00  0.00    +0.089 C 
ATOM     17  C   UNL     1       1.029   2.102  24.473  0.00  0.00    +0.119 C 
ATOM     18  C   UNL     1      -0.351   0.051  22.893  0.00  0.00    +0.051 C 
ATOM     19  C   UNL     1       1.789   1.263  23.472  0.00  0.00    -0.030 A 
ATOM     20  C   UNL     1       1.118   0.311  22.683  0.00  0.00    -0.042 A 
ATOM     22  C   UNL     1       3.161   1.475  23.280  0.00  0.00    +0.005 A 
ATOM     23  C   UNL     1       1.836  -0.440  21.743  0.00  0.00    +0.004 A 
ATOM     25  C   UNL     1       3.865   0.730  22.333  0.00  0.00    +0.000 A 
ATOM     26  C   UNL     1       3.203  -0.227  21.568  0.00  0.00    +0.000 A 
ENDBRANCH  14   5
ENDBRANCH   8  14
BRANCH   9  15
ATOM     15  C   UNL     1      -5.239   3.167  25.746  0.00  0.00    +0.123 C 
BRANCH  15   6
ATOM      1  O   UNL     1      -6.346   0.791  24.571  0.00  0.00    -0.270 OA
ATOM      6  N   UNL     1      -4.539   1.920  25.486  0.00  0.00    -0.310 N 
ATOM     21  C   UNL     1      -5.167   0.830  24.914  0.00  0.00    +0.244 C 
ATOM     33  H   UNL     1      -3.579   1.862  25.807  0.00  0.00    +0.149 HD
BRANCH  21  24
ATOM      2  O   UNL     1      -1.074  -1.817  25.667  0.00  0.00    -0.453 OA
ATOM      3  O   UNL     1      -1.883  -3.657  24.337  0.00  0.00    -0.453 OA
ATOM     24  C   UNL     1      -4.320  -0.378  24.739  0.00  0.00    +0.040 A 
ATOM     27  C   UNL     1      -3.064  -0.438  25.347  0.00  0.00    +0.062 A 
ATOM     28  C   UNL     1      -4.792  -1.451  23.962  0.00  0.00    +0.017 A 
ATOM     29  C   UNL     1      -2.314  -1.581  25.156  0.00  0.00    +0.167 A 
ATOM     30  C   UNL     1      -4.012  -2.597  23.785  0.00  0.00    +0.050 A 
ATOM     31  C   UNL     1      -2.775  -2.631  24.397  0.00  0.00    +0.166 A 
ATOM     32  C   UNL     1      -0.808  -3.134  25.144  0.00  0.00    +0.466 C 
ENDBRANCH  21  24
ENDBRANCH  15   6
ENDBRANCH   9  15
TORSDOF 5
ENDMDL
MODEL 4
REMARK VINA RESULT:       1.5      1.406      4.655
REMARK  Name = 25389261
REMARK  5 active torsions:
REMARK  status: ('A' for Active; 'I' for Inactive)
REMARK    1  A    between atoms: N_5  and  C_14
REMARK    2  A    between atoms: N_6  and  C_15
REMARK    3  A    between atoms: C_8  and  C_14
REMARK    4  A    between atoms: C_9  and  C_15
REMARK    5  A    between atoms: C_21  and  C_24
REMARK                            x       y       z     vdW  Elec       q    Type
REMARK                         _______ _______ _______ _____ _____    ______ ____
ROOT
ATOM      4  N   UNL     1      -0.631   3.728  23.924  0.00  0.00    -0.298 NA
ATOM      7  C   UNL     1      -2.354   3.450  25.852  0.00  0.00    -0.003 C 
ATOM      8  C   UNL     1      -0.935   3.050  26.318  0.00  0.00    +0.020 C 
ATOM      9  C   UNL     1      -1.782   2.906  23.463  0.00  0.00    +0.074 C 
ATOM     10  C   UNL     1      -2.748   2.600  24.630  0.00  0.00    +0.024 C 
ATOM     11  C   UNL     1       0.015   3.097  25.101  0.00  0.00    +0.089 C 
ATOM     12  C   UNL     1      -2.275   4.915  25.384  0.00  0.00    +0.019 C 
ATOM     13  C   UNL     1      -1.152   5.053  24.339  0.00  0.00    +0.085 C 
ENDROOT
BRANCH   8  14
ATOM     14  C   UNL     1      -0.890   1.692  27.017  0.00  0.00    +0.089 C 
BRANCH  14   5
ATOM      5  N   UNL     1      -1.159   0.610  26.071  0.00  0.00    -0.298 NA
ATOM     16  C   UNL     1      -0.496  -0.628  26.493  0.00  0.00    +0.089 C 
ATOM     17  C   UNL     1      -2.611   0.392  25.942  0.00  0.00    +0.119 C 
ATOM     18  C   UNL     1      -0.615  -1.686  25.391  0.00  0.00    +0.051 C 
ATOM     19  C   UNL     1      -2.963  -0.804  25.087  0.00  0.00    -0.030 A 
ATOM     20  C   UNL     1      -2.019  -1.821  24.860  0.00  0.00    -0.042 A 
ATOM     22  C   UNL     1      -4.257  -0.935  24.567  0.00  0.00    +0.005 A 
ATOM     23  C   UNL     1      -2.372  -2.934  24.086  0.00  0.00    +0.004 A 
ATOM     25  C   UNL     1      -4.603  -2.052  23.805  0.00  0.00    +0.000 A 
ATOM     26  C   UNL     1      -3.661  -3.049  23.564  0.00  0.00    +0.000 A 
ENDBRANCH  14   5
ENDBRANCH   8  14
BRANCH   9  15
ATOM     15  C   UNL     1      -1.338   1.631  22.744  0.00  0.00    +0.123 C 
BRANCH  15   6
ATOM      1  O   UNL     1       0.094  -0.847  22.501  0.00  0.00    -0.270 OA
ATOM      6  N   UNL     1       0.098   1.442  22.870  0.00  0.00    -0.310 N 
ATOM     21  C   UNL     1       0.690   0.201  22.735  0.00  0.00    +0.244 C 
ATOM     33  H   UNL     1       0.642   2.257  23.129  0.00  0.00    +0.149 HD
BRANCH  21  24
ATOM      2  O   UNL     1       4.908  -1.963  24.093  0.00  0.00    -0.453 OA
ATOM      3  O   UNL     1       6.226  -0.042  23.475  0.00  0.00    -0.453 OA
ATOM     24  C   UNL     1       2.164   0.172  22.918  0.00  0.00    +0.040 A 
ATOM     27  C   UNL     1       2.773  -0.969  23.446  0.00  0.00    +0.062 A 
ATOM     28  C   UNL     1       2.933   1.293  22.558  0.00  0.00    +0.017 A 
ATOM     29  C   UNL     1       4.146  -0.950  23.598  0.00  0.00    +0.167 A 
ATOM     30  C   UNL     1       4.320   1.285  22.722  0.00  0.00    +0.050 A 
ATOM     31  C   UNL     1       4.897   0.146  23.245  0.00  0.00    +0.166 A 
ATOM     32  C   UNL     1       6.225  -1.381  24.012  0.00  0.00    +0.466 C 
ENDBRANCH  21  24
ENDBRANCH  15   6
ENDBRANCH   9  15
TORSDOF 5
ENDMDL
MODEL 5
REMARK VINA RESULT:       2.6      3.009      7.304
REMARK  Name = 25389261
REMARK  5 active torsions:
REMARK  status: ('A' for Active; 'I' for Inactive)
REMARK    1  A    between atoms: N_5  and  C_14
REMARK    2  A    between atoms: N_6  and  C_15
REMARK    3  A    between atoms: C_8  and  C_14
REMARK    4  A    between atoms: C_9  and  C_15
REMARK    5  A    between atoms: C_21  and  C_24
REMARK                            x       y       z     vdW  Elec       q    Type
REMARK                         _______ _______ _______ _____ _____    ______ ____
ROOT
ATOM      4  N   UNL     1      -2.392   4.881  24.663  0.00  0.00    -0.298 NA
ATOM      7  C   UNL     1      -0.238   3.494  25.112  0.00  0.00    -0.003 C 
ATOM      8  C   UNL     1      -0.883   3.092  23.766  0.00  0.00    +0.020 C 
ATOM      9  C   UNL     1      -2.461   4.255  26.012  0.00  0.00    +0.074 C 
ATOM     10  C   UNL     1      -1.264   3.306  26.245  0.00  0.00    +0.024 C 
ATOM     11  C   UNL     1      -2.227   3.840  23.620  0.00  0.00    +0.089 C 
ATOM     12  C   UNL     1       0.076   4.999  25.026  0.00  0.00    +0.019 C 
ATOM     13  C   UNL     1      -1.200   5.762  24.629  0.00  0.00    +0.085 C 
ENDROOT
BRANCH   8  14
ATOM     14  C   UNL     1      -1.057   1.583  23.607  0.00  0.00    +0.089 C 
BRANCH  14   5
ATOM      5  N   UNL     1       0.193   0.881  23.896  0.00  0.00    -0.298 NA
ATOM     16  C   UNL     1       0.059  -0.555  23.625  0.00  0.00    +0.089 C 
ATOM     17  C   UNL     1       1.296   1.449  23.099  0.00  0.00    +0.119 C 
ATOM     18  C   UNL     1       1.302  -1.298  24.128  0.00  0.00    +0.051 C 
ATOM     19  C   UNL     1       2.592   0.684  23.241  0.00  0.00    -0.030 A 
ATOM     20  C   UNL     1       2.588  -0.648  23.691  0.00  0.00    -0.042 A 
ATOM     22  C   UNL     1       3.801   1.281  22.860  0.00  0.00    +0.005 A 
ATOM     23  C   UNL     1       3.798  -1.348  23.791  0.00  0.00    +0.004 A 
ATOM     25  C   UNL     1       4.999   0.572  22.954  0.00  0.00    +0.000 A 
ATOM     26  C   UNL     1       4.997  -0.740  23.420  0.00  0.00    +0.000 A 
ENDBRANCH  14   5
ENDBRANCH   8  14
BRANCH   9  15
ATOM     15  C   UNL     1      -3.799   3.556  26.263  0.00  0.00    +0.123 C 
BRANCH  15   6
ATOM      1  O   UNL     1      -4.972   2.017  24.140  0.00  0.00    -0.270 OA
ATOM      6  N   UNL     1      -3.676   2.122  26.060  0.00  0.00    -0.310 N 
ATOM     21  C   UNL     1      -4.283   1.475  25.001  0.00  0.00    +0.244 C 
ATOM     33  H   UNL     1      -3.176   1.603  26.773  0.00  0.00    +0.149 HD
BRANCH  21  24
ATOM      2  O   UNL     1      -4.582  -2.927  22.796  0.00  0.00    -0.453 OA
ATOM      3  O   UNL     1      -3.586  -4.062  24.674  0.00  0.00    -0.453 OA
ATOM     24  C   UNL     1      -4.083   0.003  24.949  0.00  0.00    +0.040 A 
ATOM     27  C   UNL     1      -4.473  -0.709  23.812  0.00  0.00    +0.062 A 
ATOM     28  C   UNL     1      -3.503  -0.659  26.045  0.00  0.00    +0.017 A 
ATOM     29  C   UNL     1      -4.267  -2.074  23.809  0.00  0.00    +0.167 A 
ATOM     30  C   UNL     1      -3.306  -2.042  26.016  0.00  0.00    +0.050 A 
ATOM     31  C   UNL     1      -3.699  -2.722  24.881  0.00  0.00    +0.166 A 
ATOM     32  C   UNL     1      -4.147  -4.184  23.352  0.00  0.00    +0.466 C 
ENDBRANCH  21  24
ENDBRANCH  15   6
ENDBRANCH   9  15
TORSDOF 5
ENDMDL
