MODEL 1
REMARK VINA RESULT:      -2.5      0.000      0.000
REMARK  Name = 26744523
REMARK  7 active torsions:
REMARK  status: ('A' for Active; 'I' for Inactive)
REMARK    1  A    between atoms: O_1  and  C_11
REMARK    2  A    between atoms: O_3  and  C_25
REMARK    3  A    between atoms: N_5  and  C_13
REMARK    4  A    between atoms: C_9  and  C_14
REMARK    5  A    between atoms: C_13  and  C_15
REMARK    6  A    between atoms: C_18  and  C_22
REMARK    7  A    between atoms: C_21  and  C_25
REMARK                            x       y       z     vdW  Elec       q    Type
REMARK                         _______ _______ _______ _____ _____    ______ ____
ROOT
ATOM      5  N   UNL     1      -5.144   2.156  25.513  0.00  0.00    -0.285 NA
ATOM      9  C   UNL     1      -4.345   2.821  24.463  0.00  0.00    +0.149 C 
ATOM     10  C   UNL     1      -4.598   4.326  24.668  0.00  0.00    +0.061 C 
ATOM     11  C   UNL     1      -5.587   4.405  25.825  0.00  0.00    +0.130 C 
ATOM     12  C   UNL     1      -6.265   3.048  25.807  0.00  0.00    +0.116 C 
ENDROOT
BRANCH   9  14
ATOM      2  O   UNL     1      -2.213   2.835  25.658  0.00  0.00    -0.336 OA
ATOM      6  N   UNL     1      -2.134   1.829  23.658  0.00  0.00    -0.190 NA
ATOM      7  N   UNL     1      -0.891   2.399  25.493  0.00  0.00    -0.056 NA
ATOM     14  C   UNL     1      -2.876   2.459  24.533  0.00  0.00    +0.245 A 
ATOM     18  C   UNL     1      -0.925   1.816  24.291  0.00  0.00    +0.204 A 
BRANCH  18  22
ATOM      8  N   UNL     1       2.614   1.264  23.290  0.00  0.00    -0.263 NA
ATOM     22  C   UNL     1       0.230   1.210  23.695  0.00  0.00    +0.041 A 
ATOM     23  C   UNL     1       0.126   0.031  22.965  0.00  0.00    +0.014 A 
ATOM     24  C   UNL     1       1.486   1.781  23.826  0.00  0.00    +0.122 A 
ATOM     26  C   UNL     1       1.264  -0.532  22.398  0.00  0.00    +0.020 A 
ATOM     27  C   UNL     1       2.472   0.117  22.588  0.00  0.00    +0.111 A 
ENDBRANCH  18  22
ENDBRANCH   9  14
BRANCH  11   1
ATOM      1  O   UNL     1      -6.511   5.456  25.624  0.00  0.00    -0.390 OA
ATOM     28  H   UNL     1      -6.850   5.377  24.716  0.00  0.00    +0.210 HD
ENDBRANCH  11   1
BRANCH   5  13
ATOM     13  C   UNL     1      -5.590   0.821  25.137  0.00  0.00    +0.120 C 
BRANCH  13  15
ATOM     15  C   UNL     1      -4.436  -0.136  24.994  0.00  0.00    -0.033 A 
ATOM     16  C   UNL     1      -4.262  -0.845  23.805  0.00  0.00    +0.006 A 
ATOM     17  C   UNL     1      -3.540  -0.312  26.049  0.00  0.00    +0.006 A 
ATOM     19  C   UNL     1      -3.194  -1.731  23.672  0.00  0.00    +0.015 A 
ATOM     20  C   UNL     1      -2.472  -1.199  25.915  0.00  0.00    +0.015 A 
ATOM     21  C   UNL     1      -2.298  -1.908  24.726  0.00  0.00    +0.059 A 
BRANCH  21  25
ATOM      4  O   UNL     1      -0.244  -2.943  25.381  0.00  0.00    -0.245 OA
ATOM     25  C   UNL     1      -1.183  -2.831  24.587  0.00  0.00    +0.337 C 
BRANCH  25   3
ATOM      3  O   UNL     1      -1.273  -3.591  23.461  0.00  0.00    -0.477 OA
ATOM     29  H   UNL     1      -2.173  -3.564  23.074  0.00  0.00    +0.295 HD
ENDBRANCH  25   3
ENDBRANCH  21  25
ENDBRANCH  13  15
ENDBRANCH   5  13
TORSDOF 7
ENDMDL
MODEL 2
REMARK VINA RESULT:      -0.6      2.402      5.393
REMARK  Name = 26744523
REMARK  7 active torsions:
REMARK  status: ('A' for Active; 'I' for Inactive)
REMARK    1  A    between atoms: O_1  and  C_11
REMARK    2  A    between atoms: O_3  and  C_25
REMARK    3  A    between atoms: N_5  and  C_13
REMARK    4  A    between atoms: C_9  and  C_14
REMARK    5  A    between atoms: C_13  and  C_15
REMARK    6  A    between atoms: C_18  and  C_22
REMARK    7  A    between atoms: C_21  and  C_25
REMARK                            x       y       z     vdW  Elec       q    Type
REMARK                         _______ _______ _______ _____ _____    ______ ____
ROOT
ATOM      5  N   UNL     1      -3.001  -0.755  24.739  0.00  0.00    -0.285 NA
ATOM      9  C   UNL     1      -1.827  -1.650  24.709  0.00  0.00    +0.149 C 
ATOM     10  C   UNL     1      -2.290  -2.882  23.910  0.00  0.00    +0.061 C 
ATOM     11  C   UNL     1      -3.751  -2.607  23.575  0.00  0.00    +0.130 C 
ATOM     12  C   UNL     1      -4.180  -1.614  24.639  0.00  0.00    +0.116 C 
ENDROOT
BRANCH   9  14
ATOM      2  O   UNL     1      -0.835   0.016  23.220  0.00  0.00    -0.336 OA
ATOM      6  N   UNL     1       0.663  -1.239  24.314  0.00  0.00    -0.190 NA
ATOM      7  N   UNL     1       0.425   0.465  22.805  0.00  0.00    -0.056 NA
ATOM     14  C   UNL     1      -0.605  -0.987  24.107  0.00  0.00    +0.245 A 
ATOM     18  C   UNL     1       1.256  -0.324  23.495  0.00  0.00    +0.204 A 
BRANCH  18  22
ATOM      8  N   UNL     1       4.857  -1.221  23.735  0.00  0.00    -0.263 NA
ATOM     22  C   UNL     1       2.683  -0.221  23.388  0.00  0.00    +0.041 A 
ATOM     23  C   UNL     1       3.283   0.918  22.863  0.00  0.00    +0.014 A 
ATOM     24  C   UNL     1       3.508  -1.253  23.806  0.00  0.00    +0.122 A 
ATOM     26  C   UNL     1       4.669   0.989  22.774  0.00  0.00    +0.020 A 
ATOM     27  C   UNL     1       5.403  -0.097  23.219  0.00  0.00    +0.111 A 
ENDBRANCH  18  22
ENDBRANCH   9  14
BRANCH  11   1
ATOM      1  O   UNL     1      -4.511  -3.798  23.631  0.00  0.00    -0.390 OA
ATOM     28  H   UNL     1      -5.293  -3.673  23.068  0.00  0.00    +0.210 HD
ENDBRANCH  11   1
BRANCH   5  13
ATOM     13  C   UNL     1      -3.044   0.097  25.921  0.00  0.00    +0.120 C 
BRANCH  13  15
ATOM     15  C   UNL     1      -2.552   1.490  25.626  0.00  0.00    -0.033 A 
ATOM     16  C   UNL     1      -3.418   2.431  25.069  0.00  0.00    +0.006 A 
ATOM     17  C   UNL     1      -1.232   1.839  25.910  0.00  0.00    +0.006 A 
ATOM     19  C   UNL     1      -2.962   3.721  24.795  0.00  0.00    +0.015 A 
ATOM     20  C   UNL     1      -0.777   3.129  25.637  0.00  0.00    +0.015 A 
ATOM     21  C   UNL     1      -1.643   4.070  25.079  0.00  0.00    +0.059 A 
BRANCH  21  25
ATOM      4  O   UNL     1      -1.774   6.458  25.058  0.00  0.00    -0.245 OA
ATOM     25  C   UNL     1      -1.168   5.415  24.795  0.00  0.00    +0.337 C 
BRANCH  25   3
ATOM      3  O   UNL     1       0.052   5.420  24.191  0.00  0.00    -0.477 OA
ATOM     29  H   UNL     1       0.782   5.370  24.845  0.00  0.00    +0.295 HD
ENDBRANCH  25   3
ENDBRANCH  21  25
ENDBRANCH  13  15
ENDBRANCH   5  13
TORSDOF 7
ENDMDL
MODEL 3
REMARK VINA RESULT:      -0.1      2.201      4.172
REMARK  Name = 26744523
REMARK  7 active torsions:
REMARK  status: ('A' for Active; 'I' for Inactive)
REMARK    1  A    between atoms: O_1  and  C_11
REMARK    2  A    between atoms: O_3  and  C_25
REMARK    3  A    between atoms: N_5  and  C_13
REMARK    4  A    between atoms: C_9  and  C_14
REMARK    5  A    between atoms: C_13  and  C_15
REMARK    6  A    between atoms: C_18  and  C_22
REMARK    7  A    between atoms: C_21  and  C_25
REMARK                            x       y       z     vdW  Elec       q    Type
REMARK                         _______ _______ _______ _____ _____    ______ ____
ROOT
ATOM      5  N   UNL     1      -3.866   4.029  25.438  0.00  0.00    -0.285 NA
ATOM      9  C   UNL     1      -4.751   3.013  26.045  0.00  0.00    +0.149 C 
ATOM     10  C   UNL     1      -6.176   3.556  25.835  0.00  0.00    +0.061 C 
ATOM     11  C   UNL     1      -5.988   4.901  25.145  0.00  0.00    +0.130 C 
ATOM     12  C   UNL     1      -4.577   5.304  25.529  0.00  0.00    +0.116 C 
ENDROOT
BRANCH   9  14
ATOM      2  O   UNL     1      -5.605   1.120  24.756  0.00  0.00    -0.336 OA
ATOM      6  N   UNL     1      -3.506   0.854  25.489  0.00  0.00    -0.190 NA
ATOM      7  N   UNL     1      -5.192  -0.140  24.304  0.00  0.00    -0.056 NA
ATOM     14  C   UNL     1      -4.554   1.637  25.444  0.00  0.00    +0.245 A 
ATOM     18  C   UNL     1      -3.945  -0.223  24.776  0.00  0.00    +0.204 A 
BRANCH  18  22
ATOM      8  N   UNL     1      -0.901  -2.349  24.570  0.00  0.00    -0.263 NA
ATOM     22  C   UNL     1      -3.111  -1.369  24.552  0.00  0.00    +0.041 A 
ATOM     23  C   UNL     1      -3.649  -2.573  24.112  0.00  0.00    +0.014 A 
ATOM     24  C   UNL     1      -1.742  -1.310  24.763  0.00  0.00    +0.122 A 
ATOM     26  C   UNL     1      -2.815  -3.666  23.902  0.00  0.00    +0.020 A 
ATOM     27  C   UNL     1      -1.461  -3.503  24.143  0.00  0.00    +0.111 A 
ENDBRANCH  18  22
ENDBRANCH   9  14
BRANCH  11   1
ATOM      1  O   UNL     1      -6.944   5.838  25.603  0.00  0.00    -0.390 OA
ATOM     28  H   UNL     1      -6.473   6.498  26.140  0.00  0.00    +0.210 HD
ENDBRANCH  11   1
BRANCH   5  13
ATOM     13  C   UNL     1      -2.550   4.090  26.061  0.00  0.00    +0.120 C 
BRANCH  13  15
ATOM     15  C   UNL     1      -1.551   3.220  25.346  0.00  0.00    -0.033 A 
ATOM     16  C   UNL     1      -0.452   2.709  26.037  0.00  0.00    +0.006 A 
ATOM     17  C   UNL     1      -1.725   2.922  23.994  0.00  0.00    +0.006 A 
ATOM     19  C   UNL     1       0.474   1.902  25.375  0.00  0.00    +0.015 A 
ATOM     20  C   UNL     1      -0.799   2.115  23.333  0.00  0.00    +0.015 A 
ATOM     21  C   UNL     1       0.301   1.605  24.024  0.00  0.00    +0.059 A 
BRANCH  21  25
ATOM      4  O   UNL     1       1.002  -0.290  22.743  0.00  0.00    -0.245 OA
ATOM     25  C   UNL     1       1.265   0.763  23.333  0.00  0.00    +0.337 C 
BRANCH  25   3
ATOM      3  O   UNL     1       2.531   1.259  23.398  0.00  0.00    -0.477 OA
ATOM     29  H   UNL     1       2.600   2.138  22.969  0.00  0.00    +0.295 HD
ENDBRANCH  25   3
ENDBRANCH  21  25
ENDBRANCH  13  15
ENDBRANCH   5  13
TORSDOF 7
ENDMDL
MODEL 4
REMARK VINA RESULT:       0.7      1.973      5.264
REMARK  Name = 26744523
REMARK  7 active torsions:
REMARK  status: ('A' for Active; 'I' for Inactive)
REMARK    1  A    between atoms: O_1  and  C_11
REMARK    2  A    between atoms: O_3  and  C_25
REMARK    3  A    between atoms: N_5  and  C_13
REMARK    4  A    between atoms: C_9  and  C_14
REMARK    5  A    between atoms: C_13  and  C_15
REMARK    6  A    between atoms: C_18  and  C_22
REMARK    7  A    between atoms: C_21  and  C_25
REMARK                            x       y       z     vdW  Elec       q    Type
REMARK                         _______ _______ _______ _____ _____    ______ ____
ROOT
ATOM      5  N   UNL     1      -2.722  -1.162  23.545  0.00  0.00    -0.285 NA
ATOM      9  C   UNL     1      -1.968  -0.542  24.654  0.00  0.00    +0.149 C 
ATOM     10  C   UNL     1      -1.877  -1.638  25.731  0.00  0.00    +0.061 C 
ATOM     11  C   UNL     1      -2.648  -2.820  25.156  0.00  0.00    +0.130 C 
ATOM     12  C   UNL     1      -3.583  -2.179  24.147  0.00  0.00    +0.116 C 
ENDROOT
BRANCH   9  14
ATOM      2  O   UNL     1      -0.545   1.271  23.840  0.00  0.00    -0.336 OA
ATOM      6  N   UNL     1       0.533  -0.667  24.155  0.00  0.00    -0.190 NA
ATOM      7  N   UNL     1       0.790   1.507  23.488  0.00  0.00    -0.056 NA
ATOM     14  C   UNL     1      -0.609  -0.032  24.220  0.00  0.00    +0.245 A 
ATOM     18  C   UNL     1       1.362   0.317  23.701  0.00  0.00    +0.204 A 
BRANCH  18  22
ATOM      8  N   UNL     1       4.658  -1.403  23.656  0.00  0.00    -0.263 NA
ATOM     22  C   UNL     1       2.758   0.080  23.471  0.00  0.00    +0.041 A 
ATOM     23  C   UNL     1       3.560   1.045  22.871  0.00  0.00    +0.014 A 
ATOM     24  C   UNL     1       3.351  -1.116  23.842  0.00  0.00    +0.122 A 
ATOM     26  C   UNL     1       4.910   0.787  22.663  0.00  0.00    +0.020 A 
ATOM     27  C   UNL     1       5.406  -0.441  23.070  0.00  0.00    +0.111 A 
ENDBRANCH  18  22
ENDBRANCH   9  14
BRANCH  11   1
ATOM      1  O   UNL     1      -3.358  -3.498  26.173  0.00  0.00    -0.390 OA
ATOM     28  H   UNL     1      -2.760  -3.595  26.933  0.00  0.00    +0.210 HD
ENDBRANCH  11   1
BRANCH   5  13
ATOM     13  C   UNL     1      -3.481  -0.200  22.756  0.00  0.00    +0.120 C 
BRANCH  13  15
ATOM     15  C   UNL     1      -3.888   0.997  23.574  0.00  0.00    -0.033 A 
ATOM     16  C   UNL     1      -3.371   2.257  23.269  0.00  0.00    +0.006 A 
ATOM     17  C   UNL     1      -4.782   0.848  24.634  0.00  0.00    +0.006 A 
ATOM     19  C   UNL     1      -3.748   3.366  24.027  0.00  0.00    +0.015 A 
ATOM     20  C   UNL     1      -5.159   1.958  25.390  0.00  0.00    +0.015 A 
ATOM     21  C   UNL     1      -4.642   3.217  25.086  0.00  0.00    +0.059 A 
BRANCH  21  25
ATOM      4  O   UNL     1      -6.149   4.909  25.853  0.00  0.00    -0.245 OA
ATOM     25  C   UNL     1      -5.036   4.374  25.875  0.00  0.00    +0.337 C 
BRANCH  25   3
ATOM      3  O   UNL     1      -4.029   4.829  26.671  0.00  0.00    -0.477 OA
ATOM     29  H   UNL     1      -4.120   4.508  27.593  0.00  0.00    +0.295 HD
ENDBRANCH  25   3
ENDBRANCH  21  25
ENDBRANCH  13  15
ENDBRANCH   5  13
TORSDOF 7
ENDMDL
MODEL 5
REMARK VINA RESULT:       1.3      2.347      6.177
REMARK  Name = 26744523
REMARK  7 active torsions:
REMARK  status: ('A' for Active; 'I' for Inactive)
REMARK    1  A    between atoms: O_1  and  C_11
REMARK    2  A    between atoms: O_3  and  C_25
REMARK    3  A    between atoms: N_5  and  C_13
REMARK    4  A    between atoms: C_9  and  C_14
REMARK    5  A    between atoms: C_13  and  C_15
REMARK    6  A    between atoms: C_18  and  C_22
REMARK    7  A    between atoms: C_21  and  C_25
REMARK                            x       y       z     vdW  Elec       q    Type
REMARK                         _______ _______ _______ _____ _____    ______ ____
ROOT
ATOM      5  N   UNL     1       0.438  -0.173  23.302  0.00  0.00    -0.285 NA
ATOM      9  C   UNL     1       0.964   0.872  24.204  0.00  0.00    +0.149 C 
ATOM     10  C   UNL     1       2.286   1.323  23.558  0.00  0.00    +0.061 C 
ATOM     11  C   UNL     1       2.441   0.444  22.323  0.00  0.00    +0.130 C 
ATOM     12  C   UNL     1       1.598  -0.776  22.647  0.00  0.00    +0.116 C 
ENDROOT
BRANCH   9  14
ATOM      2  O   UNL     1       0.470   3.266  24.182  0.00  0.00    -0.336 OA
ATOM      6  N   UNL     1      -1.269   1.979  24.762  0.00  0.00    -0.190 NA
ATOM      7  N   UNL     1      -0.597   4.140  24.426  0.00  0.00    -0.056 NA
ATOM     14  C   UNL     1      -0.011   2.014  24.403  0.00  0.00    +0.245 A 
ATOM     18  C   UNL     1      -1.586   3.306  24.762  0.00  0.00    +0.204 A 
BRANCH  18  22
ATOM      8  N   UNL     1      -4.521   4.311  26.812  0.00  0.00    -0.263 NA
ATOM     22  C   UNL     1      -2.901   3.767  25.102  0.00  0.00    +0.041 A 
ATOM     23  C   UNL     1      -3.819   4.107  24.114  0.00  0.00    +0.014 A 
ATOM     24  C   UNL     1      -3.298   3.885  26.424  0.00  0.00    +0.122 A 
ATOM     26  C   UNL     1      -5.087   4.548  24.474  0.00  0.00    +0.020 A 
ATOM     27  C   UNL     1      -5.386   4.632  25.824  0.00  0.00    +0.111 A 
ENDBRANCH  18  22
ENDBRANCH   9  14
BRANCH  11   1
ATOM      1  O   UNL     1       3.798   0.103  22.117  0.00  0.00    -0.390 OA
ATOM     28  H   UNL     1       4.238   0.115  22.984  0.00  0.00    +0.210 HD
ENDBRANCH  11   1
BRANCH   5  13
ATOM     13  C   UNL     1      -0.381  -1.165  23.987  0.00  0.00    +0.120 C 
BRANCH  13  15
ATOM     15  C   UNL     1      -1.755  -0.636  24.301  0.00  0.00    -0.033 A 
ATOM     16  C   UNL     1      -2.281  -0.781  25.585  0.00  0.00    +0.006 A 
ATOM     17  C   UNL     1      -2.502  -0.000  23.309  0.00  0.00    +0.006 A 
ATOM     19  C   UNL     1      -3.554  -0.292  25.876  0.00  0.00    +0.015 A 
ATOM     20  C   UNL     1      -3.775   0.489  23.601  0.00  0.00    +0.015 A 
ATOM     21  C   UNL     1      -4.301   0.343  24.885  0.00  0.00    +0.059 A 
BRANCH  21  25
ATOM      4  O   UNL     1      -6.546   0.992  24.373  0.00  0.00    -0.245 OA
ATOM     25  C   UNL     1      -5.628   0.855  25.189  0.00  0.00    +0.337 C 
BRANCH  25   3
ATOM      3  O   UNL     1      -5.773   1.181  26.503  0.00  0.00    -0.477 OA
ATOM     29  H   UNL     1      -6.528   0.709  26.914  0.00  0.00    +0.295 HD
ENDBRANCH  25   3
ENDBRANCH  21  25
ENDBRANCH  13  15
ENDBRANCH   5  13
TORSDOF 7
ENDMDL
MODEL 6
REMARK VINA RESULT:       1.4      1.591      2.155
REMARK  Name = 26744523
REMARK  7 active torsions:
REMARK  status: ('A' for Active; 'I' for Inactive)
REMARK    1  A    between atoms: O_1  and  C_11
REMARK    2  A    between atoms: O_3  and  C_25
REMARK    3  A    between atoms: N_5  and  C_13
REMARK    4  A    between atoms: C_9  and  C_14
REMARK    5  A    between atoms: C_13  and  C_15
REMARK    6  A    between atoms: C_18  and  C_22
REMARK    7  A    between atoms: C_21  and  C_25
REMARK                            x       y       z     vdW  Elec       q    Type
REMARK                         _______ _______ _______ _____ _____    ______ ____
ROOT
ATOM      5  N   UNL     1      -3.710   3.221  25.452  0.00  0.00    -0.285 NA
ATOM      9  C   UNL     1      -2.553   3.949  24.893  0.00  0.00    +0.149 C 
ATOM     10  C   UNL     1      -2.355   5.154  25.830  0.00  0.00    +0.061 C 
ATOM     11  C   UNL     1      -3.475   5.044  26.856  0.00  0.00    +0.130 C 
ATOM     12  C   UNL     1      -4.529   4.216  26.145  0.00  0.00    +0.116 C 
ENDROOT
BRANCH   9  14
ATOM      2  O   UNL     1      -0.698   2.760  25.952  0.00  0.00    -0.336 OA
ATOM      6  N   UNL     1      -0.741   2.584  23.720  0.00  0.00    -0.190 NA
ATOM      7  N   UNL     1       0.402   1.966  25.604  0.00  0.00    -0.056 NA
ATOM     14  C   UNL     1      -1.316   3.081  24.785  0.00  0.00    +0.245 A 
ATOM     18  C   UNL     1       0.308   1.908  24.272  0.00  0.00    +0.204 A 
BRANCH  18  22
ATOM      8  N   UNL     1       1.676  -0.644  21.939  0.00  0.00    -0.263 NA
ATOM     22  C   UNL     1       1.245   1.182  23.464  0.00  0.00    +0.041 A 
ATOM     23  C   UNL     1       2.583   1.556  23.405  0.00  0.00    +0.014 A 
ATOM     24  C   UNL     1       0.846   0.083  22.718  0.00  0.00    +0.122 A 
ATOM     26  C   UNL     1       3.468   0.831  22.614  0.00  0.00    +0.020 A 
ATOM     27  C   UNL     1       2.969  -0.250  21.907  0.00  0.00    +0.111 A 
ENDBRANCH  18  22
ENDBRANCH   9  14
BRANCH  11   1
ATOM      1  O   UNL     1      -3.963   6.325  27.205  0.00  0.00    -0.390 OA
ATOM     28  H   UNL     1      -3.931   6.878  26.406  0.00  0.00    +0.210 HD
ENDBRANCH  11   1
BRANCH   5  13
ATOM     13  C   UNL     1      -4.471   2.491  24.445  0.00  0.00    +0.120 C 
BRANCH  13  15
ATOM     15  C   UNL     1      -4.087   1.036  24.399  0.00  0.00    -0.033 A 
ATOM     16  C   UNL     1      -4.320   0.219  25.505  0.00  0.00    +0.006 A 
ATOM     17  C   UNL     1      -3.500   0.505  23.250  0.00  0.00    +0.006 A 
ATOM     19  C   UNL     1      -3.964  -1.129  25.463  0.00  0.00    +0.015 A 
ATOM     20  C   UNL     1      -3.145  -0.843  23.209  0.00  0.00    +0.015 A 
ATOM     21  C   UNL     1      -3.377  -1.661  24.315  0.00  0.00    +0.059 A 
BRANCH  21  25
ATOM      4  O   UNL     1      -3.781  -4.015  24.427  0.00  0.00    -0.245 OA
ATOM     25  C   UNL     1      -3.007  -3.066  24.270  0.00  0.00    +0.337 C 
BRANCH  25   3
ATOM      3  O   UNL     1      -1.679  -3.248  24.028  0.00  0.00    -0.477 OA
ATOM     29  H   UNL     1      -1.281  -2.471  23.580  0.00  0.00    +0.295 HD
ENDBRANCH  25   3
ENDBRANCH  21  25
ENDBRANCH  13  15
ENDBRANCH   5  13
TORSDOF 7
ENDMDL
