MODEL 1
REMARK VINA RESULT:      -3.5      0.000      0.000
REMARK  Name = 75536265
REMARK  9 active torsions:
REMARK  status: ('A' for Active; 'I' for Inactive)
REMARK    1  A    between atoms: O_3  and  C_8
REMARK    2  A    between atoms: N_5  and  C_12
REMARK    3  A    between atoms: N_5  and  C_15
REMARK    4  A    between atoms: C_7  and  C_12
REMARK    5  A    between atoms: C_9  and  C_13
REMARK    6  A    between atoms: C_13  and  C_14
REMARK    7  A    between atoms: C_15  and  C_17
REMARK    8  A    between atoms: C_18  and  C_21
REMARK    9  A    between atoms: C_24  and  C_27
REMARK                            x       y       z     vdW  Elec       q    Type
REMARK                         _______ _______ _______ _____ _____    ______ ____
ROOT
ATOM      2  O   UNL     1      15.043  -6.497  29.969  0.00  0.00    -0.369 OA
ATOM      7  C   UNL     1      16.241  -7.053  29.414  0.00  0.00    +0.161 C 
ATOM      8  C   UNL     1      17.175  -5.956  28.888  0.00  0.00    +0.145 C 
ATOM      9  C   UNL     1      15.243  -5.529  31.002  0.00  0.00    +0.125 C 
ATOM     10  C   UNL     1      17.400  -4.846  29.911  0.00  0.00    +0.036 C 
ATOM     11  C   UNL     1      16.074  -4.355  30.485  0.00  0.00    +0.034 C 
ENDROOT
BRANCH   8   3
ATOM      3  O   UNL     1      16.584  -5.366  27.726  0.00  0.00    -0.389 OA
ATOM     32  H   UNL     1      16.030  -4.624  28.024  0.00  0.00    +0.210 HD
ENDBRANCH   8   3
BRANCH   7  12
ATOM     12  C   UNL     1      16.923  -7.993  30.405  0.00  0.00    +0.115 C 
BRANCH  12   5
ATOM      5  N   UNL     1      16.683  -9.384  30.052  0.00  0.00    -0.309 NA
ATOM     31  H   UNL     1      16.987  -9.982  30.819  0.00  0.00    +0.122 HD
BRANCH   5  15
ATOM     15  C   UNL     1      17.397  -9.743  28.833  0.00  0.00    +0.116 C 
BRANCH  15  17
ATOM     17  C   UNL     1      16.456  -9.966  27.678  0.00  0.00    -0.034 A 
ATOM     19  C   UNL     1      15.221 -10.577  27.891  0.00  0.00    +0.005 A 
ATOM     20  C   UNL     1      16.821  -9.559  26.394  0.00  0.00    +0.005 A 
ATOM     22  C   UNL     1      14.350 -10.781  26.821  0.00  0.00    +0.003 A 
ATOM     23  C   UNL     1      15.949  -9.761  25.325  0.00  0.00    +0.003 A 
ATOM     24  C   UNL     1      14.713 -10.373  25.538  0.00  0.00    -0.050 A 
ATOM     27  C   UNL     1      13.781 -10.590  24.394  0.00  0.00    +0.044 C 
ENDBRANCH  15  17
ENDBRANCH   5  15
ENDBRANCH  12   5
ENDBRANCH   7  12
BRANCH   9  13
ATOM     13  C   UNL     1      13.869  -5.060  31.464  0.00  0.00    +0.090 C 
BRANCH  13  14
ATOM      4  O   UNL     1      12.433  -8.070  32.828  0.00  0.00    -0.354 OA
ATOM      6  N   UNL     1      13.486  -7.182  32.649  0.00  0.00    -0.083 NA
ATOM     14  C   UNL     1      12.994  -6.213  31.872  0.00  0.00    +0.087 A 
ATOM     16  C   UNL     1      11.648  -6.435  31.531  0.00  0.00    +0.076 A 
ATOM     18  C   UNL     1      11.343  -7.614  32.158  0.00  0.00    +0.167 A 
BRANCH  18  21
ATOM      1  F   UNL     1       6.784 -10.781  32.518  0.00  0.00    -0.205 F 
ATOM     21  C   UNL     1      10.168  -8.431  32.252  0.00  0.00    +0.020 A 
ATOM     25  C   UNL     1       8.951  -7.861  32.625  0.00  0.00    +0.014 A 
ATOM     26  C   UNL     1      10.243  -9.795  31.970  0.00  0.00    +0.014 A 
ATOM     28  C   UNL     1       7.808  -8.654  32.715  0.00  0.00    +0.039 A 
ATOM     29  C   UNL     1       9.100 -10.589  32.061  0.00  0.00    +0.039 A 
ATOM     30  C   UNL     1       7.882 -10.019  32.433  0.00  0.00    +0.123 A 
ENDBRANCH  18  21
ENDBRANCH  13  14
ENDBRANCH   9  13
TORSDOF 8
ENDMDL
MODEL 2
REMARK VINA RESULT:      -3.4     16.651     19.934
REMARK  Name = 75536265
REMARK  9 active torsions:
REMARK  status: ('A' for Active; 'I' for Inactive)
REMARK    1  A    between atoms: O_3  and  C_8
REMARK    2  A    between atoms: N_5  and  C_12
REMARK    3  A    between atoms: N_5  and  C_15
REMARK    4  A    between atoms: C_7  and  C_12
REMARK    5  A    between atoms: C_9  and  C_13
REMARK    6  A    between atoms: C_13  and  C_14
REMARK    7  A    between atoms: C_15  and  C_17
REMARK    8  A    between atoms: C_18  and  C_21
REMARK    9  A    between atoms: C_24  and  C_27
REMARK                            x       y       z     vdW  Elec       q    Type
REMARK                         _______ _______ _______ _____ _____    ______ ____
ROOT
ATOM      2  O   UNL     1      -3.688   0.403  23.732  0.00  0.00    -0.369 OA
ATOM      7  C   UNL     1      -4.605  -0.318  24.564  0.00  0.00    +0.161 C 
ATOM      8  C   UNL     1      -3.936  -1.542  25.204  0.00  0.00    +0.145 C 
ATOM      9  C   UNL     1      -2.482   0.821  24.377  0.00  0.00    +0.125 C 
ATOM     10  C   UNL     1      -2.607  -1.194  25.870  0.00  0.00    +0.036 C 
ATOM     11  C   UNL     1      -1.721  -0.383  24.929  0.00  0.00    +0.034 C 
ENDROOT
BRANCH   8   3
ATOM      3  O   UNL     1      -3.675  -2.509  24.184  0.00  0.00    -0.389 OA
ATOM     32  H   UNL     1      -3.102  -3.194  24.570  0.00  0.00    +0.210 HD
ENDBRANCH   8   3
BRANCH   7  12
ATOM     12  C   UNL     1      -5.264   0.605  25.586  0.00  0.00    +0.115 C 
BRANCH  12   5
ATOM      5  N   UNL     1      -6.049   1.636  24.925  0.00  0.00    -0.309 NA
ATOM     31  H   UNL     1      -5.739   1.725  23.958  0.00  0.00    +0.122 HD
BRANCH   5  15
ATOM     15  C   UNL     1      -5.911   2.916  25.608  0.00  0.00    +0.116 C 
BRANCH  15  17
ATOM     17  C   UNL     1      -4.546   3.517  25.403  0.00  0.00    -0.034 A 
ATOM     19  C   UNL     1      -3.661   3.622  26.476  0.00  0.00    +0.005 A 
ATOM     20  C   UNL     1      -4.166   3.967  24.139  0.00  0.00    +0.005 A 
ATOM     22  C   UNL     1      -2.396   4.177  26.285  0.00  0.00    +0.003 A 
ATOM     23  C   UNL     1      -2.900   4.521  23.947  0.00  0.00    +0.003 A 
ATOM     24  C   UNL     1      -2.015   4.626  25.020  0.00  0.00    -0.050 A 
ATOM     27  C   UNL     1      -0.661   5.218  24.816  0.00  0.00    +0.044 C 
ENDBRANCH  15  17
ENDBRANCH   5  15
ENDBRANCH  12   5
ENDBRANCH   7  12
BRANCH   9  13
ATOM     13  C   UNL     1      -1.644   1.566  23.345  0.00  0.00    +0.090 C 
BRANCH  13  14
ATOM      4  O   UNL     1       1.124  -0.509  22.334  0.00  0.00    -0.354 OA
ATOM      6  N   UNL     1      -0.219  -0.152  22.310  0.00  0.00    -0.083 NA
ATOM     14  C   UNL     1      -0.312   0.903  23.124  0.00  0.00    +0.087 A 
ATOM     16  C   UNL     1       0.927   1.253  23.687  0.00  0.00    +0.076 A 
ATOM     18  C   UNL     1       1.797   0.336  23.158  0.00  0.00    +0.167 A 
BRANCH  18  21
ATOM      1  F   UNL     1       7.256  -0.610  23.653  0.00  0.00    -0.205 F 
ATOM     21  C   UNL     1       3.204   0.092  23.285  0.00  0.00    +0.020 A 
ATOM     25  C   UNL     1       4.117   1.105  22.990  0.00  0.00    +0.014 A 
ATOM     26  C   UNL     1       3.660  -1.159  23.703  0.00  0.00    +0.014 A 
ATOM     28  C   UNL     1       5.485   0.868  23.115  0.00  0.00    +0.039 A 
ATOM     29  C   UNL     1       5.029  -1.396  23.827  0.00  0.00    +0.039 A 
ATOM     30  C   UNL     1       5.941  -0.382  23.533  0.00  0.00    +0.123 A 
ENDBRANCH  18  21
ENDBRANCH  13  14
ENDBRANCH   9  13
TORSDOF 8
ENDMDL
MODEL 3
REMARK VINA RESULT:      -1.7     16.264     19.334
REMARK  Name = 75536265
REMARK  9 active torsions:
REMARK  status: ('A' for Active; 'I' for Inactive)
REMARK    1  A    between atoms: O_3  and  C_8
REMARK    2  A    between atoms: N_5  and  C_12
REMARK    3  A    between atoms: N_5  and  C_15
REMARK    4  A    between atoms: C_7  and  C_12
REMARK    5  A    between atoms: C_9  and  C_13
REMARK    6  A    between atoms: C_13  and  C_14
REMARK    7  A    between atoms: C_15  and  C_17
REMARK    8  A    between atoms: C_18  and  C_21
REMARK    9  A    between atoms: C_24  and  C_27
REMARK                            x       y       z     vdW  Elec       q    Type
REMARK                         _______ _______ _______ _____ _____    ______ ____
ROOT
ATOM      2  O   UNL     1      -2.614   1.883  24.931  0.00  0.00    -0.369 OA
ATOM      7  C   UNL     1      -2.934   2.901  25.888  0.00  0.00    +0.161 C 
ATOM      8  C   UNL     1      -1.771   3.886  26.066  0.00  0.00    +0.145 C 
ATOM      9  C   UNL     1      -2.214   2.361  23.644  0.00  0.00    +0.125 C 
ATOM     10  C   UNL     1      -1.242   4.406  24.732  0.00  0.00    +0.036 C 
ATOM     11  C   UNL     1      -0.981   3.257  23.762  0.00  0.00    +0.034 C 
ENDROOT
BRANCH   8   3
ATOM      3  O   UNL     1      -0.697   3.215  26.730  0.00  0.00    -0.389 OA
ATOM     32  H   UNL     1      -0.113   2.847  26.045  0.00  0.00    +0.210 HD
ENDBRANCH   8   3
BRANCH   7  12
ATOM     12  C   UNL     1      -4.251   3.589  25.539  0.00  0.00    +0.115 C 
BRANCH  12   5
ATOM      5  N   UNL     1      -5.137   2.684  24.823  0.00  0.00    -0.309 NA
ATOM     31  H   UNL     1      -5.954   3.200  24.499  0.00  0.00    +0.122 HD
BRANCH   5  15
ATOM     15  C   UNL     1      -5.555   1.579  25.676  0.00  0.00    +0.116 C 
BRANCH  15  17
ATOM     17  C   UNL     1      -4.837   0.302  25.331  0.00  0.00    -0.034 A 
ATOM     19  C   UNL     1      -4.960  -0.246  24.054  0.00  0.00    +0.005 A 
ATOM     20  C   UNL     1      -4.048  -0.335  26.289  0.00  0.00    +0.005 A 
ATOM     22  C   UNL     1      -4.293  -1.428  23.735  0.00  0.00    +0.003 A 
ATOM     23  C   UNL     1      -3.380  -1.517  25.970  0.00  0.00    +0.003 A 
ATOM     24  C   UNL     1      -3.502  -2.064  24.692  0.00  0.00    -0.050 A 
ATOM     27  C   UNL     1      -2.788  -3.328  24.350  0.00  0.00    +0.044 C 
ENDBRANCH  15  17
ENDBRANCH   5  15
ENDBRANCH  12   5
ENDBRANCH   7  12
BRANCH   9  13
ATOM     13  C   UNL     1      -1.921   1.146  22.774  0.00  0.00    +0.090 C 
BRANCH  13  14
ATOM      4  O   UNL     1       0.825  -0.879  23.935  0.00  0.00    -0.354 OA
ATOM      6  N   UNL     1      -0.529  -0.596  23.816  0.00  0.00    -0.083 NA
ATOM     14  C   UNL     1      -0.587   0.532  23.104  0.00  0.00    +0.087 A 
ATOM     16  C   UNL     1       0.689   1.005  22.750  0.00  0.00    +0.076 A 
ATOM     18  C   UNL     1       1.541   0.082  23.296  0.00  0.00    +0.167 A 
BRANCH  18  21
ATOM      1  F   UNL     1       7.068  -0.534  23.430  0.00  0.00    -0.205 F 
ATOM     21  C   UNL     1       2.966  -0.076  23.331  0.00  0.00    +0.020 A 
ATOM     25  C   UNL     1       3.524  -1.272  23.785  0.00  0.00    +0.014 A 
ATOM     26  C   UNL     1       3.794   0.965  22.912  0.00  0.00    +0.014 A 
ATOM     28  C   UNL     1       4.909  -1.427  23.818  0.00  0.00    +0.039 A 
ATOM     29  C   UNL     1       5.180   0.811  22.946  0.00  0.00    +0.039 A 
ATOM     30  C   UNL     1       5.737  -0.385  23.398  0.00  0.00    +0.123 A 
ENDBRANCH  18  21
ENDBRANCH  13  14
ENDBRANCH   9  13
TORSDOF 8
ENDMDL
MODEL 4
REMARK VINA RESULT:      -0.8     16.826     19.833
REMARK  Name = 75536265
REMARK  9 active torsions:
REMARK  status: ('A' for Active; 'I' for Inactive)
REMARK    1  A    between atoms: O_3  and  C_8
REMARK    2  A    between atoms: N_5  and  C_12
REMARK    3  A    between atoms: N_5  and  C_15
REMARK    4  A    between atoms: C_7  and  C_12
REMARK    5  A    between atoms: C_9  and  C_13
REMARK    6  A    between atoms: C_13  and  C_14
REMARK    7  A    between atoms: C_15  and  C_17
REMARK    8  A    between atoms: C_18  and  C_21
REMARK    9  A    between atoms: C_24  and  C_27
REMARK                            x       y       z     vdW  Elec       q    Type
REMARK                         _______ _______ _______ _____ _____    ______ ____
ROOT
ATOM      2  O   UNL     1      -3.805   2.496  25.733  0.00  0.00    -0.369 OA
ATOM      7  C   UNL     1      -5.006   1.904  25.222  0.00  0.00    +0.161 C 
ATOM      8  C   UNL     1      -6.251   2.646  25.723  0.00  0.00    +0.145 C 
ATOM      9  C   UNL     1      -3.651   3.891  25.461  0.00  0.00    +0.125 C 
ATOM     10  C   UNL     1      -6.148   4.156  25.522  0.00  0.00    +0.036 C 
ATOM     11  C   UNL     1      -4.817   4.686  26.048  0.00  0.00    +0.034 C 
ENDROOT
BRANCH   8   3
ATOM      3  O   UNL     1      -6.401   2.401  27.124  0.00  0.00    -0.389 OA
ATOM     32  H   UNL     1      -6.948   3.118  27.490  0.00  0.00    +0.210 HD
ENDBRANCH   8   3
BRANCH   7  12
ATOM     12  C   UNL     1      -4.955   1.781  23.701  0.00  0.00    +0.115 C 
BRANCH  12   5
ATOM      5  N   UNL     1      -4.186   0.613  23.300  0.00  0.00    -0.309 NA
ATOM     31  H   UNL     1      -4.492   0.311  22.376  0.00  0.00    +0.122 HD
BRANCH   5  15
ATOM     15  C   UNL     1      -4.351  -0.475  24.256  0.00  0.00    +0.116 C 
BRANCH  15  17
ATOM     17  C   UNL     1      -3.034  -1.107  24.619  0.00  0.00    -0.034 A 
ATOM     19  C   UNL     1      -2.719  -2.382  24.148  0.00  0.00    +0.005 A 
ATOM     20  C   UNL     1      -2.128  -0.417  25.425  0.00  0.00    +0.005 A 
ATOM     22  C   UNL     1      -1.497  -2.966  24.483  0.00  0.00    +0.003 A 
ATOM     23  C   UNL     1      -0.906  -1.002  25.759  0.00  0.00    +0.003 A 
ATOM     24  C   UNL     1      -0.591  -2.276  25.288  0.00  0.00    -0.050 A 
ATOM     27  C   UNL     1       0.716  -2.901  25.645  0.00  0.00    +0.044 C 
ENDBRANCH  15  17
ENDBRANCH   5  15
ENDBRANCH  12   5
ENDBRANCH   7  12
BRANCH   9  13
ATOM     13  C   UNL     1      -2.329   4.335  26.074  0.00  0.00    +0.090 C 
BRANCH  13  14
ATOM      4  O   UNL     1       0.533   2.151  25.905  0.00  0.00    -0.354 OA
ATOM      6  N   UNL     1      -0.381   2.928  26.605  0.00  0.00    -0.083 NA
ATOM     14  C   UNL     1      -1.196   3.429  25.673  0.00  0.00    +0.087 A 
ATOM     16  C   UNL     1      -0.848   3.008  24.378  0.00  0.00    +0.076 A 
ATOM     18  C   UNL     1       0.245   2.206  24.578  0.00  0.00    +0.167 A 
BRANCH  18  21
ATOM      1  F   UNL     1       3.592  -0.745  21.257  0.00  0.00    -0.205 F 
ATOM     21  C   UNL     1       1.107   1.447  23.722  0.00  0.00    +0.020 A 
ATOM     25  C   UNL     1       2.455   1.788  23.608  0.00  0.00    +0.014 A 
ATOM     26  C   UNL     1       0.599   0.365  23.002  0.00  0.00    +0.014 A 
ATOM     28  C   UNL     1       3.295   1.048  22.776  0.00  0.00    +0.039 A 
ATOM     29  C   UNL     1       1.438  -0.374  22.169  0.00  0.00    +0.039 A 
ATOM     30  C   UNL     1       2.786  -0.033  22.057  0.00  0.00    +0.123 A 
ENDBRANCH  18  21
ENDBRANCH  13  14
ENDBRANCH   9  13
TORSDOF 8
ENDMDL
MODEL 5
REMARK VINA RESULT:      -0.8     16.671     19.745
REMARK  Name = 75536265
REMARK  9 active torsions:
REMARK  status: ('A' for Active; 'I' for Inactive)
REMARK    1  A    between atoms: O_3  and  C_8
REMARK    2  A    between atoms: N_5  and  C_12
REMARK    3  A    between atoms: N_5  and  C_15
REMARK    4  A    between atoms: C_7  and  C_12
REMARK    5  A    between atoms: C_9  and  C_13
REMARK    6  A    between atoms: C_13  and  C_14
REMARK    7  A    between atoms: C_15  and  C_17
REMARK    8  A    between atoms: C_18  and  C_21
REMARK    9  A    between atoms: C_24  and  C_27
REMARK                            x       y       z     vdW  Elec       q    Type
REMARK                         _______ _______ _______ _____ _____    ______ ____
ROOT
ATOM      2  O   UNL     1      -2.970   2.224  25.007  0.00  0.00    -0.369 OA
ATOM      7  C   UNL     1      -3.610   3.311  25.685  0.00  0.00    +0.161 C 
ATOM      8  C   UNL     1      -3.094   4.665  25.180  0.00  0.00    +0.145 C 
ATOM      9  C   UNL     1      -3.070   2.252  23.581  0.00  0.00    +0.125 C 
ATOM     10  C   UNL     1      -3.114   4.762  23.657  0.00  0.00    +0.036 C 
ATOM     11  C   UNL     1      -2.460   3.538  23.024  0.00  0.00    +0.034 C 
ENDROOT
BRANCH   8   3
ATOM      3  O   UNL     1      -1.741   4.833  25.612  0.00  0.00    -0.389 OA
ATOM     32  H   UNL     1      -1.165   4.485  24.910  0.00  0.00    +0.210 HD
ENDBRANCH   8   3
BRANCH   7  12
ATOM     12  C   UNL     1      -5.130   3.187  25.614  0.00  0.00    +0.115 C 
BRANCH  12   5
ATOM      5  N   UNL     1      -5.579   1.954  26.243  0.00  0.00    -0.309 NA
ATOM     31  H   UNL     1      -4.824   1.571  26.809  0.00  0.00    +0.122 HD
BRANCH   5  15
ATOM     15  C   UNL     1      -5.991   0.978  25.242  0.00  0.00    +0.116 C 
BRANCH  15  17
ATOM     17  C   UNL     1      -4.962  -0.106  25.059  0.00  0.00    -0.034 A 
ATOM     19  C   UNL     1      -3.974  -0.301  26.025  0.00  0.00    +0.005 A 
ATOM     20  C   UNL     1      -4.996  -0.916  23.924  0.00  0.00    +0.005 A 
ATOM     22  C   UNL     1      -3.022  -1.306  25.855  0.00  0.00    +0.003 A 
ATOM     23  C   UNL     1      -4.045  -1.922  23.755  0.00  0.00    +0.003 A 
ATOM     24  C   UNL     1      -3.057  -2.117  24.721  0.00  0.00    -0.050 A 
ATOM     27  C   UNL     1      -2.040  -3.192  24.541  0.00  0.00    +0.044 C 
ENDBRANCH  15  17
ENDBRANCH   5  15
ENDBRANCH  12   5
ENDBRANCH   7  12
BRANCH   9  13
ATOM     13  C   UNL     1      -2.340   1.028  23.044  0.00  0.00    +0.090 C 
BRANCH  13  14
ATOM      4  O   UNL     1       0.991   1.809  24.178  0.00  0.00    -0.354 OA
ATOM      6  N   UNL     1      -0.378   2.041  24.131  0.00  0.00    -0.083 NA
ATOM     14  C   UNL     1      -0.864   1.088  23.330  0.00  0.00    +0.087 A 
ATOM     16  C   UNL     1       0.143   0.235  22.845  0.00  0.00    +0.076 A 
ATOM     18  C   UNL     1       1.289   0.730  23.408  0.00  0.00    +0.167 A 
BRANCH  18  21
ATOM      1  F   UNL     1       6.665  -0.687  23.213  0.00  0.00    -0.205 F 
ATOM     21  C   UNL     1       2.675   0.365  23.359  0.00  0.00    +0.020 A 
ATOM     25  C   UNL     1       3.065  -0.936  23.674  0.00  0.00    +0.014 A 
ATOM     26  C   UNL     1       3.633   1.312  22.995  0.00  0.00    +0.014 A 
ATOM     28  C   UNL     1       4.412  -1.292  23.625  0.00  0.00    +0.039 A 
ATOM     29  C   UNL     1       4.981   0.956  22.946  0.00  0.00    +0.039 A 
ATOM     30  C   UNL     1       5.370  -0.346  23.261  0.00  0.00    +0.123 A 
ENDBRANCH  18  21
ENDBRANCH  13  14
ENDBRANCH   9  13
TORSDOF 8
ENDMDL
MODEL 6
REMARK VINA RESULT:       0.2     16.815     19.831
REMARK  Name = 75536265
REMARK  9 active torsions:
REMARK  status: ('A' for Active; 'I' for Inactive)
REMARK    1  A    between atoms: O_3  and  C_8
REMARK    2  A    between atoms: N_5  and  C_12
REMARK    3  A    between atoms: N_5  and  C_15
REMARK    4  A    between atoms: C_7  and  C_12
REMARK    5  A    between atoms: C_9  and  C_13
REMARK    6  A    between atoms: C_13  and  C_14
REMARK    7  A    between atoms: C_15  and  C_17
REMARK    8  A    between atoms: C_18  and  C_21
REMARK    9  A    between atoms: C_24  and  C_27
REMARK                            x       y       z     vdW  Elec       q    Type
REMARK                         _______ _______ _______ _____ _____    ______ ____
ROOT
ATOM      2  O   UNL     1      -4.186   2.987  26.197  0.00  0.00    -0.369 OA
ATOM      7  C   UNL     1      -5.569   2.935  25.827  0.00  0.00    +0.161 C 
ATOM      8  C   UNL     1      -6.011   4.232  25.135  0.00  0.00    +0.145 C 
ATOM      9  C   UNL     1      -3.280   3.271  25.128  0.00  0.00    +0.125 C 
ATOM     10  C   UNL     1      -5.063   4.642  24.011  0.00  0.00    +0.036 C 
ATOM     11  C   UNL     1      -3.613   4.617  24.484  0.00  0.00    +0.034 C 
ENDROOT
BRANCH   8   3
ATOM      3  O   UNL     1      -6.027   5.286  26.101  0.00  0.00    -0.389 OA
ATOM     32  H   UNL     1      -6.689   5.938  25.813  0.00  0.00    +0.210 HD
ENDBRANCH   8   3
BRANCH   7  12
ATOM     12  C   UNL     1      -5.873   1.686  25.002  0.00  0.00    +0.115 C 
BRANCH  12   5
ATOM      5  N   UNL     1      -5.233   0.514  25.581  0.00  0.00    -0.309 NA
ATOM     31  H   UNL     1      -4.413   0.807  26.111  0.00  0.00    +0.122 HD
BRANCH   5  15
ATOM     15  C   UNL     1      -4.841  -0.432  24.544  0.00  0.00    +0.116 C 
BRANCH  15  17
ATOM     17  C   UNL     1      -3.471  -1.003  24.796  0.00  0.00    -0.034 A 
ATOM     19  C   UNL     1      -2.619  -0.394  25.718  0.00  0.00    +0.005 A 
ATOM     20  C   UNL     1      -3.053  -2.142  24.107  0.00  0.00    +0.005 A 
ATOM     22  C   UNL     1      -1.350  -0.925  25.952  0.00  0.00    +0.003 A 
ATOM     23  C   UNL     1      -1.785  -2.673  24.342  0.00  0.00    +0.003 A 
ATOM     24  C   UNL     1      -0.933  -2.065  25.264  0.00  0.00    -0.050 A 
ATOM     27  C   UNL     1       0.423  -2.633  25.515  0.00  0.00    +0.044 C 
ENDBRANCH  15  17
ENDBRANCH   5  15
ENDBRANCH  12   5
ENDBRANCH   7  12
BRANCH   9  13
ATOM     13  C   UNL     1      -1.872   3.282  25.711  0.00  0.00    +0.090 C 
BRANCH  13  14
ATOM      4  O   UNL     1      -0.223   1.252  23.230  0.00  0.00    -0.354 OA
ATOM      6  N   UNL     1      -1.350   1.859  23.772  0.00  0.00    -0.083 NA
ATOM     14  C   UNL     1      -0.910   2.500  24.858  0.00  0.00    +0.087 A 
ATOM     16  C   UNL     1       0.473   2.334  25.051  0.00  0.00    +0.076 A 
ATOM     18  C   UNL     1       0.857   1.543  24.001  0.00  0.00    +0.167 A 
BRANCH  18  21
ATOM      1  F   UNL     1       5.691  -0.627  22.307  0.00  0.00    -0.205 F 
ATOM     21  C   UNL     1       2.102   0.984  23.564  0.00  0.00    +0.020 A 
ATOM     25  C   UNL     1       3.112   1.819  23.085  0.00  0.00    +0.014 A 
ATOM     26  C   UNL     1       2.304  -0.396  23.617  0.00  0.00    +0.014 A 
ATOM     28  C   UNL     1       4.324   1.275  22.661  0.00  0.00    +0.039 A 
ATOM     29  C   UNL     1       3.516  -0.940  23.192  0.00  0.00    +0.039 A 
ATOM     30  C   UNL     1       4.526  -0.104  22.714  0.00  0.00    +0.123 A 
ENDBRANCH  18  21
ENDBRANCH  13  14
ENDBRANCH   9  13
TORSDOF 8
ENDMDL
