MODEL 1
REMARK VINA RESULT:      27.5      0.000      0.000
REMARK  Name = 24039275
REMARK  13 active torsions:
REMARK  status: ('A' for Active; 'I' for Inactive)
REMARK    1  A    between atoms: O_2  and  C_14
REMARK    2  A    between atoms: N_7  and  C_28
REMARK    3  A    between atoms: N_9  and  C_29
REMARK    4  A    between atoms: N_10  and  C_41
REMARK    5  A    between atoms: N_11  and  C_46
REMARK    6  A    between atoms: C_12  and  C_20
REMARK    7  A    between atoms: C_15  and  C_21
REMARK    8  A    between atoms: C_17  and  C_24
REMARK    9  A    between atoms: C_21  and  C_25
REMARK   10  A    between atoms: C_21  and  C_26
REMARK   11  A    between atoms: C_28  and  C_29
REMARK   12  A    between atoms: C_30  and  C_31
REMARK   13  A    between atoms: C_38  and  C_41
REMARK                            x       y       z     vdW  Elec       q    Type
REMARK                         _______ _______ _______ _____ _____    ______ ____
ROOT
ATOM      1  S   UNL     1       1.193  -1.969  24.099  0.00  0.00    -0.057 S 
ATOM      4  O   UNL     1       3.575   1.935  23.231  0.00  0.00    -0.270 OA
ATOM      6  N   UNL     1       0.994   0.586  23.748  0.00  0.00    -0.229 NA
ATOM      8  N   UNL     1       3.207  -0.363  23.610  0.00  0.00    -0.261 N 
ATOM     12  C   UNL     1      -2.718  -1.066  24.997  0.00  0.00    -0.022 C 
ATOM     13  C   UNL     1      -2.823   0.182  24.035  0.00  0.00    +0.033 C 
ATOM     14  C   UNL     1      -4.078   1.042  24.355  0.00  0.00    +0.123 C 
ATOM     15  C   UNL     1      -5.377   0.209  24.403  0.00  0.00    +0.029 C 
ATOM     16  C   UNL     1      -4.048  -1.857  24.969  0.00  0.00    +0.008 C 
ATOM     17  C   UNL     1      -1.478   1.018  24.001  0.00  0.00    +0.042 C 
ATOM     18  C   UNL     1      -5.258  -1.005  25.323  0.00  0.00    +0.007 C 
ATOM     19  C   UNL     1      -1.593  -2.025  24.498  0.00  0.00    +0.051 C 
ATOM     20  C   UNL     1      -2.412  -0.649  26.459  0.00  0.00    +0.012 C 
ATOM     22  C   UNL     1      -0.282   0.096  23.964  0.00  0.00    +0.057 A 
ATOM     23  C   UNL     1      -0.353  -1.261  24.198  0.00  0.00    +0.015 A 
ATOM     24  C   UNL     1      -1.409   2.012  22.834  0.00  0.00    +0.014 C 
ATOM     27  C   UNL     1       1.849  -0.413  23.786  0.00  0.00    +0.165 A 
ATOM     30  C   UNL     1       3.977   0.782  23.349  0.00  0.00    +0.250 C 
ATOM     49  H   UNL     1       3.664  -1.260  23.726  0.00  0.00    +0.157 HD
ENDROOT
BRANCH  30  31
ATOM     31  C   UNL     1       5.441   0.550  23.232  0.00  0.00    +0.037 A 
ATOM     36  C   UNL     1       6.332   1.323  23.977  0.00  0.00    +0.013 A 
ATOM     37  C   UNL     1       5.924  -0.440  22.377  0.00  0.00    +0.013 A 
ATOM     38  C   UNL     1       8.188   0.116  23.012  0.00  0.00    -0.033 A 
ATOM     39  C   UNL     1       7.705   1.106  23.866  0.00  0.00    +0.005 A 
ATOM     40  C   UNL     1       7.298  -0.658  22.267  0.00  0.00    +0.005 A 
BRANCH  38  41
ATOM     41  C   UNL     1       9.657  -0.116  22.892  0.00  0.00    +0.119 C 
BRANCH  41  10
ATOM     10  N   UNL     1      10.387   1.103  22.552  0.00  0.00    -0.296 NA
ATOM     11  N   UNL     1      10.561   3.800  21.524  0.00  0.00    -0.303 NA
ATOM     42  C   UNL     1      10.302   1.377  21.113  0.00  0.00    +0.100 C 
ATOM     43  C   UNL     1       9.881   2.245  23.322  0.00  0.00    +0.100 C 
ATOM     44  C   UNL     1      11.066   2.656  20.754  0.00  0.00    +0.099 C 
ATOM     45  C   UNL     1      10.646   3.525  22.965  0.00  0.00    +0.099 C 
ATOM     46  C   UNL     1      11.294   5.018  21.185  0.00  0.00    +0.105 C 
ENDBRANCH  41  10
ENDBRANCH  38  41
ENDBRANCH  30  31
BRANCH  14   2
ATOM      2  O   UNL     1      -4.246   2.031  23.339  0.00  0.00    -0.391 OA
ATOM     47  H   UNL     1      -3.497   2.649  23.394  0.00  0.00    +0.210 HD
ENDBRANCH  14   2
BRANCH  15  21
ATOM     21  C   UNL     1      -6.583   1.057  24.825  0.00  0.00    +0.077 C 
ATOM     25  C   UNL     1      -7.274   1.640  23.596  0.00  0.00    +0.017 C 
BRANCH  21  26
ATOM      3  O   UNL     1      -6.355   2.129  26.987  0.00  0.00    -0.276 OA
ATOM      7  N   UNL     1      -5.528   3.215  25.112  0.00  0.00    -0.314 N 
ATOM     26  C   UNL     1      -6.157   2.172  25.775  0.00  0.00    +0.216 C 
ATOM     48  H   UNL     1      -5.354   3.149  24.115  0.00  0.00    +0.149 HD
BRANCH   7  28
ATOM     28  C   UNL     1      -5.028   4.386  25.794  0.00  0.00    +0.119 C 
BRANCH  28  29
ATOM     29  C   UNL     1      -3.843   4.041  26.685  0.00  0.00    +0.103 C 
BRANCH  29   9
ATOM      5  O   UNL     1       0.118   4.368  25.338  0.00  0.00    -0.377 OA
ATOM      9  N   UNL     1      -2.634   3.882  25.880  0.00  0.00    -0.297 NA
ATOM     32  C   UNL     1      -1.571   3.233  26.661  0.00  0.00    +0.112 C 
ATOM     33  C   UNL     1      -2.167   5.181  25.378  0.00  0.00    +0.112 C 
ATOM     34  C   UNL     1      -0.315   3.090  25.805  0.00  0.00    +0.175 C 
ATOM     35  C   UNL     1      -0.897   4.991  24.552  0.00  0.00    +0.175 C 
ENDBRANCH  29   9
ENDBRANCH  28  29
ENDBRANCH   7  28
ENDBRANCH  21  26
ENDBRANCH  15  21
TORSDOF 9
ENDMDL
