MODEL 1
REMARK VINA RESULT:      -1.9      0.000      0.000
REMARK  Name = 11882546
REMARK  12 active torsions:
REMARK  status: ('A' for Active; 'I' for Inactive)
REMARK    1  A    between atoms: O_1  and  C_12
REMARK    2  A    between atoms: O_2  and  C_13
REMARK    3  A    between atoms: O_6  and  C_25
REMARK    4  A    between atoms: N_8  and  C_14
REMARK    5  A    between atoms: N_9  and  C_19
REMARK    6  A    between atoms: N_10  and  C_24
REMARK    7  A    between atoms: C_16  and  C_18
REMARK    8  A    between atoms: C_19  and  C_21
REMARK    9  A    between atoms: C_19  and  C_23
REMARK   10  A    between atoms: C_21  and  C_22
REMARK   11  A    between atoms: C_22  and  C_25
REMARK   12  A    between atoms: C_30  and  C_31
REMARK                            x       y       z     vdW  Elec       q    Type
REMARK                         _______ _______ _______ _____ _____    ______ ____
ROOT
ATOM     12  C   UNL     1      -2.023  -2.528  24.459  0.00  0.00    +0.167 C 
ATOM     13  C   UNL     1      -3.293  -2.565  25.318  0.00  0.00    +0.149 C 
ATOM     14  C   UNL     1      -2.116  -1.454  23.359  0.00  0.00    +0.129 C 
ATOM     15  C   UNL     1      -3.612  -1.194  25.938  0.00  0.00    +0.074 C 
ATOM     16  C   UNL     1      -3.338  -0.043  25.013  0.00  0.00    +0.015 C 
ATOM     17  C   UNL     1      -2.676  -0.146  23.850  0.00  0.00    +0.006 C 
ENDROOT
BRANCH  14   8
ATOM      4  O   UNL     1       0.317  -0.743  24.694  0.00  0.00    -0.252 OA
ATOM      8  N   UNL     1      -0.834  -1.209  22.743  0.00  0.00    -0.290 N 
ATOM     10  N   UNL     1       1.399  -0.691  22.611  0.00  0.00    -0.269 N 
ATOM     20  C   UNL     1       0.311  -0.865  23.471  0.00  0.00    +0.304 C 
ATOM     32  H   UNL     1      -0.768  -1.235  21.730  0.00  0.00    +0.151 HD
ATOM     36  H   UNL     1       1.224  -0.831  21.620  0.00  0.00    +0.156 HD
BRANCH  10  24
ATOM     24  C   UNL     1       2.727  -0.342  22.952  0.00  0.00    +0.035 A 
ATOM     26  C   UNL     1       3.198   0.921  22.633  0.00  0.00    +0.023 A 
ATOM     27  C   UNL     1       3.529  -1.269  23.598  0.00  0.00    +0.023 A 
ATOM     28  C   UNL     1       4.508   1.267  22.968  0.00  0.00    +0.005 A 
ATOM     29  C   UNL     1       4.838  -0.923  23.934  0.00  0.00    +0.005 A 
ATOM     30  C   UNL     1       5.327   0.345  23.619  0.00  0.00    -0.050 A 
ATOM     31  C   UNL     1       6.726   0.714  23.979  0.00  0.00    +0.044 C 
ENDBRANCH  10  24
ENDBRANCH  14   8
BRANCH  16  18
ATOM      3  O   UNL     1      -5.028   1.451  25.673  0.00  0.00    -0.271 OA
ATOM      9  N   UNL     1      -2.860   2.256  25.376  0.00  0.00    -0.300 N 
ATOM     18  C   UNL     1      -3.842   1.282  25.388  0.00  0.00    +0.241 C 
ATOM     35  H   UNL     1      -1.929   2.044  25.033  0.00  0.00    +0.150 HD
BRANCH   9  19
ATOM     19  C   UNL     1      -3.116   3.640  25.708  0.00  0.00    +0.159 C 
BRANCH  19  23
ATOM      5  O   UNL     1      -4.082   4.293  23.581  0.00  0.00    -0.274 OA
ATOM     11  N   UNL     1      -5.431   4.295  25.440  0.00  0.00    -0.328 N 
ATOM     23  C   UNL     1      -4.236   4.094  24.785  0.00  0.00    +0.231 C 
ATOM     37  H   UNL     1      -5.538   4.144  26.438  0.00  0.00    +0.145 HD
ATOM     38  H   UNL     1      -6.255   4.609  24.937  0.00  0.00    +0.145 HD
ENDBRANCH  19  23
BRANCH  19  21
ATOM     21  C   UNL     1      -1.855   4.489  25.521  0.00  0.00    +0.043 C 
BRANCH  21  22
ATOM     22  C   UNL     1      -0.760   3.764  24.736  0.00  0.00    +0.123 C 
BRANCH  22  25
ATOM      7  O   UNL     1      -0.177   2.598  26.793  0.00  0.00    -0.251 OA
ATOM     25  C   UNL     1      -0.034   2.748  25.587  0.00  0.00    +0.305 C 
BRANCH  25   6
ATOM      6  O   UNL     1       0.815   1.993  24.841  0.00  0.00    -0.481 OA
ATOM     39  H   UNL     1       1.754   2.177  25.057  0.00  0.00    +0.295 HD
ENDBRANCH  25   6
ENDBRANCH  22  25
ENDBRANCH  21  22
ENDBRANCH  19  21
ENDBRANCH   9  19
ENDBRANCH  16  18
BRANCH  12   1
ATOM      1  O   UNL     1      -0.904  -2.252  25.306  0.00  0.00    -0.387 OA
ATOM     33  H   UNL     1      -0.944  -1.312  25.546  0.00  0.00    +0.210 HD
ENDBRANCH  12   1
BRANCH  13   2
ATOM      2  O   UNL     1      -4.398  -3.020  24.540  0.00  0.00    -0.389 OA
ATOM     34  H   UNL     1      -4.913  -2.238  24.278  0.00  0.00    +0.210 HD
ENDBRANCH  13   2
TORSDOF 11
ENDMDL
MODEL 2
REMARK VINA RESULT:      -1.5      1.008      1.519
REMARK  Name = 11882546
REMARK  12 active torsions:
REMARK  status: ('A' for Active; 'I' for Inactive)
REMARK    1  A    between atoms: O_1  and  C_12
REMARK    2  A    between atoms: O_2  and  C_13
REMARK    3  A    between atoms: O_6  and  C_25
REMARK    4  A    between atoms: N_8  and  C_14
REMARK    5  A    between atoms: N_9  and  C_19
REMARK    6  A    between atoms: N_10  and  C_24
REMARK    7  A    between atoms: C_16  and  C_18
REMARK    8  A    between atoms: C_19  and  C_21
REMARK    9  A    between atoms: C_19  and  C_23
REMARK   10  A    between atoms: C_21  and  C_22
REMARK   11  A    between atoms: C_22  and  C_25
REMARK   12  A    between atoms: C_30  and  C_31
REMARK                            x       y       z     vdW  Elec       q    Type
REMARK                         _______ _______ _______ _____ _____    ______ ____
ROOT
ATOM     12  C   UNL     1      -2.183  -2.267  24.707  0.00  0.00    +0.167 C 
ATOM     13  C   UNL     1      -3.536  -1.927  25.341  0.00  0.00    +0.149 C 
ATOM     14  C   UNL     1      -1.966  -1.497  23.390  0.00  0.00    +0.129 C 
ATOM     15  C   UNL     1      -3.702  -0.415  25.574  0.00  0.00    +0.074 C 
ATOM     16  C   UNL     1      -3.134   0.425  24.466  0.00  0.00    +0.015 C 
ATOM     17  C   UNL     1      -2.362  -0.048  23.476  0.00  0.00    +0.006 C 
ENDROOT
BRANCH  14   8
ATOM      4  O   UNL     1       0.261  -0.014  24.413  0.00  0.00    -0.252 OA
ATOM      8  N   UNL     1      -0.596  -1.580  22.944  0.00  0.00    -0.290 N 
ATOM     10  N   UNL     1       1.650  -1.108  22.869  0.00  0.00    -0.269 N 
ATOM     20  C   UNL     1       0.437  -0.817  23.500  0.00  0.00    +0.304 C 
ATOM     32  H   UNL     1      -0.377  -2.180  22.154  0.00  0.00    +0.151 HD
ATOM     36  H   UNL     1       1.623  -1.802  22.127  0.00  0.00    +0.156 HD
BRANCH  10  24
ATOM     24  C   UNL     1       2.923  -0.553  23.138  0.00  0.00    +0.035 A 
ATOM     26  C   UNL     1       3.871  -1.319  23.798  0.00  0.00    +0.023 A 
ATOM     27  C   UNL     1       3.197   0.744  22.736  0.00  0.00    +0.023 A 
ATOM     28  C   UNL     1       5.126  -0.772  24.064  0.00  0.00    +0.005 A 
ATOM     29  C   UNL     1       4.453   1.290  23.001  0.00  0.00    +0.005 A 
ATOM     30  C   UNL     1       5.418   0.532  23.665  0.00  0.00    -0.050 A 
ATOM     31  C   UNL     1       6.760   1.117  23.948  0.00  0.00    +0.044 C 
ENDBRANCH  10  24
ENDBRANCH  14   8
BRANCH  16  18
ATOM      3  O   UNL     1      -3.603   2.457  23.382  0.00  0.00    -0.271 OA
ATOM      9  N   UNL     1      -3.571   2.399  25.713  0.00  0.00    -0.300 N 
ATOM     18  C   UNL     1      -3.459   1.855  24.446  0.00  0.00    +0.241 C 
ATOM     35  H   UNL     1      -3.339   1.849  26.532  0.00  0.00    +0.150 HD
BRANCH   9  19
ATOM     19  C   UNL     1      -3.883   3.791  25.949  0.00  0.00    +0.159 C 
BRANCH  19  23
ATOM      5  O   UNL     1      -5.940   4.946  25.383  0.00  0.00    -0.274 OA
ATOM     11  N   UNL     1      -6.076   2.783  26.145  0.00  0.00    -0.328 N 
ATOM     23  C   UNL     1      -5.389   3.920  25.778  0.00  0.00    +0.231 C 
ATOM     37  H   UNL     1      -5.607   1.950  26.487  0.00  0.00    +0.145 HD
ATOM     38  H   UNL     1      -7.088   2.744  26.087  0.00  0.00    +0.145 HD
ENDBRANCH  19  23
BRANCH  19  21
ATOM     21  C   UNL     1      -3.127   4.694  24.970  0.00  0.00    +0.043 C 
BRANCH  21  22
ATOM     22  C   UNL     1      -1.677   4.944  25.389  0.00  0.00    +0.123 C 
BRANCH  22  25
ATOM      7  O   UNL     1      -0.324   3.552  23.919  0.00  0.00    -0.251 OA
ATOM     25  C   UNL     1      -0.778   3.783  25.031  0.00  0.00    +0.305 C 
BRANCH  25   6
ATOM      6  O   UNL     1      -0.516   3.007  26.115  0.00  0.00    -0.481 OA
ATOM     39  H   UNL     1      -0.125   2.144  25.861  0.00  0.00    +0.295 HD
ENDBRANCH  25   6
ENDBRANCH  22  25
ENDBRANCH  21  22
ENDBRANCH  19  21
ENDBRANCH   9  19
ENDBRANCH  16  18
BRANCH  12   1
ATOM      1  O   UNL     1      -1.145  -1.936  25.633  0.00  0.00    -0.387 OA
ATOM     33  H   UNL     1      -1.512  -1.296  26.266  0.00  0.00    +0.210 HD
ENDBRANCH  12   1
BRANCH  13   2
ATOM      2  O   UNL     1      -4.598  -2.415  24.524  0.00  0.00    -0.389 OA
ATOM     34  H   UNL     1      -4.590  -3.386  24.583  0.00  0.00    +0.210 HD
ENDBRANCH  13   2
TORSDOF 11
ENDMDL
MODEL 3
REMARK VINA RESULT:      -0.7      1.362      2.786
REMARK  Name = 11882546
REMARK  12 active torsions:
REMARK  status: ('A' for Active; 'I' for Inactive)
REMARK    1  A    between atoms: O_1  and  C_12
REMARK    2  A    between atoms: O_2  and  C_13
REMARK    3  A    between atoms: O_6  and  C_25
REMARK    4  A    between atoms: N_8  and  C_14
REMARK    5  A    between atoms: N_9  and  C_19
REMARK    6  A    between atoms: N_10  and  C_24
REMARK    7  A    between atoms: C_16  and  C_18
REMARK    8  A    between atoms: C_19  and  C_21
REMARK    9  A    between atoms: C_19  and  C_23
REMARK   10  A    between atoms: C_21  and  C_22
REMARK   11  A    between atoms: C_22  and  C_25
REMARK   12  A    between atoms: C_30  and  C_31
REMARK                            x       y       z     vdW  Elec       q    Type
REMARK                         _______ _______ _______ _____ _____    ______ ____
ROOT
ATOM     12  C   UNL     1      -2.246  -2.141  24.737  0.00  0.00    +0.167 C 
ATOM     13  C   UNL     1      -3.617  -1.690  25.256  0.00  0.00    +0.149 C 
ATOM     14  C   UNL     1      -1.904  -1.475  23.391  0.00  0.00    +0.129 C 
ATOM     15  C   UNL     1      -3.714  -0.160  25.379  0.00  0.00    +0.074 C 
ATOM     16  C   UNL     1      -3.031   0.573  24.259  0.00  0.00    +0.015 C 
ATOM     17  C   UNL     1      -2.224  -0.005  23.356  0.00  0.00    +0.006 C 
ENDROOT
BRANCH  14   8
ATOM      4  O   UNL     1       0.297   0.160  24.221  0.00  0.00    -0.252 OA
ATOM      8  N   UNL     1      -0.515  -1.657  23.045  0.00  0.00    -0.290 N 
ATOM     10  N   UNL     1       1.741  -1.230  22.999  0.00  0.00    -0.269 N 
ATOM     20  C   UNL     1       0.503  -0.809  23.494  0.00  0.00    +0.304 C 
ATOM     32  H   UNL     1      -0.268  -2.403  22.401  0.00  0.00    +0.151 HD
ATOM     36  H   UNL     1       1.737  -2.057  22.408  0.00  0.00    +0.156 HD
BRANCH  10  24
ATOM     24  C   UNL     1       3.009  -0.645  23.222  0.00  0.00    +0.035 A 
ATOM     26  C   UNL     1       3.979  -1.367  23.898  0.00  0.00    +0.023 A 
ATOM     27  C   UNL     1       3.256   0.637  22.759  0.00  0.00    +0.023 A 
ATOM     28  C   UNL     1       5.230  -0.791  24.119  0.00  0.00    +0.005 A 
ATOM     29  C   UNL     1       4.508   1.213  22.979  0.00  0.00    +0.005 A 
ATOM     30  C   UNL     1       5.495   0.499  23.659  0.00  0.00    -0.050 A 
ATOM     31  C   UNL     1       6.832   1.115  23.893  0.00  0.00    +0.044 C 
ENDBRANCH  10  24
ENDBRANCH  14   8
BRANCH  16  18
ATOM      3  O   UNL     1      -4.194   2.437  23.425  0.00  0.00    -0.271 OA
ATOM      9  N   UNL     1      -2.380   2.781  24.848  0.00  0.00    -0.300 N 
ATOM     18  C   UNL     1      -3.276   2.013  24.125  0.00  0.00    +0.241 C 
ATOM     35  H   UNL     1      -1.593   2.347  25.319  0.00  0.00    +0.150 HD
BRANCH   9  19
ATOM     19  C   UNL     1      -2.418   4.226  24.871  0.00  0.00    +0.159 C 
BRANCH  19  23
ATOM      5  O   UNL     1      -0.591   5.819  24.772  0.00  0.00    -0.274 OA
ATOM     11  N   UNL     1      -0.138   3.682  25.482  0.00  0.00    -0.328 N 
ATOM     23  C   UNL     1      -0.976   4.682  25.038  0.00  0.00    +0.231 C 
ATOM     37  H   UNL     1      -0.469   2.743  25.681  0.00  0.00    +0.145 HD
ATOM     38  H   UNL     1       0.851   3.856  25.625  0.00  0.00    +0.145 HD
ENDBRANCH  19  23
BRANCH  19  21
ATOM     21  C   UNL     1      -3.302   4.731  26.014  0.00  0.00    +0.043 C 
BRANCH  21  22
ATOM     22  C   UNL     1      -4.235   3.652  26.567  0.00  0.00    +0.123 C 
BRANCH  22  25
ATOM      7  O   UNL     1      -6.178   4.766  25.609  0.00  0.00    -0.251 OA
ATOM     25  C   UNL     1      -5.617   3.736  25.959  0.00  0.00    +0.305 C 
BRANCH  25   6
ATOM      6  O   UNL     1      -6.180   2.506  25.835  0.00  0.00    -0.481 OA
ATOM     39  H   UNL     1      -6.500   2.340  24.923  0.00  0.00    +0.295 HD
ENDBRANCH  25   6
ENDBRANCH  22  25
ENDBRANCH  21  22
ENDBRANCH  19  21
ENDBRANCH   9  19
ENDBRANCH  16  18
BRANCH  12   1
ATOM      1  O   UNL     1      -1.253  -1.800  25.708  0.00  0.00    -0.387 OA
ATOM     33  H   UNL     1      -1.199  -2.535  26.341  0.00  0.00    +0.210 HD
ENDBRANCH  12   1
BRANCH  13   2
ATOM      2  O   UNL     1      -4.650  -2.179  24.403  0.00  0.00    -0.389 OA
ATOM     34  H   UNL     1      -4.274  -2.903  23.874  0.00  0.00    +0.210 HD
ENDBRANCH  13   2
TORSDOF 11
ENDMDL
