MODEL 1
REMARK VINA RESULT:       5.6      0.000      0.000
REMARK  Name = 11879575
REMARK  10 active torsions:
REMARK  status: ('A' for Active; 'I' for Inactive)
REMARK    1  A    between atoms: O_3  and  C_19
REMARK    2  A    between atoms: O_3  and  C_22
REMARK    3  A    between atoms: N_6  and  C_15
REMARK    4  A    between atoms: N_7  and  C_16
REMARK    5  A    between atoms: N_11  and  C_21
REMARK    6  A    between atoms: N_12  and  C_27
REMARK    7  A    between atoms: N_12  and  C_34
REMARK    8  A    between atoms: N_12  and  C_35
REMARK    9  A    between atoms: C_32  and  C_33
REMARK   10  A    between atoms: C_33  and  C_36
REMARK                            x       y       z     vdW  Elec       q    Type
REMARK                         _______ _______ _______ _____ _____    ______ ____
ROOT
ATOM      1  O   UNL     1      -2.883   4.181  26.657  0.00  0.00    -0.370 OA
ATOM      2  O   UNL     1      -3.532   4.494  23.595  0.00  0.00    -0.370 OA
ATOM     13  C   UNL     1      -3.740   3.443  24.557  0.00  0.00    +0.176 C 
ATOM     14  C   UNL     1      -2.535   3.436  25.478  0.00  0.00    +0.172 C 
ATOM     15  C   UNL     1      -4.911   3.792  25.457  0.00  0.00    +0.171 C 
ATOM     16  C   UNL     1      -1.462   4.162  24.697  0.00  0.00    +0.131 C 
ATOM     17  C   UNL     1      -4.256   4.590  26.578  0.00  0.00    +0.190 C 
ATOM     18  C   UNL     1      -2.274   5.131  23.856  0.00  0.00    +0.185 C 
ENDROOT
BRANCH  16   7
ATOM      4  O   UNL     1       0.965   2.812  25.394  0.00  0.00    -0.252 OA
ATOM      7  N   UNL     1      -0.714   3.250  23.867  0.00  0.00    -0.292 N 
ATOM     11  N   UNL     1       0.969   1.804  23.275  0.00  0.00    -0.269 N 
ATOM     20  C   UNL     1       0.469   2.628  24.285  0.00  0.00    +0.304 C 
ATOM     37  H   UNL     1      -1.096   2.995  22.962  0.00  0.00    +0.151 HD
ATOM     38  H   UNL     1       0.435   1.765  22.411  0.00  0.00    +0.156 HD
BRANCH  11  21
ATOM     21  C   UNL     1       2.138   1.007  23.303  0.00  0.00    +0.035 A 
ATOM     25  C   UNL     1       2.040  -0.370  23.499  0.00  0.00    +0.024 A 
ATOM     26  C   UNL     1       3.389   1.600  23.135  0.00  0.00    +0.024 A 
ATOM     29  C   UNL     1       3.191  -1.155  23.527  0.00  0.00    +0.013 A 
ATOM     30  C   UNL     1       4.542   0.815  23.163  0.00  0.00    +0.013 A 
ATOM     32  C   UNL     1       4.444  -0.563  23.359  0.00  0.00    +0.017 A 
BRANCH  32  33
ATOM      5  O   UNL     1       5.621  -2.558  23.803  0.00  0.00    -0.292 OA
ATOM     33  C   UNL     1       5.645  -1.382  23.389  0.00  0.00    +0.160 C 
ATOM     36  C   UNL     1       6.976  -0.811  22.913  0.00  0.00    +0.091 C 
ENDBRANCH  32  33
ENDBRANCH  11  21
ENDBRANCH  16   7
BRANCH  15   6
ATOM      6  N   UNL     1      -5.657   2.608  25.890  0.00  0.00    -0.187 N 
ATOM      8  N   UNL     1      -6.509   2.665  26.924  0.00  0.00    -0.041 NA
ATOM      9  N   UNL     1      -6.461   0.603  26.078  0.00  0.00    -0.071 NA
ATOM     10  N   UNL     1      -6.998   1.436  27.033  0.00  0.00    -0.020 NA
ATOM     19  C   UNL     1      -5.635   1.349  25.381  0.00  0.00    +0.342 A 
BRANCH  19   3
ATOM      3  O   UNL     1      -4.897   0.963  24.358  0.00  0.00    -0.423 OA
BRANCH   3  22
ATOM     22  C   UNL     1      -4.132  -0.195  24.382  0.00  0.00    +0.134 A 
ATOM     23  C   UNL     1      -2.878  -0.190  24.995  0.00  0.00    +0.069 A 
ATOM     24  C   UNL     1      -4.616  -1.363  23.794  0.00  0.00    +0.046 A 
ATOM     27  C   UNL     1      -2.109  -1.354  25.019  0.00  0.00    +0.033 A 
ATOM     28  C   UNL     1      -3.847  -2.527  23.819  0.00  0.00    +0.005 A 
ATOM     31  C   UNL     1      -2.594  -2.523  24.431  0.00  0.00    +0.023 A 
BRANCH  27  12
ATOM     12  N   UNL     1      -0.841  -1.349  25.636  0.00  0.00    -0.336 N 
ATOM     34  C   UNL     1       0.088  -2.439  25.413  0.00  0.00    +0.129 C 
ATOM     35  C   UNL     1      -0.456  -0.260  26.512  0.00  0.00    +0.129 C 
ENDBRANCH  27  12
ENDBRANCH   3  22
ENDBRANCH  19   3
ENDBRANCH  15   6
TORSDOF 7
ENDMDL
MODEL 2
REMARK VINA RESULT:       9.1      1.802      4.255
REMARK  Name = 11879575
REMARK  10 active torsions:
REMARK  status: ('A' for Active; 'I' for Inactive)
REMARK    1  A    between atoms: O_3  and  C_19
REMARK    2  A    between atoms: O_3  and  C_22
REMARK    3  A    between atoms: N_6  and  C_15
REMARK    4  A    between atoms: N_7  and  C_16
REMARK    5  A    between atoms: N_11  and  C_21
REMARK    6  A    between atoms: N_12  and  C_27
REMARK    7  A    between atoms: N_12  and  C_34
REMARK    8  A    between atoms: N_12  and  C_35
REMARK    9  A    between atoms: C_32  and  C_33
REMARK   10  A    between atoms: C_33  and  C_36
REMARK                            x       y       z     vdW  Elec       q    Type
REMARK                         _______ _______ _______ _____ _____    ______ ____
ROOT
ATOM      1  O   UNL     1      -4.601  -1.283  24.138  0.00  0.00    -0.370 OA
ATOM      2  O   UNL     1      -2.457  -0.210  26.174  0.00  0.00    -0.370 OA
ATOM     13  C   UNL     1      -3.342   0.422  25.231  0.00  0.00    +0.176 C 
ATOM     14  C   UNL     1      -3.416  -0.479  24.013  0.00  0.00    +0.172 C 
ATOM     15  C   UNL     1      -4.755   0.441  25.782  0.00  0.00    +0.171 C 
ATOM     16  C   UNL     1      -2.181  -1.347  24.115  0.00  0.00    +0.131 C 
ATOM     17  C   UNL     1      -5.325  -0.892  25.312  0.00  0.00    +0.190 C 
ATOM     18  C   UNL     1      -1.973  -1.439  25.615  0.00  0.00    +0.185 C 
ENDROOT
BRANCH  16   7
ATOM      4  O   UNL     1       0.583  -1.716  24.768  0.00  0.00    -0.252 OA
ATOM      7  N   UNL     1      -1.052  -0.726  23.468  0.00  0.00    -0.292 N 
ATOM     11  N   UNL     1       1.150  -0.225  23.047  0.00  0.00    -0.269 N 
ATOM     20  C   UNL     1       0.275  -0.961  23.849  0.00  0.00    +0.304 C 
ATOM     37  H   UNL     1      -1.221  -0.141  22.655  0.00  0.00    +0.151 HD
ATOM     38  H   UNL     1       0.729   0.357  22.327  0.00  0.00    +0.156 HD
BRANCH  11  21
ATOM     21  C   UNL     1       2.563  -0.186  23.112  0.00  0.00    +0.035 A 
ATOM     25  C   UNL     1       3.252   0.937  22.654  0.00  0.00    +0.024 A 
ATOM     26  C   UNL     1       3.267  -1.271  23.632  0.00  0.00    +0.024 A 
ATOM     29  C   UNL     1       4.644   0.975  22.716  0.00  0.00    +0.013 A 
ATOM     30  C   UNL     1       4.660  -1.234  23.695  0.00  0.00    +0.013 A 
ATOM     32  C   UNL     1       5.349  -0.111  23.238  0.00  0.00    +0.017 A 
BRANCH  32  33
ATOM      5  O   UNL     1       7.400   0.796  23.970  0.00  0.00    -0.292 OA
ATOM     33  C   UNL     1       6.801  -0.071  23.303  0.00  0.00    +0.160 C 
ATOM     36  C   UNL     1       7.633  -1.099  22.544  0.00  0.00    +0.091 C 
ENDBRANCH  32  33
ENDBRANCH  11  21
ENDBRANCH  16   7
BRANCH  15   6
ATOM      6  N   UNL     1      -5.508   1.623  25.356  0.00  0.00    -0.187 N 
ATOM      8  N   UNL     1      -6.551   1.518  24.520  0.00  0.00    -0.041 NA
ATOM      9  N   UNL     1      -6.224   3.652  25.078  0.00  0.00    -0.071 NA
ATOM     10  N   UNL     1      -6.985   2.761  24.355  0.00  0.00    -0.020 NA
ATOM     19  C   UNL     1      -5.316   2.926  25.691  0.00  0.00    +0.342 A 
BRANCH  19   3
ATOM      3  O   UNL     1      -4.369   3.365  26.497  0.00  0.00    -0.423 OA
BRANCH   3  22
ATOM     22  C   UNL     1      -3.167   3.879  26.029  0.00  0.00    +0.134 A 
ATOM     23  C   UNL     1      -2.022   3.082  26.026  0.00  0.00    +0.069 A 
ATOM     24  C   UNL     1      -3.104   5.192  25.564  0.00  0.00    +0.046 A 
ATOM     27  C   UNL     1      -0.814   3.598  25.556  0.00  0.00    +0.033 A 
ATOM     28  C   UNL     1      -1.896   5.708  25.094  0.00  0.00    +0.005 A 
ATOM     31  C   UNL     1      -0.751   4.912  25.090  0.00  0.00    +0.023 A 
BRANCH  27  12
ATOM     12  N   UNL     1       0.344   2.793  25.555  0.00  0.00    -0.336 N 
ATOM     34  C   UNL     1       0.949   2.380  24.303  0.00  0.00    +0.129 C 
ATOM     35  C   UNL     1       0.936   2.357  26.803  0.00  0.00    +0.129 C 
ENDBRANCH  27  12
ENDBRANCH   3  22
ENDBRANCH  19   3
ENDBRANCH  15   6
TORSDOF 7
ENDMDL
