MODEL 1
REMARK VINA RESULT:      -1.3      0.000      0.000
REMARK  Name = 7050141
REMARK  12 active torsions:
REMARK  status: ('A' for Active; 'I' for Inactive)
REMARK    1  A    between atoms: O_2  and  C_11
REMARK    2  A    between atoms: O_3  and  C_13
REMARK    3  A    between atoms: O_7  and  C_30
REMARK    4  A    between atoms: O_7  and  C_33
REMARK    5  A    between atoms: N_8  and  C_12
REMARK    6  A    between atoms: N_9  and  C_18
REMARK    7  A    between atoms: C_15  and  C_17
REMARK    8  A    between atoms: C_18  and  C_20
REMARK    9  A    between atoms: C_18  and  C_23
REMARK   10  A    between atoms: C_19  and  C_21
REMARK   11  A    between atoms: C_20  and  C_22
REMARK   12  A    between atoms: C_21  and  C_24
REMARK                            x       y       z     vdW  Elec       q    Type
REMARK                         _______ _______ _______ _____ _____    ______ ____
ROOT
ATOM     11  C   UNL     1       0.632   3.311  24.885  0.00  0.00    +0.167 C 
ATOM     12  C   UNL     1       0.354   1.819  24.623  0.00  0.00    +0.127 C 
ATOM     13  C   UNL     1      -0.514   3.968  25.664  0.00  0.00    +0.149 C 
ATOM     14  C   UNL     1      -1.869   3.794  24.957  0.00  0.00    +0.074 C 
ATOM     15  C   UNL     1      -2.041   2.443  24.320  0.00  0.00    +0.015 C 
ATOM     16  C   UNL     1      -1.055   1.546  24.173  0.00  0.00    +0.006 C 
ENDROOT
BRANCH  15  17
ATOM      4  O   UNL     1      -3.598   1.900  22.648  0.00  0.00    -0.271 OA
ATOM      9  N   UNL     1      -4.296   1.939  24.872  0.00  0.00    -0.300 N 
ATOM     17  C   UNL     1      -3.376   2.068  23.847  0.00  0.00    +0.241 C 
ATOM     37  H   UNL     1      -4.005   2.132  25.827  0.00  0.00    +0.150 HD
BRANCH   9  18
ATOM     18  C   UNL     1      -5.679   1.580  24.651  0.00  0.00    +0.163 C 
BRANCH  18  23
ATOM      6  O   UNL     1      -7.112   1.528  26.613  0.00  0.00    -0.274 OA
ATOM     10  N   UNL     1      -6.405   3.566  25.821  0.00  0.00    -0.328 N 
ATOM     23  C   UNL     1      -6.487   2.189  25.786  0.00  0.00    +0.231 C 
ATOM     38  H   UNL     1      -5.883   4.099  25.134  0.00  0.00    +0.145 HD
ATOM     39  H   UNL     1      -6.885   4.097  26.539  0.00  0.00    +0.145 HD
ENDBRANCH  18  23
BRANCH  18  20
ATOM     20  C   UNL     1      -5.882   0.060  24.606  0.00  0.00    +0.067 C 
BRANCH  20  22
ATOM     22  C   UNL     1      -4.588  -0.706  24.739  0.00  0.00    -0.045 A 
ATOM     25  C   UNL     1      -4.218  -1.592  23.741  0.00  0.00    +0.007 A 
ATOM     26  C   UNL     1      -3.795  -0.509  25.859  0.00  0.00    +0.007 A 
ATOM     28  C   UNL     1      -3.022  -2.301  23.864  0.00  0.00    +0.046 A 
ATOM     29  C   UNL     1      -2.599  -1.217  25.982  0.00  0.00    +0.046 A 
ATOM     30  C   UNL     1      -2.214  -2.113  24.985  0.00  0.00    +0.120 A 
BRANCH  30   7
ATOM      7  O   UNL     1      -1.046  -2.804  25.103  0.00  0.00    -0.495 OA
ATOM     33  C   UNL     1       0.036  -2.143  25.756  0.00  0.00    +0.277 C 
ENDBRANCH  30   7
ENDBRANCH  20  22
ENDBRANCH  18  20
ENDBRANCH   9  18
ENDBRANCH  15  17
BRANCH  12   8
ATOM      5  O   UNL     1      -0.009  -0.583  23.079  0.00  0.00    -0.275 OA
ATOM      8  N   UNL     1       1.269   1.270  23.653  0.00  0.00    -0.306 N 
ATOM     19  C   UNL     1       1.006   0.101  22.955  0.00  0.00    +0.218 C 
ATOM     34  H   UNL     1       2.157   1.742  23.510  0.00  0.00    +0.149 HD
BRANCH  19  21
ATOM     21  C   UNL     1       2.105  -0.269  21.978  0.00  0.00    +0.138 C 
BRANCH  21  24
ATOM      1  S   UNL     1       3.935  -1.461  23.664  0.00  0.00    -0.101 S 
ATOM     24  C   UNL     1       3.434  -0.173  22.674  0.00  0.00    -0.001 A 
ATOM     27  C   UNL     1       4.332   0.851  22.617  0.00  0.00    +0.011 A 
ATOM     31  C   UNL     1       5.480   0.575  23.415  0.00  0.00    +0.008 A 
ATOM     32  C   UNL     1       5.394  -0.648  24.040  0.00  0.00    +0.045 A 
ENDBRANCH  21  24
ENDBRANCH  19  21
ENDBRANCH  12   8
BRANCH  11   2
ATOM      2  O   UNL     1       0.793   3.994  23.641  0.00  0.00    -0.387 OA
ATOM     35  H   UNL     1       1.509   4.644  23.729  0.00  0.00    +0.210 HD
ENDBRANCH  11   2
BRANCH  13   3
ATOM      3  O   UNL     1      -0.580   3.434  26.985  0.00  0.00    -0.389 OA
ATOM     36  H   UNL     1      -1.305   2.786  27.004  0.00  0.00    +0.210 HD
ENDBRANCH  13   3
TORSDOF 11
ENDMDL
MODEL 2
REMARK VINA RESULT:       0.0      1.548      4.246
REMARK  Name = 7050141
REMARK  12 active torsions:
REMARK  status: ('A' for Active; 'I' for Inactive)
REMARK    1  A    between atoms: O_2  and  C_11
REMARK    2  A    between atoms: O_3  and  C_13
REMARK    3  A    between atoms: O_7  and  C_30
REMARK    4  A    between atoms: O_7  and  C_33
REMARK    5  A    between atoms: N_8  and  C_12
REMARK    6  A    between atoms: N_9  and  C_18
REMARK    7  A    between atoms: C_15  and  C_17
REMARK    8  A    between atoms: C_18  and  C_20
REMARK    9  A    between atoms: C_18  and  C_23
REMARK   10  A    between atoms: C_19  and  C_21
REMARK   11  A    between atoms: C_20  and  C_22
REMARK   12  A    between atoms: C_21  and  C_24
REMARK                            x       y       z     vdW  Elec       q    Type
REMARK                         _______ _______ _______ _____ _____    ______ ____
ROOT
ATOM     11  C   UNL     1      -0.679  -1.953  24.838  0.00  0.00    +0.167 C 
ATOM     12  C   UNL     1      -0.807  -0.787  23.840  0.00  0.00    +0.127 C 
ATOM     13  C   UNL     1      -2.019  -2.673  25.035  0.00  0.00    +0.149 C 
ATOM     14  C   UNL     1      -3.134  -1.711  25.478  0.00  0.00    +0.074 C 
ATOM     15  C   UNL     1      -3.069  -0.370  24.803  0.00  0.00    +0.015 C 
ATOM     16  C   UNL     1      -2.036   0.052  24.059  0.00  0.00    +0.006 C 
ENDROOT
BRANCH  15  17
ATOM      4  O   UNL     1      -5.205   0.415  24.224  0.00  0.00    -0.271 OA
ATOM      9  N   UNL     1      -4.039   1.477  25.940  0.00  0.00    -0.300 N 
ATOM     17  C   UNL     1      -4.215   0.532  24.945  0.00  0.00    +0.241 C 
ATOM     37  H   UNL     1      -3.162   1.497  26.455  0.00  0.00    +0.150 HD
BRANCH   9  18
ATOM     18  C   UNL     1      -5.031   2.477  26.263  0.00  0.00    +0.163 C 
BRANCH  18  23
ATOM      6  O   UNL     1      -7.001   1.187  26.861  0.00  0.00    -0.274 OA
ATOM     10  N   UNL     1      -6.907   2.147  24.776  0.00  0.00    -0.328 N 
ATOM     23  C   UNL     1      -6.395   1.850  26.022  0.00  0.00    +0.231 C 
ATOM     38  H   UNL     1      -6.398   2.699  24.095  0.00  0.00    +0.145 HD
ATOM     39  H   UNL     1      -7.818   1.803  24.494  0.00  0.00    +0.145 HD
ENDBRANCH  18  23
BRANCH  18  20
ATOM     20  C   UNL     1      -4.870   3.747  25.418  0.00  0.00    +0.067 C 
BRANCH  20  22
ATOM     22  C   UNL     1      -3.458   3.943  24.922  0.00  0.00    -0.045 A 
ATOM     25  C   UNL     1      -3.064   3.340  23.739  0.00  0.00    +0.007 A 
ATOM     26  C   UNL     1      -2.581   4.722  25.661  0.00  0.00    +0.007 A 
ATOM     28  C   UNL     1      -1.758   3.520  23.281  0.00  0.00    +0.046 A 
ATOM     29  C   UNL     1      -1.276   4.903  25.203  0.00  0.00    +0.046 A 
ATOM     30  C   UNL     1      -0.865   4.301  24.014  0.00  0.00    +0.120 A 
BRANCH  30   7
ATOM      7  O   UNL     1       0.409   4.478  23.565  0.00  0.00    -0.495 OA
ATOM     33  C   UNL     1       0.590   5.356  22.456  0.00  0.00    +0.277 C 
ENDBRANCH  30   7
ENDBRANCH  20  22
ENDBRANCH  18  20
ENDBRANCH   9  18
ENDBRANCH  15  17
BRANCH  12   8
ATOM      5  O   UNL     1       1.176  -0.498  21.773  0.00  0.00    -0.275 OA
ATOM      8  N   UNL     1       0.354   0.069  23.870  0.00  0.00    -0.306 N 
ATOM     19  C   UNL     1       1.258   0.141  22.821  0.00  0.00    +0.218 C 
ATOM     34  H   UNL     1       0.530   0.606  24.714  0.00  0.00    +0.149 HD
BRANCH  19  21
ATOM     21  C   UNL     1       2.387   1.120  23.076  0.00  0.00    +0.138 C 
BRANCH  21  24
ATOM      1  S   UNL     1       3.559  -1.288  23.741  0.00  0.00    -0.101 S 
ATOM     24  C   UNL     1       3.659   0.355  23.312  0.00  0.00    -0.001 A 
ATOM     27  C   UNL     1       4.938   0.818  23.225  0.00  0.00    +0.011 A 
ATOM     31  C   UNL     1       5.880  -0.209  23.522  0.00  0.00    +0.008 A 
ATOM     32  C   UNL     1       5.265  -1.404  23.819  0.00  0.00    +0.045 A 
ENDBRANCH  21  24
ENDBRANCH  19  21
ENDBRANCH  12   8
BRANCH  11   2
ATOM      2  O   UNL     1      -0.235  -1.456  26.101  0.00  0.00    -0.387 OA
ATOM     35  H   UNL     1       0.275  -2.150  26.550  0.00  0.00    +0.210 HD
ENDBRANCH  11   2
BRANCH  13   3
ATOM      3  O   UNL     1      -2.400  -3.340  23.833  0.00  0.00    -0.389 OA
ATOM     36  H   UNL     1      -3.268  -3.750  23.986  0.00  0.00    +0.210 HD
ENDBRANCH  13   3
TORSDOF 11
ENDMDL
MODEL 3
REMARK VINA RESULT:       1.4      1.961      4.460
REMARK  Name = 7050141
REMARK  12 active torsions:
REMARK  status: ('A' for Active; 'I' for Inactive)
REMARK    1  A    between atoms: O_2  and  C_11
REMARK    2  A    between atoms: O_3  and  C_13
REMARK    3  A    between atoms: O_7  and  C_30
REMARK    4  A    between atoms: O_7  and  C_33
REMARK    5  A    between atoms: N_8  and  C_12
REMARK    6  A    between atoms: N_9  and  C_18
REMARK    7  A    between atoms: C_15  and  C_17
REMARK    8  A    between atoms: C_18  and  C_20
REMARK    9  A    between atoms: C_18  and  C_23
REMARK   10  A    between atoms: C_19  and  C_21
REMARK   11  A    between atoms: C_20  and  C_22
REMARK   12  A    between atoms: C_21  and  C_24
REMARK                            x       y       z     vdW  Elec       q    Type
REMARK                         _______ _______ _______ _____ _____    ______ ____
ROOT
ATOM     11  C   UNL     1      -0.979  -2.356  24.949  0.00  0.00    +0.167 C 
ATOM     12  C   UNL     1      -1.369  -1.849  23.548  0.00  0.00    +0.127 C 
ATOM     13  C   UNL     1      -2.182  -2.358  25.901  0.00  0.00    +0.149 C 
ATOM     14  C   UNL     1      -2.844  -0.973  25.999  0.00  0.00    +0.074 C 
ATOM     15  C   UNL     1      -2.897  -0.242  24.687  0.00  0.00    +0.015 C 
ATOM     16  C   UNL     1      -2.248  -0.629  23.579  0.00  0.00    +0.006 C 
ENDROOT
BRANCH  15  17
ATOM      4  O   UNL     1      -4.679   1.131  25.362  0.00  0.00    -0.271 OA
ATOM      9  N   UNL     1      -3.321   1.828  23.601  0.00  0.00    -0.300 N 
ATOM     17  C   UNL     1      -3.728   0.962  24.600  0.00  0.00    +0.241 C 
ATOM     37  H   UNL     1      -2.534   1.570  23.011  0.00  0.00    +0.150 HD
BRANCH   9  18
ATOM     18  C   UNL     1      -3.987   3.080  23.321  0.00  0.00    +0.163 C 
BRANCH  18  23
ATOM      6  O   UNL     1      -4.502   4.174  21.214  0.00  0.00    -0.274 OA
ATOM     10  N   UNL     1      -2.845   2.583  21.250  0.00  0.00    -0.328 N 
ATOM     23  C   UNL     1      -3.840   3.343  21.830  0.00  0.00    +0.231 C 
ATOM     38  H   UNL     1      -2.303   1.903  21.772  0.00  0.00    +0.145 HD
ATOM     39  H   UNL     1      -2.633   2.673  20.263  0.00  0.00    +0.145 HD
ENDBRANCH  18  23
BRANCH  18  20
ATOM     20  C   UNL     1      -3.398   4.243  24.129  0.00  0.00    +0.067 C 
BRANCH  20  22
ATOM     22  C   UNL     1      -2.173   3.845  24.917  0.00  0.00    -0.045 A 
ATOM     25  C   UNL     1      -0.943   3.804  24.284  0.00  0.00    +0.007 A 
ATOM     26  C   UNL     1      -2.304   3.526  26.260  0.00  0.00    +0.007 A 
ATOM     28  C   UNL     1       0.189   3.435  25.012  0.00  0.00    +0.046 A 
ATOM     29  C   UNL     1      -1.173   3.158  26.988  0.00  0.00    +0.046 A 
ATOM     30  C   UNL     1       0.073   3.111  26.364  0.00  0.00    +0.120 A 
BRANCH  30   7
ATOM      7  O   UNL     1       1.178   2.753  27.074  0.00  0.00    -0.495 OA
ATOM     33  C   UNL     1       0.993   2.458  28.457  0.00  0.00    +0.277 C 
ENDBRANCH  30   7
ENDBRANCH  20  22
ENDBRANCH  18  20
ENDBRANCH   9  18
ENDBRANCH  15  17
BRANCH  12   8
ATOM      5  O   UNL     1       0.316   0.479  23.711  0.00  0.00    -0.275 OA
ATOM      8  N   UNL     1      -0.206  -1.566  22.742  0.00  0.00    -0.306 N 
ATOM     19  C   UNL     1       0.546  -0.411  22.894  0.00  0.00    +0.218 C 
ATOM     34  H   UNL     1       0.041  -2.225  22.010  0.00  0.00    +0.149 HD
BRANCH  19  21
ATOM     21  C   UNL     1       1.728  -0.343  21.948  0.00  0.00    +0.138 C 
BRANCH  21  24
ATOM      1  S   UNL     1       3.964   1.083  22.710  0.00  0.00    -0.101 S 
ATOM     24  C   UNL     1       3.000  -0.317  22.750  0.00  0.00    -0.001 A 
ATOM     27  C   UNL     1       3.507  -1.305  23.539  0.00  0.00    +0.011 A 
ATOM     31  C   UNL     1       4.737  -0.906  24.138  0.00  0.00    +0.008 A 
ATOM     32  C   UNL     1       5.101   0.370  23.773  0.00  0.00    +0.045 A 
ENDBRANCH  21  24
ENDBRANCH  19  21
ENDBRANCH  12   8
BRANCH  11   2
ATOM      2  O   UNL     1       0.039  -1.516  25.497  0.00  0.00    -0.387 OA
ATOM     35  H   UNL     1       0.369  -1.917  26.317  0.00  0.00    +0.210 HD
ENDBRANCH  11   2
BRANCH  13   3
ATOM      3  O   UNL     1      -3.139  -3.328  25.481  0.00  0.00    -0.389 OA
ATOM     36  H   UNL     1      -3.438  -3.808  26.271  0.00  0.00    +0.210 HD
ENDBRANCH  13   3
TORSDOF 11
ENDMDL
MODEL 4
REMARK VINA RESULT:       1.9      1.967      4.368
REMARK  Name = 7050141
REMARK  12 active torsions:
REMARK  status: ('A' for Active; 'I' for Inactive)
REMARK    1  A    between atoms: O_2  and  C_11
REMARK    2  A    between atoms: O_3  and  C_13
REMARK    3  A    between atoms: O_7  and  C_30
REMARK    4  A    between atoms: O_7  and  C_33
REMARK    5  A    between atoms: N_8  and  C_12
REMARK    6  A    between atoms: N_9  and  C_18
REMARK    7  A    between atoms: C_15  and  C_17
REMARK    8  A    between atoms: C_18  and  C_20
REMARK    9  A    between atoms: C_18  and  C_23
REMARK   10  A    between atoms: C_19  and  C_21
REMARK   11  A    between atoms: C_20  and  C_22
REMARK   12  A    between atoms: C_21  and  C_24
REMARK                            x       y       z     vdW  Elec       q    Type
REMARK                         _______ _______ _______ _____ _____    ______ ____
ROOT
ATOM     11  C   UNL     1      -0.706  -1.789  24.731  0.00  0.00    +0.167 C 
ATOM     12  C   UNL     1      -0.703  -0.912  23.465  0.00  0.00    +0.127 C 
ATOM     13  C   UNL     1      -1.898  -1.462  25.639  0.00  0.00    +0.149 C 
ATOM     14  C   UNL     1      -1.943   0.027  26.022  0.00  0.00    +0.074 C 
ATOM     15  C   UNL     1      -1.553   0.944  24.897  0.00  0.00    +0.015 C 
ATOM     16  C   UNL     1      -1.005   0.535  23.743  0.00  0.00    +0.006 C 
ENDROOT
BRANCH  15  17
ATOM      4  O   UNL     1      -1.937   2.878  26.174  0.00  0.00    -0.271 OA
ATOM      9  N   UNL     1      -1.872   3.053  23.851  0.00  0.00    -0.300 N 
ATOM     17  C   UNL     1      -1.805   2.379  25.057  0.00  0.00    +0.241 C 
ATOM     37  H   UNL     1      -1.777   2.530  22.984  0.00  0.00    +0.150 HD
BRANCH   9  18
ATOM     18  C   UNL     1      -2.115   4.475  23.753  0.00  0.00    +0.163 C 
BRANCH  18  23
ATOM      6  O   UNL     1      -2.046   5.832  25.768  0.00  0.00    -0.274 OA
ATOM     10  N   UNL     1      -0.115   4.801  25.070  0.00  0.00    -0.328 N 
ATOM     23  C   UNL     1      -1.451   5.127  24.956  0.00  0.00    +0.231 C 
ATOM     38  H   UNL     1       0.363   4.214  24.395  0.00  0.00    +0.145 HD
ATOM     39  H   UNL     1       0.442   5.157  25.839  0.00  0.00    +0.145 HD
ENDBRANCH  18  23
BRANCH  18  20
ATOM     20  C   UNL     1      -3.612   4.806  23.725  0.00  0.00    +0.067 C 
BRANCH  20  22
ATOM     22  C   UNL     1      -4.451   3.778  24.446  0.00  0.00    -0.045 A 
ATOM     25  C   UNL     1      -4.661   2.541  23.860  0.00  0.00    +0.007 A 
ATOM     26  C   UNL     1      -4.996   4.093  25.681  0.00  0.00    +0.007 A 
ATOM     28  C   UNL     1      -5.437   1.592  24.526  0.00  0.00    +0.046 A 
ATOM     29  C   UNL     1      -5.772   3.144  26.347  0.00  0.00    +0.046 A 
ATOM     30  C   UNL     1      -5.992   1.894  25.770  0.00  0.00    +0.120 A 
BRANCH  30   7
ATOM      7  O   UNL     1      -6.748   0.967  26.419  0.00  0.00    -0.495 OA
ATOM     33  C   UNL     1      -7.016   1.200  27.801  0.00  0.00    +0.277 C 
ENDBRANCH  30   7
ENDBRANCH  20  22
ENDBRANCH  18  20
ENDBRANCH   9  18
ENDBRANCH  15  17
BRANCH  12   8
ATOM      5  O   UNL     1       1.313   1.134  23.273  0.00  0.00    -0.275 OA
ATOM      8  N   UNL     1       0.552  -1.000  22.760  0.00  0.00    -0.306 N 
ATOM     19  C   UNL     1       1.464   0.044  22.723  0.00  0.00    +0.218 C 
ATOM     34  H   UNL     1       0.749  -1.849  22.238  0.00  0.00    +0.149 HD
BRANCH  19  21
ATOM     21  C   UNL     1       2.716  -0.288  21.935  0.00  0.00    +0.138 C 
BRANCH  21  24
ATOM      1  S   UNL     1       4.334  -1.534  23.791  0.00  0.00    -0.101 S 
ATOM     24  C   UNL     1       3.910  -0.187  22.843  0.00  0.00    -0.001 A 
ATOM     27  C   UNL     1       4.736   0.883  23.017  0.00  0.00    +0.011 A 
ATOM     31  C   UNL     1       5.759   0.596  23.965  0.00  0.00    +0.008 A 
ATOM     32  C   UNL     1       5.659  -0.683  24.464  0.00  0.00    +0.045 A 
ENDBRANCH  21  24
ENDBRANCH  19  21
ENDBRANCH  12   8
BRANCH  11   2
ATOM      2  O   UNL     1       0.502  -1.576  25.465  0.00  0.00    -0.387 OA
ATOM     35  H   UNL     1       0.739  -0.636  25.413  0.00  0.00    +0.210 HD
ENDBRANCH  11   2
BRANCH  13   3
ATOM      3  O   UNL     1      -3.118  -1.840  25.004  0.00  0.00    -0.389 OA
ATOM     36  H   UNL     1      -3.507  -1.039  24.614  0.00  0.00    +0.210 HD
ENDBRANCH  13   3
TORSDOF 11
ENDMDL
