MODEL 1
REMARK VINA RESULT:      -3.8      0.000      0.000
REMARK  Name = 11912130
REMARK  6 active torsions:
REMARK  status: ('A' for Active; 'I' for Inactive)
REMARK    1  A    between atoms: N_5  and  C_16
REMARK    2  A    between atoms: C_9  and  C_12
REMARK    3  A    between atoms: C_12  and  C_16
REMARK    4  A    between atoms: C_16  and  C_20
REMARK    5  A    between atoms: C_17  and  C_19
REMARK    6  A    between atoms: C_23  and  C_24
REMARK                            x       y       z     vdW  Elec       q    Type
REMARK                         _______ _______ _______ _____ _____    ______ ____
ROOT
ATOM      2  O   UNL     1      -0.029  -1.040  24.931  0.00  0.00    -0.274 OA
ATOM      5  N   UNL     1      -0.485   0.629  23.373  0.00  0.00    -0.302 N 
ATOM     19  C   UNL     1      -0.752  -0.537  24.075  0.00  0.00    +0.235 C 
ATOM     28  H   UNL     1      -1.206   1.019  22.774  0.00  0.00    +0.150 HD
ENDROOT
BRANCH  19  17
ATOM      4  O   UNL     1      -3.463   1.036  22.624  0.00  0.00    -0.269 OA
ATOM      6  N   UNL     1      -3.095  -0.379  24.424  0.00  0.00    -0.283 N 
ATOM      7  N   UNL     1      -2.227  -2.939  25.416  0.00  0.00    -0.312 NA
ATOM     17  C   UNL     1      -2.074  -1.142  23.698  0.00  0.00    +0.176 C 
ATOM     18  C   UNL     1      -2.121  -2.643  23.986  0.00  0.00    +0.113 C 
ATOM     21  C   UNL     1      -3.330  -0.776  25.822  0.00  0.00    +0.124 C 
ATOM     22  C   UNL     1      -3.406  -2.290  25.984  0.00  0.00    +0.100 C 
ATOM     23  C   UNL     1      -3.689   0.739  23.799  0.00  0.00    +0.254 C 
ATOM     29  H   UNL     1      -1.393  -2.593  25.891  0.00  0.00    +0.122 HD
BRANCH  23  24
ATOM      1  S   UNL     1      -4.647   3.247  24.337  0.00  0.00    -0.092 S 
ATOM     24  C   UNL     1      -4.597   1.555  24.599  0.00  0.00    +0.074 A 
ATOM     25  C   UNL     1      -5.470   1.159  25.589  0.00  0.00    +0.021 A 
ATOM     26  C   UNL     1      -6.189   2.259  26.138  0.00  0.00    +0.008 A 
ATOM     27  C   UNL     1      -5.839   3.454  25.548  0.00  0.00    +0.046 A 
ENDBRANCH  23  24
ENDBRANCH  19  17
BRANCH   5  16
ATOM     16  C   UNL     1       0.708   1.413  23.566  0.00  0.00    +0.159 C 
BRANCH  16  20
ATOM      3  O   UNL     1       1.766  -0.333  22.247  0.00  0.00    -0.274 OA
ATOM      8  N   UNL     1       3.104   1.212  23.295  0.00  0.00    -0.328 N 
ATOM     20  C   UNL     1       1.885   0.668  22.951  0.00  0.00    +0.231 C 
ATOM     30  H   UNL     1       3.970   0.803  22.957  0.00  0.00    +0.145 HD
ATOM     31  H   UNL     1       3.190   2.027  23.894  0.00  0.00    +0.145 HD
ENDBRANCH  16  20
BRANCH  16  12
ATOM     12  C   UNL     1       0.934   1.772  25.036  0.00  0.00    +0.035 C 
BRANCH  12   9
ATOM      9  C   UNL     1       0.129   2.978  25.515  0.00  0.00    -0.009 C 
ATOM     10  C   UNL     1      -1.236   2.536  26.061  0.00  0.00    +0.003 C 
ATOM     11  C   UNL     1      -0.041   4.001  24.382  0.00  0.00    +0.003 C 
ATOM     13  C   UNL     1      -2.082   3.731  26.496  0.00  0.00    +0.000 C 
ATOM     14  C   UNL     1      -0.889   5.192  24.821  0.00  0.00    +0.000 C 
ATOM     15  C   UNL     1      -2.241   4.749  25.371  0.00  0.00    +0.000 C 
ENDBRANCH  12   9
ENDBRANCH  16  12
ENDBRANCH   5  16
TORSDOF 6
ENDMDL
MODEL 2
REMARK VINA RESULT:      -3.6      1.807      3.733
REMARK  Name = 11912130
REMARK  6 active torsions:
REMARK  status: ('A' for Active; 'I' for Inactive)
REMARK    1  A    between atoms: N_5  and  C_16
REMARK    2  A    between atoms: C_9  and  C_12
REMARK    3  A    between atoms: C_12  and  C_16
REMARK    4  A    between atoms: C_16  and  C_20
REMARK    5  A    between atoms: C_17  and  C_19
REMARK    6  A    between atoms: C_23  and  C_24
REMARK                            x       y       z     vdW  Elec       q    Type
REMARK                         _______ _______ _______ _____ _____    ______ ____
ROOT
ATOM      2  O   UNL     1      -0.263  -1.751  24.995  0.00  0.00    -0.274 OA
ATOM      5  N   UNL     1      -0.449   0.093  23.585  0.00  0.00    -0.302 N 
ATOM     19  C   UNL     1      -0.907  -1.057  24.213  0.00  0.00    +0.235 C 
ATOM     28  H   UNL     1      -1.104   0.655  23.050  0.00  0.00    +0.150 HD
ENDROOT
BRANCH  19  17
ATOM      4  O   UNL     1      -3.191   0.970  22.599  0.00  0.00    -0.269 OA
ATOM      6  N   UNL     1      -3.155  -0.352  24.504  0.00  0.00    -0.283 N 
ATOM      7  N   UNL     1      -2.887  -2.959  25.696  0.00  0.00    -0.312 NA
ATOM     17  C   UNL     1      -2.330  -1.376  23.855  0.00  0.00    +0.176 C 
ATOM     18  C   UNL     1      -2.714  -2.803  24.251  0.00  0.00    +0.113 C 
ATOM     21  C   UNL     1      -3.477  -0.579  25.922  0.00  0.00    +0.124 C 
ATOM     22  C   UNL     1      -3.892  -2.021  26.192  0.00  0.00    +0.100 C 
ATOM     23  C   UNL     1      -3.480   0.821  23.787  0.00  0.00    +0.254 C 
ATOM     29  H   UNL     1      -1.998  -2.774  26.161  0.00  0.00    +0.122 HD
BRANCH  23  24
ATOM      1  S   UNL     1      -3.329   3.293  24.953  0.00  0.00    -0.092 S 
ATOM     24  C   UNL     1      -4.183   1.878  24.508  0.00  0.00    +0.074 A 
ATOM     25  C   UNL     1      -5.500   1.920  24.912  0.00  0.00    +0.021 A 
ATOM     26  C   UNL     1      -5.811   3.131  25.594  0.00  0.00    +0.008 A 
ATOM     27  C   UNL     1      -4.721   3.968  25.687  0.00  0.00    +0.046 A 
ENDBRANCH  23  24
ENDBRANCH  19  17
BRANCH   5  16
ATOM     16  C   UNL     1       0.875   0.626  23.778  0.00  0.00    +0.159 C 
BRANCH  16  20
ATOM      3  O   UNL     1       0.740   3.052  23.737  0.00  0.00    -0.274 OA
ATOM      8  N   UNL     1       0.702   1.987  25.771  0.00  0.00    -0.328 N 
ATOM     20  C   UNL     1       0.756   2.014  24.394  0.00  0.00    +0.231 C 
ATOM     30  H   UNL     1       0.630   2.847  26.305  0.00  0.00    +0.145 HD
ATOM     31  H   UNL     1       0.736   1.123  26.303  0.00  0.00    +0.145 HD
ENDBRANCH  16  20
BRANCH  16  12
ATOM     12  C   UNL     1       1.697   0.617  22.487  0.00  0.00    +0.035 C 
BRANCH  12   9
ATOM      9  C   UNL     1       3.093   0.016  22.641  0.00  0.00    -0.009 C 
ATOM     10  C   UNL     1       3.077  -1.138  23.654  0.00  0.00    +0.003 C 
ATOM     11  C   UNL     1       4.104   1.094  23.057  0.00  0.00    +0.003 C 
ATOM     13  C   UNL     1       4.473  -1.719  23.867  0.00  0.00    +0.000 C 
ATOM     14  C   UNL     1       5.498   0.508  23.270  0.00  0.00    +0.000 C 
ATOM     15  C   UNL     1       5.477  -0.644  24.270  0.00  0.00    +0.000 C 
ENDBRANCH  12   9
ENDBRANCH  16  12
ENDBRANCH   5  16
TORSDOF 6
ENDMDL
MODEL 3
REMARK VINA RESULT:      -3.5      2.531      6.375
REMARK  Name = 11912130
REMARK  6 active torsions:
REMARK  status: ('A' for Active; 'I' for Inactive)
REMARK    1  A    between atoms: N_5  and  C_16
REMARK    2  A    between atoms: C_9  and  C_12
REMARK    3  A    between atoms: C_12  and  C_16
REMARK    4  A    between atoms: C_16  and  C_20
REMARK    5  A    between atoms: C_17  and  C_19
REMARK    6  A    between atoms: C_23  and  C_24
REMARK                            x       y       z     vdW  Elec       q    Type
REMARK                         _______ _______ _______ _____ _____    ______ ____
ROOT
ATOM      2  O   UNL     1      -0.455  -1.351  24.255  0.00  0.00    -0.274 OA
ATOM      5  N   UNL     1      -2.461  -0.168  24.242  0.00  0.00    -0.302 N 
ATOM     19  C   UNL     1      -1.141  -0.403  23.883  0.00  0.00    +0.235 C 
ATOM     28  H   UNL     1      -2.970   0.581  23.783  0.00  0.00    +0.150 HD
ENDROOT
BRANCH  19  17
ATOM      4  O   UNL     1       1.414  -0.734  21.582  0.00  0.00    -0.269 OA
ATOM      6  N   UNL     1       0.818   0.774  23.240  0.00  0.00    -0.283 N 
ATOM      7  N   UNL     1      -1.065   2.693  24.272  0.00  0.00    -0.312 NA
ATOM     17  C   UNL     1      -0.611   0.638  22.939  0.00  0.00    +0.176 C 
ATOM     18  C   UNL     1      -1.381   1.955  23.048  0.00  0.00    +0.113 C 
ATOM     21  C   UNL     1       1.162   1.649  24.373  0.00  0.00    +0.124 C 
ATOM     22  C   UNL     1       0.371   2.952  24.353  0.00  0.00    +0.100 C 
ATOM     23  C   UNL     1       1.746  -0.015  22.526  0.00  0.00    +0.254 C 
ATOM     29  H   UNL     1      -1.351   2.139  25.079  0.00  0.00    +0.122 HD
BRANCH  23  24
ATOM      1  S   UNL     1       3.834  -1.309  23.735  0.00  0.00    -0.092 S 
ATOM     24  C   UNL     1       3.143   0.044  22.945  0.00  0.00    +0.074 A 
ATOM     25  C   UNL     1       4.047   1.074  22.800  0.00  0.00    +0.021 A 
ATOM     26  C   UNL     1       5.322   0.747  23.343  0.00  0.00    +0.008 A 
ATOM     27  C   UNL     1       5.346  -0.520  23.883  0.00  0.00    +0.046 A 
ENDBRANCH  23  24
ENDBRANCH  19  17
BRANCH   5  16
ATOM     16  C   UNL     1      -3.207  -1.032  25.120  0.00  0.00    +0.159 C 
BRANCH  16  20
ATOM      3  O   UNL     1      -4.701  -2.199  23.598  0.00  0.00    -0.274 OA
ATOM      8  N   UNL     1      -2.943  -3.360  24.513  0.00  0.00    -0.328 N 
ATOM     20  C   UNL     1      -3.706  -2.228  24.319  0.00  0.00    +0.231 C 
ATOM     30  H   UNL     1      -3.175  -4.229  24.043  0.00  0.00    +0.145 HD
ATOM     31  H   UNL     1      -2.135  -3.376  25.127  0.00  0.00    +0.145 HD
ENDBRANCH  16  20
BRANCH  16  12
ATOM     12  C   UNL     1      -4.333  -0.290  25.844  0.00  0.00    +0.035 C 
BRANCH  12   9
ATOM      9  C   UNL     1      -4.669   1.073  25.243  0.00  0.00    -0.009 C 
ATOM     10  C   UNL     1      -3.696   2.145  25.756  0.00  0.00    +0.003 C 
ATOM     11  C   UNL     1      -6.121   1.461  25.554  0.00  0.00    +0.003 C 
ATOM     13  C   UNL     1      -4.044   3.528  25.212  0.00  0.00    +0.000 C 
ATOM     14  C   UNL     1      -6.465   2.845  25.010  0.00  0.00    +0.000 C 
ATOM     15  C   UNL     1      -5.491   3.906  25.514  0.00  0.00    +0.000 C 
ENDBRANCH  12   9
ENDBRANCH  16  12
ENDBRANCH   5  16
TORSDOF 6
ENDMDL
MODEL 4
REMARK VINA RESULT:      -2.9      2.299      5.375
REMARK  Name = 11912130
REMARK  6 active torsions:
REMARK  status: ('A' for Active; 'I' for Inactive)
REMARK    1  A    between atoms: N_5  and  C_16
REMARK    2  A    between atoms: C_9  and  C_12
REMARK    3  A    between atoms: C_12  and  C_16
REMARK    4  A    between atoms: C_16  and  C_20
REMARK    5  A    between atoms: C_17  and  C_19
REMARK    6  A    between atoms: C_23  and  C_24
REMARK                            x       y       z     vdW  Elec       q    Type
REMARK                         _______ _______ _______ _____ _____    ______ ____
ROOT
ATOM      2  O   UNL     1      -4.357  -0.064  24.107  0.00  0.00    -0.274 OA
ATOM      5  N   UNL     1      -3.829   1.485  25.764  0.00  0.00    -0.302 N 
ATOM     19  C   UNL     1      -3.720   0.270  25.102  0.00  0.00    +0.235 C 
ATOM     28  H   UNL     1      -3.170   1.702  26.505  0.00  0.00    +0.150 HD
ENDROOT
BRANCH  19  17
ATOM      4  O   UNL     1      -0.393   0.967  25.716  0.00  0.00    -0.269 OA
ATOM      6  N   UNL     1      -1.608  -0.752  24.742  0.00  0.00    -0.283 N 
ATOM      7  N   UNL     1      -3.568  -2.846  24.999  0.00  0.00    -0.312 NA
ATOM     17  C   UNL     1      -2.691  -0.629  25.724  0.00  0.00    +0.176 C 
ATOM     18  C   UNL     1      -3.284  -1.976  26.142  0.00  0.00    +0.113 C 
ATOM     21  C   UNL     1      -1.809  -1.745  23.674  0.00  0.00    +0.124 C 
ATOM     22  C   UNL     1      -2.356  -3.063  24.212  0.00  0.00    +0.100 C 
ATOM     23  C   UNL     1      -0.523   0.150  24.803  0.00  0.00    +0.254 C 
ATOM     29  H   UNL     1      -4.275  -2.404  24.412  0.00  0.00    +0.122 HD
BRANCH  23  24
ATOM      1  S   UNL     1       1.896   1.020  23.860  0.00  0.00    -0.092 S 
ATOM     24  C   UNL     1       0.465   0.088  23.730  0.00  0.00    +0.074 A 
ATOM     25  C   UNL     1       0.427  -0.641  22.561  0.00  0.00    +0.021 A 
ATOM     26  C   UNL     1       1.589  -0.432  21.763  0.00  0.00    +0.008 A 
ATOM     27  C   UNL     1       2.470   0.448  22.351  0.00  0.00    +0.046 A 
ENDBRANCH  23  24
ENDBRANCH  19  17
BRANCH   5  16
ATOM     16  C   UNL     1      -4.730   2.531  25.353  0.00  0.00    +0.159 C 
BRANCH  16  20
ATOM      3  O   UNL     1      -6.871   1.765  24.495  0.00  0.00    -0.274 OA
ATOM      8  N   UNL     1      -6.584   1.893  26.771  0.00  0.00    -0.328 N 
ATOM     20  C   UNL     1      -6.159   2.016  25.465  0.00  0.00    +0.231 C 
ATOM     30  H   UNL     1      -7.522   1.567  26.982  0.00  0.00    +0.145 HD
ATOM     31  H   UNL     1      -5.993   2.123  27.563  0.00  0.00    +0.145 HD
ENDBRANCH  16  20
BRANCH  16  12
ATOM     12  C   UNL     1      -4.398   3.067  23.958  0.00  0.00    +0.035 C 
BRANCH  12   9
ATOM      9  C   UNL     1      -3.087   3.846  23.885  0.00  0.00    -0.009 C 
ATOM     10  C   UNL     1      -1.923   2.913  23.520  0.00  0.00    +0.003 C 
ATOM     11  C   UNL     1      -2.812   4.571  25.210  0.00  0.00    +0.003 C 
ATOM     13  C   UNL     1      -0.591   3.660  23.494  0.00  0.00    +0.000 C 
ATOM     14  C   UNL     1      -1.478   5.314  25.179  0.00  0.00    +0.000 C 
ATOM     15  C   UNL     1      -0.325   4.387  24.808  0.00  0.00    +0.000 C 
ENDBRANCH  12   9
ENDBRANCH  16  12
ENDBRANCH   5  16
TORSDOF 6
ENDMDL
MODEL 5
REMARK VINA RESULT:      -2.7     18.634     20.302
REMARK  Name = 11912130
REMARK  6 active torsions:
REMARK  status: ('A' for Active; 'I' for Inactive)
REMARK    1  A    between atoms: N_5  and  C_16
REMARK    2  A    between atoms: C_9  and  C_12
REMARK    3  A    between atoms: C_12  and  C_16
REMARK    4  A    between atoms: C_16  and  C_20
REMARK    5  A    between atoms: C_17  and  C_19
REMARK    6  A    between atoms: C_23  and  C_24
REMARK                            x       y       z     vdW  Elec       q    Type
REMARK                         _______ _______ _______ _____ _____    ______ ____
ROOT
ATOM      2  O   UNL     1      14.707  -5.635  29.510  0.00  0.00    -0.274 OA
ATOM      5  N   UNL     1      17.009  -5.921  29.709  0.00  0.00    -0.302 N 
ATOM     19  C   UNL     1      15.706  -5.868  30.184  0.00  0.00    +0.235 C 
ATOM     28  H   UNL     1      17.747  -6.239  30.330  0.00  0.00    +0.150 HD
ENDROOT
BRANCH  19  17
ATOM      4  O   UNL     1      15.594  -8.956  31.728  0.00  0.00    -0.269 OA
ATOM      6  N   UNL     1      14.410  -6.965  31.843  0.00  0.00    -0.283 N 
ATOM      7  N   UNL     1      14.373  -4.144  32.418  0.00  0.00    -0.312 NA
ATOM     17  C   UNL     1      15.622  -6.160  31.655  0.00  0.00    +0.176 C 
ATOM     18  C   UNL     1      15.636  -4.881  32.494  0.00  0.00    +0.113 C 
ATOM     21  C   UNL     1      13.143  -6.221  31.934  0.00  0.00    +0.124 C 
ATOM     22  C   UNL     1      13.261  -4.995  32.833  0.00  0.00    +0.100 C 
ATOM     23  C   UNL     1      14.511  -8.373  31.804  0.00  0.00    +0.254 C 
ATOM     29  H   UNL     1      14.222  -3.840  31.456  0.00  0.00    +0.122 HD
BRANCH  23  24
ATOM      1  S   UNL     1      12.931 -10.264  30.611  0.00  0.00    -0.092 S 
ATOM     24  C   UNL     1      13.269  -9.139  31.857  0.00  0.00    +0.074 A 
ATOM     25  C   UNL     1      12.267  -9.097  32.802  0.00  0.00    +0.021 A 
ATOM     26  C   UNL     1      11.209 -10.002  32.500  0.00  0.00    +0.008 A 
ATOM     27  C   UNL     1      11.442 -10.700  31.335  0.00  0.00    +0.046 A 
ENDBRANCH  23  24
ENDBRANCH  19  17
BRANCH   5  16
ATOM     16  C   UNL     1      17.357  -5.700  28.329  0.00  0.00    +0.159 C 
BRANCH  16  20
ATOM      3  O   UNL     1      17.399  -3.354  28.963  0.00  0.00    -0.274 OA
ATOM      8  N   UNL     1      17.405  -3.886  26.729  0.00  0.00    -0.328 N 
ATOM     20  C   UNL     1      17.400  -4.200  28.071  0.00  0.00    +0.231 C 
ATOM     30  H   UNL     1      17.424  -2.918  26.422  0.00  0.00    +0.145 HD
ATOM     31  H   UNL     1      17.386  -4.593  26.001  0.00  0.00    +0.145 HD
ENDBRANCH  16  20
BRANCH  16  12
ATOM     12  C   UNL     1      16.423  -6.442  27.370  0.00  0.00    +0.035 C 
BRANCH  12   9
ATOM      9  C   UNL     1      16.732  -7.930  27.224  0.00  0.00    -0.009 C 
ATOM     10  C   UNL     1      16.612  -8.367  25.758  0.00  0.00    +0.003 C 
ATOM     11  C   UNL     1      15.807  -8.766  28.121  0.00  0.00    +0.003 C 
ATOM     13  C   UNL     1      16.863  -9.865  25.594  0.00  0.00    +0.000 C 
ATOM     14  C   UNL     1      16.061 -10.262  27.953  0.00  0.00    +0.000 C 
ATOM     15  C   UNL     1      15.949 -10.692  26.493  0.00  0.00    +0.000 C 
ENDBRANCH  12   9
ENDBRANCH  16  12
ENDBRANCH   5  16
TORSDOF 6
ENDMDL
MODEL 6
REMARK VINA RESULT:      -2.3      2.080      4.803
REMARK  Name = 11912130
REMARK  6 active torsions:
REMARK  status: ('A' for Active; 'I' for Inactive)
REMARK    1  A    between atoms: N_5  and  C_16
REMARK    2  A    between atoms: C_9  and  C_12
REMARK    3  A    between atoms: C_12  and  C_16
REMARK    4  A    between atoms: C_16  and  C_20
REMARK    5  A    between atoms: C_17  and  C_19
REMARK    6  A    between atoms: C_23  and  C_24
REMARK                            x       y       z     vdW  Elec       q    Type
REMARK                         _______ _______ _______ _____ _____    ______ ____
ROOT
ATOM      2  O   UNL     1      -1.663  -1.259  26.867  0.00  0.00    -0.274 OA
ATOM      5  N   UNL     1      -2.477  -0.614  24.782  0.00  0.00    -0.302 N 
ATOM     19  C   UNL     1      -1.510  -0.726  25.771  0.00  0.00    +0.235 C 
ATOM     28  H   UNL     1      -2.208  -0.260  23.870  0.00  0.00    +0.150 HD
ENDROOT
BRANCH  19  17
ATOM      4  O   UNL     1       0.049   2.078  27.051  0.00  0.00    -0.269 OA
ATOM      6  N   UNL     1      -0.479   1.248  24.951  0.00  0.00    -0.283 N 
ATOM      7  N   UNL     1      -0.166  -0.805  22.956  0.00  0.00    -0.312 NA
ATOM     17  C   UNL     1      -0.195  -0.133  25.355  0.00  0.00    +0.176 C 
ATOM     18  C   UNL     1       0.484  -0.957  24.259  0.00  0.00    +0.113 C 
ATOM     21  C   UNL     1      -0.979   1.434  23.578  0.00  0.00    +0.124 C 
ATOM     22  C   UNL     1      -0.199   0.603  22.566  0.00  0.00    +0.100 C 
ATOM     23  C   UNL     1      -0.376   2.278  25.912  0.00  0.00    +0.254 C 
ATOM     29  H   UNL     1      -1.121  -1.159  23.016  0.00  0.00    +0.122 HD
BRANCH  23  24
ATOM      1  S   UNL     1      -2.226   4.277  26.189  0.00  0.00    -0.092 S 
ATOM     24  C   UNL     1      -0.799   3.617  25.512  0.00  0.00    +0.074 A 
ATOM     25  C   UNL     1      -0.198   4.484  24.625  0.00  0.00    +0.021 A 
ATOM     26  C   UNL     1      -0.919   5.706  24.501  0.00  0.00    +0.008 A 
ATOM     27  C   UNL     1      -2.044   5.727  25.297  0.00  0.00    +0.046 A 
ENDBRANCH  23  24
ENDBRANCH  19  17
BRANCH   5  16
ATOM     16  C   UNL     1      -3.817  -1.124  24.925  0.00  0.00    +0.159 C 
BRANCH  16  20
ATOM      3  O   UNL     1      -4.540  -2.703  23.226  0.00  0.00    -0.274 OA
ATOM      8  N   UNL     1      -3.192  -3.462  24.924  0.00  0.00    -0.328 N 
ATOM     20  C   UNL     1      -3.895  -2.486  24.249  0.00  0.00    +0.231 C 
ATOM     30  H   UNL     1      -3.171  -4.417  24.582  0.00  0.00    +0.145 HD
ATOM     31  H   UNL     1      -2.680  -3.274  25.779  0.00  0.00    +0.145 HD
ENDBRANCH  16  20
BRANCH  16  12
ATOM     12  C   UNL     1      -4.869  -0.141  24.406  0.00  0.00    +0.035 C 
BRANCH  12   9
ATOM      9  C   UNL     1      -4.707   1.283  24.933  0.00  0.00    -0.009 C 
ATOM     10  C   UNL     1      -5.902   1.674  25.814  0.00  0.00    +0.003 C 
ATOM     11  C   UNL     1      -4.535   2.275  23.774  0.00  0.00    +0.003 C 
ATOM     13  C   UNL     1      -5.789   3.114  26.309  0.00  0.00    +0.000 C 
ATOM     14  C   UNL     1      -4.424   3.713  24.274  0.00  0.00    +0.000 C 
ATOM     15  C   UNL     1      -5.609   4.095  25.155  0.00  0.00    +0.000 C 
ENDBRANCH  12   9
ENDBRANCH  16  12
ENDBRANCH   5  16
TORSDOF 6
ENDMDL
MODEL 7
REMARK VINA RESULT:      -1.8      2.408      4.910
REMARK  Name = 11912130
REMARK  6 active torsions:
REMARK  status: ('A' for Active; 'I' for Inactive)
REMARK    1  A    between atoms: N_5  and  C_16
REMARK    2  A    between atoms: C_9  and  C_12
REMARK    3  A    between atoms: C_12  and  C_16
REMARK    4  A    between atoms: C_16  and  C_20
REMARK    5  A    between atoms: C_17  and  C_19
REMARK    6  A    between atoms: C_23  and  C_24
REMARK                            x       y       z     vdW  Elec       q    Type
REMARK                         _______ _______ _______ _____ _____    ______ ____
ROOT
ATOM      2  O   UNL     1      -4.558  -0.249  25.982  0.00  0.00    -0.274 OA
ATOM      5  N   UNL     1      -3.447  -0.458  23.946  0.00  0.00    -0.302 N 
ATOM     19  C   UNL     1      -4.325   0.138  24.840  0.00  0.00    +0.235 C 
ATOM     28  H   UNL     1      -3.242   0.014  23.070  0.00  0.00    +0.150 HD
ENDROOT
BRANCH  19  17
ATOM      4  O   UNL     1      -3.026   2.336  22.513  0.00  0.00    -0.269 OA
ATOM      6  N   UNL     1      -4.074   2.484  24.577  0.00  0.00    -0.283 N 
ATOM      7  N   UNL     1      -6.407   2.024  26.201  0.00  0.00    -0.312 NA
ATOM     17  C   UNL     1      -4.975   1.367  24.271  0.00  0.00    +0.176 C 
ATOM     18  C   UNL     1      -6.392   1.567  24.810  0.00  0.00    +0.113 C 
ATOM     21  C   UNL     1      -4.193   3.064  25.925  0.00  0.00    +0.124 C 
ATOM     22  C   UNL     1      -5.647   3.264  26.337  0.00  0.00    +0.100 C 
ATOM     23  C   UNL     1      -3.089   2.848  23.632  0.00  0.00    +0.254 C 
ATOM     29  H   UNL     1      -5.987   1.307  26.792  0.00  0.00    +0.122 HD
BRANCH  23  24
ATOM      1  S   UNL     1      -2.536   4.968  25.273  0.00  0.00    -0.092 S 
ATOM     24  C   UNL     1      -2.124   3.870  24.025  0.00  0.00    +0.074 A 
ATOM     25  C   UNL     1      -0.863   4.106  23.524  0.00  0.00    +0.021 A 
ATOM     26  C   UNL     1      -0.226   5.203  24.173  0.00  0.00    +0.008 A 
ATOM     27  C   UNL     1      -1.025   5.763  25.146  0.00  0.00    +0.046 A 
ENDBRANCH  23  24
ENDBRANCH  19  17
BRANCH   5  16
ATOM     16  C   UNL     1      -2.681  -1.637  24.257  0.00  0.00    +0.159 C 
BRANCH  16  20
ATOM      3  O   UNL     1      -3.561  -3.647  25.303  0.00  0.00    -0.274 OA
ATOM      8  N   UNL     1      -4.579  -2.869  23.397  0.00  0.00    -0.328 N 
ATOM     20  C   UNL     1      -3.637  -2.814  24.402  0.00  0.00    +0.231 C 
ATOM     30  H   UNL     1      -5.271  -3.611  23.373  0.00  0.00    +0.145 HD
ATOM     31  H   UNL     1      -4.619  -2.186  22.647  0.00  0.00    +0.145 HD
ENDBRANCH  16  20
BRANCH  16  12
ATOM     12  C   UNL     1      -1.788  -1.442  25.484  0.00  0.00    +0.035 C 
BRANCH  12   9
ATOM      9  C   UNL     1      -0.545  -0.594  25.221  0.00  0.00    -0.009 C 
ATOM     10  C   UNL     1      -0.801   0.873  25.595  0.00  0.00    +0.003 C 
ATOM     11  C   UNL     1      -0.105  -0.716  23.755  0.00  0.00    +0.003 C 
ATOM     13  C   UNL     1       0.411   1.751  25.290  0.00  0.00    +0.000 C 
ATOM     14  C   UNL     1       1.106   0.165  23.455  0.00  0.00    +0.000 C 
ATOM     15  C   UNL     1       0.851   1.620  23.835  0.00  0.00    +0.000 C 
ENDBRANCH  12   9
ENDBRANCH  16  12
ENDBRANCH   5  16
TORSDOF 6
ENDMDL
MODEL 8
REMARK VINA RESULT:      -1.3     15.588     17.596
REMARK  Name = 11912130
REMARK  6 active torsions:
REMARK  status: ('A' for Active; 'I' for Inactive)
REMARK    1  A    between atoms: N_5  and  C_16
REMARK    2  A    between atoms: C_9  and  C_12
REMARK    3  A    between atoms: C_12  and  C_16
REMARK    4  A    between atoms: C_16  and  C_20
REMARK    5  A    between atoms: C_17  and  C_19
REMARK    6  A    between atoms: C_23  and  C_24
REMARK                            x       y       z     vdW  Elec       q    Type
REMARK                         _______ _______ _______ _____ _____    ______ ____
ROOT
ATOM      2  O   UNL     1      -5.487 -10.123  13.657  0.00  0.00    -0.274 OA
ATOM      5  N   UNL     1      -5.758 -10.032  11.346  0.00  0.00    -0.302 N 
ATOM     19  C   UNL     1      -6.182 -10.238  12.651  0.00  0.00    +0.235 C 
ATOM     28  H   UNL     1      -6.446 -10.038  10.598  0.00  0.00    +0.150 HD
ENDROOT
BRANCH  19  17
ATOM      4  O   UNL     1      -8.372 -10.781  10.035  0.00  0.00    -0.269 OA
ATOM      6  N   UNL     1      -8.362  -9.556  12.005  0.00  0.00    -0.283 N 
ATOM      7  N   UNL     1      -8.239  -9.507  14.881  0.00  0.00    -0.312 NA
ATOM     17  C   UNL     1      -7.636 -10.606  12.728  0.00  0.00    +0.176 C 
ATOM     18  C   UNL     1      -8.106 -10.781  14.173  0.00  0.00    +0.113 C 
ATOM     21  C   UNL     1      -8.649  -8.326  12.760  0.00  0.00    +0.124 C 
ATOM     22  C   UNL     1      -9.156  -8.622  14.167  0.00  0.00    +0.100 C 
ATOM     23  C   UNL     1      -8.629  -9.732  10.629  0.00  0.00    +0.254 C 
ATOM     29  H   UNL     1      -7.322  -9.062  14.942  0.00  0.00    +0.122 HD
BRANCH  23  24
ATOM      1  S   UNL     1      -8.314  -7.808   8.707  0.00  0.00    -0.092 S 
ATOM     24  C   UNL     1      -9.229  -8.612   9.911  0.00  0.00    +0.074 A 
ATOM     25  C   UNL     1     -10.485  -8.065  10.056  0.00  0.00    +0.021 A 
ATOM     26  C   UNL     1     -10.700  -6.974   9.167  0.00  0.00    +0.008 A 
ATOM     27  C   UNL     1      -9.599  -6.726   8.376  0.00  0.00    +0.046 A 
ENDBRANCH  23  24
ENDBRANCH  19  17
BRANCH   5  16
ATOM     16  C   UNL     1      -4.413  -9.648  11.002  0.00  0.00    +0.159 C 
BRANCH  16  20
ATOM      3  O   UNL     1      -4.180  -7.974   9.256  0.00  0.00    -0.274 OA
ATOM      8  N   UNL     1      -4.703 -10.127   8.648  0.00  0.00    -0.328 N 
ATOM     20  C   UNL     1      -4.402  -9.143   9.566  0.00  0.00    +0.231 C 
ATOM     30  H   UNL     1      -4.737  -9.918   7.655  0.00  0.00    +0.145 HD
ATOM     31  H   UNL     1      -4.904 -11.084   8.918  0.00  0.00    +0.145 HD
ENDBRANCH  16  20
BRANCH  16  12
ATOM     12  C   UNL     1      -3.409 -10.778  11.242  0.00  0.00    +0.035 C 
BRANCH  12   9
ATOM      9  C   UNL     1      -2.086 -10.319  11.850  0.00  0.00    -0.009 C 
ATOM     10  C   UNL     1      -2.245 -10.051  13.354  0.00  0.00    +0.003 C 
ATOM     11  C   UNL     1      -1.560  -9.071  11.126  0.00  0.00    +0.003 C 
ATOM     13  C   UNL     1      -0.948  -9.537  13.974  0.00  0.00    +0.000 C 
ATOM     14  C   UNL     1      -0.264  -8.560  11.751  0.00  0.00    +0.000 C 
ATOM     15  C   UNL     1      -0.423  -8.303  13.246  0.00  0.00    +0.000 C 
ENDBRANCH  12   9
ENDBRANCH  16  12
ENDBRANCH   5  16
TORSDOF 6
ENDMDL
MODEL 9
REMARK VINA RESULT:      -0.5      2.370      4.818
REMARK  Name = 11912130
REMARK  6 active torsions:
REMARK  status: ('A' for Active; 'I' for Inactive)
REMARK    1  A    between atoms: N_5  and  C_16
REMARK    2  A    between atoms: C_9  and  C_12
REMARK    3  A    between atoms: C_12  and  C_16
REMARK    4  A    between atoms: C_16  and  C_20
REMARK    5  A    between atoms: C_17  and  C_19
REMARK    6  A    between atoms: C_23  and  C_24
REMARK                            x       y       z     vdW  Elec       q    Type
REMARK                         _______ _______ _______ _____ _____    ______ ____
ROOT
ATOM      2  O   UNL     1      -4.977  -0.568  24.529  0.00  0.00    -0.274 OA
ATOM      5  N   UNL     1      -3.577   1.197  25.118  0.00  0.00    -0.302 N 
ATOM     19  C   UNL     1      -3.945  -0.139  25.037  0.00  0.00    +0.235 C 
ATOM     28  H   UNL     1      -2.647   1.431  25.451  0.00  0.00    +0.150 HD
ENDROOT
BRANCH  19  17
ATOM      4  O   UNL     1      -0.814   0.697  26.233  0.00  0.00    -0.269 OA
ATOM      6  N   UNL     1      -1.707  -0.896  24.803  0.00  0.00    -0.283 N 
ATOM      7  N   UNL     1      -3.448  -3.153  24.398  0.00  0.00    -0.312 NA
ATOM     17  C   UNL     1      -2.910  -1.054  25.627  0.00  0.00    +0.176 C 
ATOM     18  C   UNL     1      -3.403  -2.499  25.708  0.00  0.00    +0.113 C 
ATOM     21  C   UNL     1      -1.666  -1.678  23.557  0.00  0.00    +0.124 C 
ATOM     22  C   UNL     1      -2.132  -3.115  23.766  0.00  0.00    +0.100 C 
ATOM     23  C   UNL     1      -0.740   0.063  25.179  0.00  0.00    +0.254 C 
ATOM     29  H   UNL     1      -4.120  -2.666  23.805  0.00  0.00    +0.122 HD
BRANCH  23  24
ATOM      1  S   UNL     1       1.017  -1.034  23.390  0.00  0.00    -0.092 S 
ATOM     24  C   UNL     1       0.374   0.290  24.264  0.00  0.00    +0.074 A 
ATOM     25  C   UNL     1       1.030   1.467  23.977  0.00  0.00    +0.021 A 
ATOM     26  C   UNL     1       2.073   1.279  23.025  0.00  0.00    +0.008 A 
ATOM     27  C   UNL     1       2.175  -0.034  22.621  0.00  0.00    +0.046 A 
ENDBRANCH  23  24
ENDBRANCH  19  17
BRANCH   5  16
ATOM     16  C   UNL     1      -4.386   2.273  24.605  0.00  0.00    +0.159 C 
BRANCH  16  20
ATOM      3  O   UNL     1      -4.365   3.540  22.531  0.00  0.00    -0.274 OA
ATOM      8  N   UNL     1      -2.824   1.858  22.803  0.00  0.00    -0.328 N 
ATOM     20  C   UNL     1      -3.875   2.648  23.220  0.00  0.00    +0.231 C 
ATOM     30  H   UNL     1      -2.397   2.000  21.893  0.00  0.00    +0.145 HD
ATOM     31  H   UNL     1      -2.441   1.111  23.373  0.00  0.00    +0.145 HD
ENDBRANCH  16  20
BRANCH  16  12
ATOM     12  C   UNL     1      -4.439   3.466  25.562  0.00  0.00    +0.035 C 
BRANCH  12   9
ATOM      9  C   UNL     1      -3.094   4.156  25.774  0.00  0.00    -0.009 C 
ATOM     10  C   UNL     1      -2.890   5.274  24.741  0.00  0.00    +0.003 C 
ATOM     11  C   UNL     1      -1.946   3.139  25.711  0.00  0.00    +0.003 C 
ATOM     13  C   UNL     1      -1.528   5.944  24.897  0.00  0.00    +0.000 C 
ATOM     14  C   UNL     1      -0.585   3.814  25.867  0.00  0.00    +0.000 C 
ATOM     15  C   UNL     1      -0.390   4.930  24.844  0.00  0.00    +0.000 C 
ENDBRANCH  12   9
ENDBRANCH  16  12
ENDBRANCH   5  16
TORSDOF 6
ENDMDL
MODEL 10
REMARK VINA RESULT:      -0.4      2.660      6.602
REMARK  Name = 11912130
REMARK  6 active torsions:
REMARK  status: ('A' for Active; 'I' for Inactive)
REMARK    1  A    between atoms: N_5  and  C_16
REMARK    2  A    between atoms: C_9  and  C_12
REMARK    3  A    between atoms: C_12  and  C_16
REMARK    4  A    between atoms: C_16  and  C_20
REMARK    5  A    between atoms: C_17  and  C_19
REMARK    6  A    between atoms: C_23  and  C_24
REMARK                            x       y       z     vdW  Elec       q    Type
REMARK                         _______ _______ _______ _____ _____    ______ ____
ROOT
ATOM      2  O   UNL     1      -4.382   3.506  22.895  0.00  0.00    -0.274 OA
ATOM      5  N   UNL     1      -3.885   2.429  24.899  0.00  0.00    -0.302 N 
ATOM     19  C   UNL     1      -3.589   3.192  23.778  0.00  0.00    +0.235 C 
ATOM     28  H   UNL     1      -3.183   2.329  25.625  0.00  0.00    +0.150 HD
ENDROOT
BRANCH  19  17
ATOM      4  O   UNL     1      -0.982   1.851  21.952  0.00  0.00    -0.269 OA
ATOM      6  N   UNL     1      -1.357   2.476  24.154  0.00  0.00    -0.283 N 
ATOM      7  N   UNL     1      -1.953   4.545  26.066  0.00  0.00    -0.312 NA
ATOM     17  C   UNL     1      -2.156   3.640  23.754  0.00  0.00    +0.176 C 
ATOM     18  C   UNL     1      -1.924   4.866  24.638  0.00  0.00    +0.113 C 
ATOM     21  C   UNL     1      -1.241   2.235  25.601  0.00  0.00    +0.124 C 
ATOM     22  C   UNL     1      -0.962   3.518  26.376  0.00  0.00    +0.100 C 
ATOM     23  C   UNL     1      -0.862   1.609  23.155  0.00  0.00    +0.254 C 
ATOM     29  H   UNL     1      -2.882   4.200  26.311  0.00  0.00    +0.122 HD
BRANCH  23  24
ATOM      1  S   UNL     1       1.376   0.041  22.998  0.00  0.00    -0.092 S 
ATOM     24  C   UNL     1      -0.191   0.390  23.594  0.00  0.00    +0.074 A 
ATOM     25  C   UNL     1      -0.643  -0.582  24.460  0.00  0.00    +0.021 A 
ATOM     26  C   UNL     1       0.311  -1.625  24.638  0.00  0.00    +0.008 A 
ATOM     27  C   UNL     1       1.454  -1.413  23.900  0.00  0.00    +0.046 A 
ENDBRANCH  23  24
ENDBRANCH  19  17
BRANCH   5  16
ATOM     16  C   UNL     1      -5.196   1.896  25.169  0.00  0.00    +0.159 C 
BRANCH  16  20
ATOM      3  O   UNL     1      -5.962   4.133  25.729  0.00  0.00    -0.274 OA
ATOM      8  N   UNL     1      -6.707   2.369  26.999  0.00  0.00    -0.328 N 
ATOM     20  C   UNL     1      -5.986   2.927  25.964  0.00  0.00    +0.231 C 
ATOM     30  H   UNL     1      -7.270   2.950  27.611  0.00  0.00    +0.145 HD
ATOM     31  H   UNL     1      -6.702   1.374  27.194  0.00  0.00    +0.145 HD
ENDBRANCH  16  20
BRANCH  16  12
ATOM     12  C   UNL     1      -5.136   0.531  25.859  0.00  0.00    +0.035 C 
BRANCH  12   9
ATOM      9  C   UNL     1      -4.156  -0.449  25.219  0.00  0.00    -0.009 C 
ATOM     10  C   UNL     1      -4.790  -1.128  23.996  0.00  0.00    +0.003 C 
ATOM     11  C   UNL     1      -3.687  -1.494  26.241  0.00  0.00    +0.003 C 
ATOM     13  C   UNL     1      -3.849  -2.154  23.370  0.00  0.00    +0.000 C 
ATOM     14  C   UNL     1      -2.747  -2.519  25.610  0.00  0.00    +0.000 C 
ATOM     15  C   UNL     1      -3.378  -3.185  24.391  0.00  0.00    +0.000 C 
ENDBRANCH  12   9
ENDBRANCH  16  12
ENDBRANCH   5  16
TORSDOF 6
ENDMDL
