MODEL 1
REMARK VINA RESULT:      -1.1      0.000      0.000
REMARK  Name = 56775047
REMARK  6 active torsions:
REMARK  status: ('A' for Active; 'I' for Inactive)
REMARK    1  A    between atoms: O_4  and  C_28
REMARK    2  A    between atoms: N_6  and  C_12
REMARK    3  A    between atoms: N_7  and  C_15
REMARK    4  A    between atoms: C_12  and  C_16
REMARK    5  A    between atoms: C_15  and  C_17
REMARK    6  A    between atoms: C_24  and  C_28
REMARK                            x       y       z     vdW  Elec       q    Type
REMARK                         _______ _______ _______ _____ _____    ______ ____
ROOT
ATOM      2  O   UNL     1      -4.319   4.039  24.987  0.00  0.00    -0.364 OA
ATOM      3  O   UNL     1      -6.393   1.960  26.932  0.00  0.00    -0.273 OA
ATOM      6  N   UNL     1      -2.601   2.369  22.725  0.00  0.00    -0.294 NA
ATOM      7  N   UNL     1      -5.452   1.532  24.847  0.00  0.00    -0.288 N 
ATOM      8  C   UNL     1      -4.656   2.012  23.721  0.00  0.00    +0.120 C 
ATOM      9  C   UNL     1      -4.464   3.524  23.666  0.00  0.00    +0.154 C 
ATOM     10  C   UNL     1      -3.215   1.508  23.735  0.00  0.00    +0.110 C 
ATOM     11  C   UNL     1      -3.130   3.722  22.938  0.00  0.00    +0.118 C 
ATOM     13  C   UNL     1      -5.804   2.344  25.922  0.00  0.00    +0.242 C 
ATOM     14  C   UNL     1      -5.483   3.813  25.746  0.00  0.00    +0.256 C 
ENDROOT
BRANCH   6  12
ATOM     12  C   UNL     1      -1.148   2.318  22.751  0.00  0.00    +0.119 C 
BRANCH  12  16
ATOM     16  C   UNL     1      -0.609   2.382  24.156  0.00  0.00    -0.033 A 
ATOM     18  C   UNL     1      -0.417   1.207  24.882  0.00  0.00    +0.006 A 
ATOM     19  C   UNL     1      -0.303   3.616  24.730  0.00  0.00    +0.006 A 
ATOM     22  C   UNL     1       0.082   1.265  26.184  0.00  0.00    +0.015 A 
ATOM     23  C   UNL     1       0.196   3.673  26.032  0.00  0.00    +0.015 A 
ATOM     24  C   UNL     1       0.388   2.499  26.758  0.00  0.00    +0.059 A 
BRANCH  24  28
ATOM      5  O   UNL     1       0.231   2.490  29.145  0.00  0.00    -0.245 OA
ATOM     28  C   UNL     1       0.909   2.561  28.114  0.00  0.00    +0.337 C 
BRANCH  28   4
ATOM      4  O   UNL     1       2.262   2.707  28.147  0.00  0.00    -0.477 OA
ATOM     29  H   UNL     1       2.711   1.888  28.445  0.00  0.00    +0.295 HD
ENDBRANCH  28   4
ENDBRANCH  24  28
ENDBRANCH  12  16
ENDBRANCH   6  12
BRANCH   7  15
ATOM     15  C   UNL     1      -5.795   0.115  24.860  0.00  0.00    +0.143 C 
BRANCH  15  17
ATOM      1  F   UNL     1      -1.209  -3.155  24.973  0.00  0.00    -0.205 F 
ATOM     17  C   UNL     1      -4.570  -0.758  24.890  0.00  0.00    -0.030 A 
ATOM     20  C   UNL     1      -4.371  -1.716  23.894  0.00  0.00    +0.008 A 
ATOM     21  C   UNL     1      -3.633  -0.611  25.913  0.00  0.00    +0.008 A 
ATOM     25  C   UNL     1      -3.237  -2.526  23.923  0.00  0.00    +0.038 A 
ATOM     26  C   UNL     1      -2.497  -1.421  25.941  0.00  0.00    +0.038 A 
ATOM     27  C   UNL     1      -2.300  -2.378  24.946  0.00  0.00    +0.123 A 
ENDBRANCH  15  17
ENDBRANCH   7  15
TORSDOF 6
ENDMDL
MODEL 2
REMARK VINA RESULT:      -1.0      2.535      3.175
REMARK  Name = 56775047
REMARK  6 active torsions:
REMARK  status: ('A' for Active; 'I' for Inactive)
REMARK    1  A    between atoms: O_4  and  C_28
REMARK    2  A    between atoms: N_6  and  C_12
REMARK    3  A    between atoms: N_7  and  C_15
REMARK    4  A    between atoms: C_12  and  C_16
REMARK    5  A    between atoms: C_15  and  C_17
REMARK    6  A    between atoms: C_24  and  C_28
REMARK                            x       y       z     vdW  Elec       q    Type
REMARK                         _______ _______ _______ _____ _____    ______ ____
ROOT
ATOM      2  O   UNL     1      -2.820   4.633  26.518  0.00  0.00    -0.364 OA
ATOM      3  O   UNL     1      -5.893   2.930  26.770  0.00  0.00    -0.273 OA
ATOM      6  N   UNL     1      -1.000   3.608  23.969  0.00  0.00    -0.294 NA
ATOM      7  N   UNL     1      -4.493   3.134  24.923  0.00  0.00    -0.288 N 
ATOM      8  C   UNL     1      -3.280   3.700  24.340  0.00  0.00    +0.120 C 
ATOM      9  C   UNL     1      -2.672   4.862  25.119  0.00  0.00    +0.154 C 
ATOM     10  C   UNL     1      -2.116   2.714  24.278  0.00  0.00    +0.110 C 
ATOM     11  C   UNL     1      -1.176   4.811  24.792  0.00  0.00    +0.118 C 
ATOM     13  C   UNL     1      -4.931   3.451  26.206  0.00  0.00    +0.242 C 
ATOM     14  C   UNL     1      -4.180   4.580  26.878  0.00  0.00    +0.256 C 
ENDROOT
BRANCH   6  12
ATOM     12  C   UNL     1       0.295   2.975  24.159  0.00  0.00    +0.119 C 
BRANCH  12  16
ATOM     16  C   UNL     1       0.171   1.487  24.347  0.00  0.00    -0.033 A 
ATOM     18  C   UNL     1       0.739   0.617  23.417  0.00  0.00    +0.006 A 
ATOM     19  C   UNL     1      -0.512   0.979  25.453  0.00  0.00    +0.006 A 
ATOM     22  C   UNL     1       0.624  -0.763  23.591  0.00  0.00    +0.015 A 
ATOM     23  C   UNL     1      -0.626  -0.401  25.626  0.00  0.00    +0.015 A 
ATOM     24  C   UNL     1      -0.059  -1.270  24.696  0.00  0.00    +0.059 A 
BRANCH  24  28
ATOM      5  O   UNL     1       0.424  -3.375  25.728  0.00  0.00    -0.245 OA
ATOM     28  C   UNL     1      -0.179  -2.709  24.879  0.00  0.00    +0.337 C 
BRANCH  28   4
ATOM      4  O   UNL     1      -1.048  -3.276  23.999  0.00  0.00    -0.477 OA
ATOM     29  H   UNL     1      -1.446  -2.611  23.399  0.00  0.00    +0.295 HD
ENDBRANCH  28   4
ENDBRANCH  24  28
ENDBRANCH  12  16
ENDBRANCH   6  12
BRANCH   7  15
ATOM     15  C   UNL     1      -5.198   2.129  24.138  0.00  0.00    +0.143 C 
BRANCH  15  17
ATOM      1  F   UNL     1      -3.380  -3.081  25.278  0.00  0.00    -0.205 F 
ATOM     17  C   UNL     1      -4.712   0.737  24.443  0.00  0.00    -0.030 A 
ATOM     20  C   UNL     1      -4.475  -0.162  23.402  0.00  0.00    +0.008 A 
ATOM     21  C   UNL     1      -4.499   0.346  25.765  0.00  0.00    +0.008 A 
ATOM     25  C   UNL     1      -4.026  -1.452  23.685  0.00  0.00    +0.038 A 
ATOM     26  C   UNL     1      -4.049  -0.944  26.047  0.00  0.00    +0.038 A 
ATOM     27  C   UNL     1      -3.813  -1.842  25.007  0.00  0.00    +0.123 A 
ENDBRANCH  15  17
ENDBRANCH   7  15
TORSDOF 6
ENDMDL
MODEL 3
REMARK VINA RESULT:      -1.0      4.217      5.522
REMARK  Name = 56775047
REMARK  6 active torsions:
REMARK  status: ('A' for Active; 'I' for Inactive)
REMARK    1  A    between atoms: O_4  and  C_28
REMARK    2  A    between atoms: N_6  and  C_12
REMARK    3  A    between atoms: N_7  and  C_15
REMARK    4  A    between atoms: C_12  and  C_16
REMARK    5  A    between atoms: C_15  and  C_17
REMARK    6  A    between atoms: C_24  and  C_28
REMARK                            x       y       z     vdW  Elec       q    Type
REMARK                         _______ _______ _______ _____ _____    ______ ____
ROOT
ATOM      2  O   UNL     1      -1.862  -2.341  24.263  0.00  0.00    -0.364 OA
ATOM      3  O   UNL     1      -5.311  -1.623  24.256  0.00  0.00    -0.273 OA
ATOM      6  N   UNL     1      -0.005   0.321  23.694  0.00  0.00    -0.294 NA
ATOM      7  N   UNL     1      -3.523  -0.162  24.543  0.00  0.00    -0.288 N 
ATOM      8  C   UNL     1      -2.081   0.028  24.667  0.00  0.00    +0.120 C 
ATOM      9  C   UNL     1      -1.287  -1.240  24.963  0.00  0.00    +0.154 C 
ATOM     10  C   UNL     1      -1.420   0.528  23.385  0.00  0.00    +0.110 C 
ATOM     11  C   UNL     1       0.100  -0.980  24.366  0.00  0.00    +0.118 C 
ATOM     13  C   UNL     1      -4.113  -1.420  24.453  0.00  0.00    +0.242 C 
ATOM     14  C   UNL     1      -3.179  -2.584  24.701  0.00  0.00    +0.256 C 
ENDROOT
BRANCH   6  12
ATOM     12  C   UNL     1       0.847   0.423  22.520  0.00  0.00    +0.119 C 
BRANCH  12  16
ATOM     16  C   UNL     1       2.292   0.165  22.852  0.00  0.00    -0.033 A 
ATOM     18  C   UNL     1       2.685  -1.086  23.329  0.00  0.00    +0.006 A 
ATOM     19  C   UNL     1       3.238   1.176  22.682  0.00  0.00    +0.006 A 
ATOM     22  C   UNL     1       4.025  -1.325  23.636  0.00  0.00    +0.015 A 
ATOM     23  C   UNL     1       4.577   0.936  22.990  0.00  0.00    +0.015 A 
ATOM     24  C   UNL     1       4.970  -0.314  23.467  0.00  0.00    +0.059 A 
BRANCH  24  28
ATOM      5  O   UNL     1       7.327  -0.307  23.052  0.00  0.00    -0.245 OA
ATOM     28  C   UNL     1       6.367  -0.563  23.787  0.00  0.00    +0.337 C 
BRANCH  28   4
ATOM      4  O   UNL     1       6.529  -1.125  25.016  0.00  0.00    -0.477 OA
ATOM     29  H   UNL     1       7.090  -0.572  25.599  0.00  0.00    +0.295 HD
ENDBRANCH  28   4
ENDBRANCH  24  28
ENDBRANCH  12  16
ENDBRANCH   6  12
BRANCH   7  15
ATOM     15  C   UNL     1      -4.341   1.039  24.418  0.00  0.00    +0.143 C 
BRANCH  15  17
ATOM      1  F   UNL     1      -1.351   5.720  25.358  0.00  0.00    -0.205 F 
ATOM     17  C   UNL     1      -3.542   2.290  24.670  0.00  0.00    -0.030 A 
ATOM     20  C   UNL     1      -3.653   3.374  23.798  0.00  0.00    +0.008 A 
ATOM     21  C   UNL     1      -2.692   2.365  25.773  0.00  0.00    +0.008 A 
ATOM     25  C   UNL     1      -2.912   4.532  24.031  0.00  0.00    +0.038 A 
ATOM     26  C   UNL     1      -1.951   3.524  26.005  0.00  0.00    +0.038 A 
ATOM     27  C   UNL     1      -2.062   4.607  25.134  0.00  0.00    +0.123 A 
ENDBRANCH  15  17
ENDBRANCH   7  15
TORSDOF 6
ENDMDL
MODEL 4
REMARK VINA RESULT:      -0.9      2.584      5.455
REMARK  Name = 56775047
REMARK  6 active torsions:
REMARK  status: ('A' for Active; 'I' for Inactive)
REMARK    1  A    between atoms: O_4  and  C_28
REMARK    2  A    between atoms: N_6  and  C_12
REMARK    3  A    between atoms: N_7  and  C_15
REMARK    4  A    between atoms: C_12  and  C_16
REMARK    5  A    between atoms: C_15  and  C_17
REMARK    6  A    between atoms: C_24  and  C_28
REMARK                            x       y       z     vdW  Elec       q    Type
REMARK                         _______ _______ _______ _____ _____    ______ ____
ROOT
ATOM      2  O   UNL     1       0.803   1.930  23.045  0.00  0.00    -0.364 OA
ATOM      3  O   UNL     1       0.291  -1.556  23.083  0.00  0.00    -0.273 OA
ATOM      6  N   UNL     1      -0.721   3.469  25.529  0.00  0.00    -0.294 NA
ATOM      7  N   UNL     1       0.043  -0.032  24.824  0.00  0.00    -0.288 N 
ATOM      8  C   UNL     1       0.161   1.344  25.297  0.00  0.00    +0.120 C 
ATOM      9  C   UNL     1       1.008   2.258  24.417  0.00  0.00    +0.154 C 
ATOM     10  C   UNL     1      -1.170   2.090  25.342  0.00  0.00    +0.110 C 
ATOM     11  C   UNL     1       0.441   3.662  24.652  0.00  0.00    +0.118 C 
ATOM     13  C   UNL     1       0.455  -0.431  23.555  0.00  0.00    +0.242 C 
ATOM     14  C   UNL     1       1.223   0.613  22.774  0.00  0.00    +0.256 C 
ENDROOT
BRANCH   6  12
ATOM     12  C   UNL     1      -1.776   4.441  25.294  0.00  0.00    +0.119 C 
BRANCH  12  16
ATOM     16  C   UNL     1      -3.134   3.794  25.247  0.00  0.00    -0.033 A 
ATOM     18  C   UNL     1      -3.558   3.147  24.086  0.00  0.00    +0.006 A 
ATOM     19  C   UNL     1      -3.969   3.842  26.363  0.00  0.00    +0.006 A 
ATOM     22  C   UNL     1      -4.817   2.547  24.042  0.00  0.00    +0.015 A 
ATOM     23  C   UNL     1      -5.228   3.242  26.318  0.00  0.00    +0.015 A 
ATOM     24  C   UNL     1      -5.651   2.595  25.158  0.00  0.00    +0.059 A 
BRANCH  24  28
ATOM      5  O   UNL     1      -7.645   1.808  24.095  0.00  0.00    -0.245 OA
ATOM     28  C   UNL     1      -6.963   1.969  25.113  0.00  0.00    +0.337 C 
BRANCH  28   4
ATOM      4  O   UNL     1      -7.388   1.560  26.340  0.00  0.00    -0.477 OA
ATOM     29  H   UNL     1      -8.350   1.371  26.349  0.00  0.00    +0.295 HD
ENDBRANCH  28   4
ENDBRANCH  24  28
ENDBRANCH  12  16
ENDBRANCH   6  12
BRANCH   7  15
ATOM     15  C   UNL     1      -0.623  -0.981  25.707  0.00  0.00    +0.143 C 
BRANCH  15  17
ATOM      1  F   UNL     1      -5.515  -2.768  23.558  0.00  0.00    -0.205 F 
ATOM     17  C   UNL     1      -1.930  -1.458  25.133  0.00  0.00    -0.030 A 
ATOM     20  C   UNL     1      -2.112  -2.812  24.845  0.00  0.00    +0.008 A 
ATOM     21  C   UNL     1      -2.959  -0.548  24.889  0.00  0.00    +0.008 A 
ATOM     25  C   UNL     1      -3.323  -3.254  24.313  0.00  0.00    +0.038 A 
ATOM     26  C   UNL     1      -4.170  -0.992  24.357  0.00  0.00    +0.038 A 
ATOM     27  C   UNL     1      -4.351  -2.344  24.069  0.00  0.00    +0.123 A 
ENDBRANCH  15  17
ENDBRANCH   7  15
TORSDOF 6
ENDMDL
MODEL 5
REMARK VINA RESULT:      -0.7      2.734      5.257
REMARK  Name = 56775047
REMARK  6 active torsions:
REMARK  status: ('A' for Active; 'I' for Inactive)
REMARK    1  A    between atoms: O_4  and  C_28
REMARK    2  A    between atoms: N_6  and  C_12
REMARK    3  A    between atoms: N_7  and  C_15
REMARK    4  A    between atoms: C_12  and  C_16
REMARK    5  A    between atoms: C_15  and  C_17
REMARK    6  A    between atoms: C_24  and  C_28
REMARK                            x       y       z     vdW  Elec       q    Type
REMARK                         _______ _______ _______ _____ _____    ______ ____
ROOT
ATOM      2  O   UNL     1      -3.660   5.226  24.351  0.00  0.00    -0.364 OA
ATOM      3  O   UNL     1      -0.141   5.362  24.249  0.00  0.00    -0.273 OA
ATOM      6  N   UNL     1      -4.788   2.543  25.896  0.00  0.00    -0.294 NA
ATOM      7  N   UNL     1      -1.507   4.131  25.675  0.00  0.00    -0.288 N 
ATOM      8  C   UNL     1      -2.856   3.794  26.119  0.00  0.00    +0.120 C 
ATOM      9  C   UNL     1      -3.944   4.763  25.669  0.00  0.00    +0.154 C 
ATOM     10  C   UNL     1      -3.365   2.464  25.567  0.00  0.00    +0.110 C 
ATOM     11  C   UNL     1      -5.219   3.916  25.601  0.00  0.00    +0.118 C 
ATOM     13  C   UNL     1      -1.251   5.109  24.718  0.00  0.00    +0.242 C 
ATOM     14  C   UNL     1      -2.449   5.944  24.320  0.00  0.00    +0.256 C 
ENDROOT
BRANCH   6  12
ATOM     12  C   UNL     1      -5.581   1.539  25.206  0.00  0.00    +0.119 C 
BRANCH  12  16
ATOM     16  C   UNL     1      -4.789   0.288  24.934  0.00  0.00    -0.033 A 
ATOM     18  C   UNL     1      -4.575  -0.129  23.620  0.00  0.00    +0.006 A 
ATOM     19  C   UNL     1      -4.270  -0.453  25.995  0.00  0.00    +0.006 A 
ATOM     22  C   UNL     1      -3.841  -1.288  23.367  0.00  0.00    +0.015 A 
ATOM     23  C   UNL     1      -3.535  -1.612  25.741  0.00  0.00    +0.015 A 
ATOM     24  C   UNL     1      -3.321  -2.029  24.428  0.00  0.00    +0.059 A 
BRANCH  24  28
ATOM      5  O   UNL     1      -2.891  -4.144  23.397  0.00  0.00    -0.245 OA
ATOM     28  C   UNL     1      -2.555  -3.237  24.165  0.00  0.00    +0.337 C 
BRANCH  28   4
ATOM      4  O   UNL     1      -1.390  -3.279  24.868  0.00  0.00    -0.477 OA
ATOM     29  H   UNL     1      -1.147  -4.195  25.117  0.00  0.00    +0.295 HD
ENDBRANCH  28   4
ENDBRANCH  24  28
ENDBRANCH  12  16
ENDBRANCH   6  12
BRANCH   7  15
ATOM     15  C   UNL     1      -0.414   3.327  26.208  0.00  0.00    +0.143 C 
BRANCH  15  17
ATOM      1  F   UNL     1       0.418  -1.348  23.176  0.00  0.00    -0.205 F 
ATOM     17  C   UNL     1      -0.192   2.077  25.398  0.00  0.00    -0.030 A 
ATOM     20  C   UNL     1       0.546   2.136  24.215  0.00  0.00    +0.008 A 
ATOM     21  C   UNL     1      -0.722   0.862  25.830  0.00  0.00    +0.008 A 
ATOM     25  C   UNL     1       0.751   0.979  23.464  0.00  0.00    +0.038 A 
ATOM     26  C   UNL     1      -0.516  -0.296  25.079  0.00  0.00    +0.038 A 
ATOM     27  C   UNL     1       0.220  -0.236  23.896  0.00  0.00    +0.123 A 
ENDBRANCH  15  17
ENDBRANCH   7  15
TORSDOF 6
ENDMDL
MODEL 6
REMARK VINA RESULT:      -0.1      3.466      6.638
REMARK  Name = 56775047
REMARK  6 active torsions:
REMARK  status: ('A' for Active; 'I' for Inactive)
REMARK    1  A    between atoms: O_4  and  C_28
REMARK    2  A    between atoms: N_6  and  C_12
REMARK    3  A    between atoms: N_7  and  C_15
REMARK    4  A    between atoms: C_12  and  C_16
REMARK    5  A    between atoms: C_15  and  C_17
REMARK    6  A    between atoms: C_24  and  C_28
REMARK                            x       y       z     vdW  Elec       q    Type
REMARK                         _______ _______ _______ _____ _____    ______ ____
ROOT
ATOM      2  O   UNL     1      -1.043   1.376  26.070  0.00  0.00    -0.364 OA
ATOM      3  O   UNL     1       1.704   2.367  24.099  0.00  0.00    -0.273 OA
ATOM      6  N   UNL     1      -2.765  -1.082  24.713  0.00  0.00    -0.294 NA
ATOM      7  N   UNL     1       0.518   0.366  24.039  0.00  0.00    -0.288 N 
ATOM      8  C   UNL     1      -0.539  -0.470  24.600  0.00  0.00    +0.120 C 
ATOM      9  C   UNL     1      -1.031  -0.046  25.980  0.00  0.00    +0.154 C 
ATOM     10  C   UNL     1      -1.828  -0.452  23.783  0.00  0.00    +0.110 C 
ATOM     11  C   UNL     1      -2.483  -0.531  26.044  0.00  0.00    +0.118 C 
ATOM     13  C   UNL     1       0.885   1.590  24.590  0.00  0.00    +0.242 C 
ATOM     14  C   UNL     1       0.257   1.901  25.932  0.00  0.00    +0.256 C 
ENDROOT
BRANCH   6  12
ATOM     12  C   UNL     1      -4.153  -0.915  24.313  0.00  0.00    +0.119 C 
BRANCH  12  16
ATOM     16  C   UNL     1      -4.644   0.486  24.565  0.00  0.00    -0.033 A 
ATOM     18  C   UNL     1      -5.739   0.700  25.402  0.00  0.00    +0.006 A 
ATOM     19  C   UNL     1      -4.005   1.568  23.961  0.00  0.00    +0.006 A 
ATOM     22  C   UNL     1      -6.195   1.997  25.636  0.00  0.00    +0.015 A 
ATOM     23  C   UNL     1      -4.461   2.866  24.196  0.00  0.00    +0.015 A 
ATOM     24  C   UNL     1      -5.555   3.080  25.033  0.00  0.00    +0.059 A 
BRANCH  24  28
ATOM      5  O   UNL     1      -5.593   5.453  24.734  0.00  0.00    -0.245 OA
ATOM     28  C   UNL     1      -6.029   4.433  25.277  0.00  0.00    +0.337 C 
BRANCH  28   4
ATOM      4  O   UNL     1      -7.037   4.475  26.192  0.00  0.00    -0.477 OA
ATOM     29  H   UNL     1      -7.340   3.578  26.443  0.00  0.00    +0.295 HD
ENDBRANCH  28   4
ENDBRANCH  24  28
ENDBRANCH  12  16
ENDBRANCH   6  12
BRANCH   7  15
ATOM     15  C   UNL     1       1.130  -0.087  22.795  0.00  0.00    +0.143 C 
BRANCH  15  17
ATOM      1  F   UNL     1       6.743  -0.360  23.200  0.00  0.00    -0.205 F 
ATOM     17  C   UNL     1       2.630  -0.160  22.903  0.00  0.00    -0.030 A 
ATOM     20  C   UNL     1       3.228  -1.202  23.614  0.00  0.00    +0.008 A 
ATOM     21  C   UNL     1       3.422   0.813  22.293  0.00  0.00    +0.008 A 
ATOM     25  C   UNL     1       4.617  -1.269  23.714  0.00  0.00    +0.038 A 
ATOM     26  C   UNL     1       4.812   0.745  22.393  0.00  0.00    +0.038 A 
ATOM     27  C   UNL     1       5.409  -0.296  23.104  0.00  0.00    +0.123 A 
ENDBRANCH  15  17
ENDBRANCH   7  15
TORSDOF 6
ENDMDL
MODEL 7
REMARK VINA RESULT:       0.1      2.443      2.936
REMARK  Name = 56775047
REMARK  6 active torsions:
REMARK  status: ('A' for Active; 'I' for Inactive)
REMARK    1  A    between atoms: O_4  and  C_28
REMARK    2  A    between atoms: N_6  and  C_12
REMARK    3  A    between atoms: N_7  and  C_15
REMARK    4  A    between atoms: C_12  and  C_16
REMARK    5  A    between atoms: C_15  and  C_17
REMARK    6  A    between atoms: C_24  and  C_28
REMARK                            x       y       z     vdW  Elec       q    Type
REMARK                         _______ _______ _______ _____ _____    ______ ____
ROOT
ATOM      2  O   UNL     1      -4.868   3.874  26.394  0.00  0.00    -0.364 OA
ATOM      3  O   UNL     1      -7.150   1.194  26.534  0.00  0.00    -0.273 OA
ATOM      6  N   UNL     1      -2.186   3.173  24.612  0.00  0.00    -0.294 NA
ATOM      7  N   UNL     1      -5.446   1.572  24.996  0.00  0.00    -0.288 N 
ATOM      8  C   UNL     1      -4.377   2.443  24.514  0.00  0.00    +0.120 C 
ATOM      9  C   UNL     1      -4.426   3.874  25.039  0.00  0.00    +0.154 C 
ATOM     10  C   UNL     1      -2.984   1.992  24.944  0.00  0.00    +0.110 C 
ATOM     11  C   UNL     1      -2.969   4.346  25.023  0.00  0.00    +0.118 C 
ATOM     13  C   UNL     1      -6.299   1.930  26.036  0.00  0.00    +0.242 C 
ATOM     14  C   UNL     1      -6.178   3.367  26.497  0.00  0.00    +0.256 C 
ENDROOT
BRANCH   6  12
ATOM     12  C   UNL     1      -0.859   3.140  25.206  0.00  0.00    +0.119 C 
BRANCH  12  16
ATOM     16  C   UNL     1       0.067   2.218  24.460  0.00  0.00    -0.033 A 
ATOM     18  C   UNL     1      -0.293   0.886  24.253  0.00  0.00    +0.006 A 
ATOM     19  C   UNL     1       1.284   2.696  23.975  0.00  0.00    +0.006 A 
ATOM     22  C   UNL     1       0.565   0.031  23.561  0.00  0.00    +0.015 A 
ATOM     23  C   UNL     1       2.142   1.840  23.283  0.00  0.00    +0.015 A 
ATOM     24  C   UNL     1       1.783   0.509  23.076  0.00  0.00    +0.059 A 
BRANCH  24  28
ATOM      5  O   UNL     1       2.728  -0.503  21.126  0.00  0.00    -0.245 OA
ATOM     28  C   UNL     1       2.677  -0.382  22.354  0.00  0.00    +0.337 C 
BRANCH  28   4
ATOM      4  O   UNL     1       3.486  -1.095  23.185  0.00  0.00    -0.477 OA
ATOM     29  H   UNL     1       4.087  -0.515  23.697  0.00  0.00    +0.295 HD
ENDBRANCH  28   4
ENDBRANCH  24  28
ENDBRANCH  12  16
ENDBRANCH   6  12
BRANCH   7  15
ATOM     15  C   UNL     1      -5.535   0.243  24.403  0.00  0.00    +0.143 C 
BRANCH  15  17
ATOM      1  F   UNL     1      -0.921  -2.824  25.424  0.00  0.00    -0.205 F 
ATOM     17  C   UNL     1      -4.302  -0.576  24.676  0.00  0.00    -0.030 A 
ATOM     20  C   UNL     1      -3.687  -1.278  23.638  0.00  0.00    +0.008 A 
ATOM     21  C   UNL     1      -3.774  -0.634  25.966  0.00  0.00    +0.008 A 
ATOM     25  C   UNL     1      -2.546  -2.038  23.891  0.00  0.00    +0.038 A 
ATOM     26  C   UNL     1      -2.632  -1.394  26.218  0.00  0.00    +0.038 A 
ATOM     27  C   UNL     1      -2.018  -2.096  25.181  0.00  0.00    +0.123 A 
ENDBRANCH  15  17
ENDBRANCH   7  15
TORSDOF 6
ENDMDL
MODEL 8
REMARK VINA RESULT:       0.5      2.984      4.857
REMARK  Name = 56775047
REMARK  6 active torsions:
REMARK  status: ('A' for Active; 'I' for Inactive)
REMARK    1  A    between atoms: O_4  and  C_28
REMARK    2  A    between atoms: N_6  and  C_12
REMARK    3  A    between atoms: N_7  and  C_15
REMARK    4  A    between atoms: C_12  and  C_16
REMARK    5  A    between atoms: C_15  and  C_17
REMARK    6  A    between atoms: C_24  and  C_28
REMARK                            x       y       z     vdW  Elec       q    Type
REMARK                         _______ _______ _______ _____ _____    ______ ____
ROOT
ATOM      2  O   UNL     1      -1.799  -3.012  23.648  0.00  0.00    -0.364 OA
ATOM      3  O   UNL     1      -5.291  -2.622  23.388  0.00  0.00    -0.273 OA
ATOM      6  N   UNL     1      -0.390  -0.677  25.498  0.00  0.00    -0.294 NA
ATOM      7  N   UNL     1      -3.845  -1.742  24.985  0.00  0.00    -0.288 N 
ATOM      8  C   UNL     1      -2.488  -1.647  25.515  0.00  0.00    +0.120 C 
ATOM      9  C   UNL     1      -1.525  -2.719  25.015  0.00  0.00    +0.154 C 
ATOM     10  C   UNL     1      -1.767  -0.361  25.120  0.00  0.00    +0.110 C 
ATOM     11  C   UNL     1      -0.142  -2.065  25.085  0.00  0.00    +0.118 C 
ATOM     13  C   UNL     1      -4.184  -2.579  23.925  0.00  0.00    +0.242 C 
ATOM     14  C   UNL     1      -3.096  -3.539  23.495  0.00  0.00    +0.256 C 
ENDROOT
BRANCH   6  12
ATOM     12  C   UNL     1       0.574   0.260  24.944  0.00  0.00    +0.119 C 
BRANCH  12  16
ATOM     16  C   UNL     1       0.057   1.674  24.964  0.00  0.00    -0.033 A 
ATOM     18  C   UNL     1      -0.588   2.164  26.100  0.00  0.00    +0.006 A 
ATOM     19  C   UNL     1       0.223   2.493  23.848  0.00  0.00    +0.006 A 
ATOM     22  C   UNL     1      -1.067   3.474  26.119  0.00  0.00    +0.015 A 
ATOM     23  C   UNL     1      -0.256   3.803  23.867  0.00  0.00    +0.015 A 
ATOM     24  C   UNL     1      -0.901   4.293  25.002  0.00  0.00    +0.059 A 
BRANCH  24  28
ATOM      5  O   UNL     1      -0.881   6.618  24.441  0.00  0.00    -0.245 OA
ATOM     28  C   UNL     1      -1.399   5.659  25.021  0.00  0.00    +0.337 C 
BRANCH  28   4
ATOM      4  O   UNL     1      -2.533   5.790  25.765  0.00  0.00    -0.477 OA
ATOM     29  H   UNL     1      -3.202   6.348  25.315  0.00  0.00    +0.295 HD
ENDBRANCH  28   4
ENDBRANCH  24  28
ENDBRANCH  12  16
ENDBRANCH   6  12
BRANCH   7  15
ATOM     15  C   UNL     1      -4.841  -0.839  25.550  0.00  0.00    +0.143 C 
BRANCH  15  17
ATOM      1  F   UNL     1      -4.172   4.440  23.700  0.00  0.00    -0.205 F 
ATOM     17  C   UNL     1      -4.663   0.572  25.056  0.00  0.00    -0.030 A 
ATOM     20  C   UNL     1      -3.815   0.831  23.978  0.00  0.00    +0.008 A 
ATOM     21  C   UNL     1      -5.345   1.619  25.674  0.00  0.00    +0.008 A 
ATOM     25  C   UNL     1      -3.649   2.137  23.521  0.00  0.00    +0.038 A 
ATOM     26  C   UNL     1      -5.179   2.927  25.216  0.00  0.00    +0.038 A 
ATOM     27  C   UNL     1      -4.331   3.185  24.140  0.00  0.00    +0.123 A 
ENDBRANCH  15  17
ENDBRANCH   7  15
TORSDOF 6
ENDMDL
MODEL 9
REMARK VINA RESULT:       0.6      3.920      5.370
REMARK  Name = 56775047
REMARK  6 active torsions:
REMARK  status: ('A' for Active; 'I' for Inactive)
REMARK    1  A    between atoms: O_4  and  C_28
REMARK    2  A    between atoms: N_6  and  C_12
REMARK    3  A    between atoms: N_7  and  C_15
REMARK    4  A    between atoms: C_12  and  C_16
REMARK    5  A    between atoms: C_15  and  C_17
REMARK    6  A    between atoms: C_24  and  C_28
REMARK                            x       y       z     vdW  Elec       q    Type
REMARK                         _______ _______ _______ _____ _____    ______ ____
ROOT
ATOM      2  O   UNL     1      -1.199  -2.124  24.526  0.00  0.00    -0.364 OA
ATOM      3  O   UNL     1      -4.534  -3.122  23.982  0.00  0.00    -0.273 OA
ATOM      6  N   UNL     1      -0.737   1.101  24.035  0.00  0.00    -0.294 NA
ATOM      7  N   UNL     1      -3.707  -0.990  24.414  0.00  0.00    -0.288 N 
ATOM      8  C   UNL     1      -2.560  -0.141  24.725  0.00  0.00    +0.120 C 
ATOM      9  C   UNL     1      -1.324  -0.885  25.219  0.00  0.00    +0.154 C 
ATOM     10  C   UNL     1      -2.016   0.616  23.517  0.00  0.00    +0.110 C 
ATOM     11  C   UNL     1      -0.144   0.002  24.807  0.00  0.00    +0.118 C 
ATOM     13  C   UNL     1      -3.618  -2.377  24.331  0.00  0.00    +0.242 C 
ATOM     14  C   UNL     1      -2.300  -2.962  24.791  0.00  0.00    +0.256 C 
ENDROOT
BRANCH   6  12
ATOM     12  C   UNL     1       0.142   1.598  22.989  0.00  0.00    +0.119 C 
BRANCH  12  16
ATOM     16  C   UNL     1       1.525   1.013  23.093  0.00  0.00    -0.033 A 
ATOM     18  C   UNL     1       2.635   1.856  23.149  0.00  0.00    +0.006 A 
ATOM     19  C   UNL     1       1.695  -0.370  23.134  0.00  0.00    +0.006 A 
ATOM     22  C   UNL     1       3.917   1.314  23.246  0.00  0.00    +0.015 A 
ATOM     23  C   UNL     1       2.978  -0.911  23.231  0.00  0.00    +0.015 A 
ATOM     24  C   UNL     1       4.088  -0.069  23.287  0.00  0.00    +0.059 A 
BRANCH  24  28
ATOM      5  O   UNL     1       6.404  -0.281  22.724  0.00  0.00    -0.245 OA
ATOM     28  C   UNL     1       5.424  -0.635  23.389  0.00  0.00    +0.337 C 
BRANCH  28   4
ATOM      4  O   UNL     1       5.502  -1.625  24.319  0.00  0.00    -0.477 OA
ATOM     29  H   UNL     1       5.784  -1.284  25.194  0.00  0.00    +0.295 HD
ENDBRANCH  28   4
ENDBRANCH  24  28
ENDBRANCH  12  16
ENDBRANCH   6  12
BRANCH   7  15
ATOM     15  C   UNL     1      -4.959  -0.318  24.089  0.00  0.00    +0.143 C 
BRANCH  15  17
ATOM      1  F   UNL     1      -5.045   4.988  25.982  0.00  0.00    -0.205 F 
ATOM     17  C   UNL     1      -4.982   1.100  24.595  0.00  0.00    -0.030 A 
ATOM     20  C   UNL     1      -5.675   1.411  25.765  0.00  0.00    +0.008 A 
ATOM     21  C   UNL     1      -4.310   2.102  23.894  0.00  0.00    +0.008 A 
ATOM     25  C   UNL     1      -5.697   2.725  26.233  0.00  0.00    +0.038 A 
ATOM     26  C   UNL     1      -4.332   3.415  24.363  0.00  0.00    +0.038 A 
ATOM     27  C   UNL     1      -5.025   3.726  25.532  0.00  0.00    +0.123 A 
ENDBRANCH  15  17
ENDBRANCH   7  15
TORSDOF 6
ENDMDL
MODEL 10
REMARK VINA RESULT:       1.9      2.764      5.621
REMARK  Name = 56775047
REMARK  6 active torsions:
REMARK  status: ('A' for Active; 'I' for Inactive)
REMARK    1  A    between atoms: O_4  and  C_28
REMARK    2  A    between atoms: N_6  and  C_12
REMARK    3  A    between atoms: N_7  and  C_15
REMARK    4  A    between atoms: C_12  and  C_16
REMARK    5  A    between atoms: C_15  and  C_17
REMARK    6  A    between atoms: C_24  and  C_28
REMARK                            x       y       z     vdW  Elec       q    Type
REMARK                         _______ _______ _______ _____ _____    ______ ____
ROOT
ATOM      2  O   UNL     1      -3.071  -2.888  25.580  0.00  0.00    -0.364 OA
ATOM      3  O   UNL     1       0.423  -2.503  25.825  0.00  0.00    -0.273 OA
ATOM      6  N   UNL     1      -4.478  -0.584  23.692  0.00  0.00    -0.294 NA
ATOM      7  N   UNL     1      -1.025  -1.647  24.216  0.00  0.00    -0.288 N 
ATOM      8  C   UNL     1      -2.382  -1.559  23.687  0.00  0.00    +0.120 C 
ATOM      9  C   UNL     1      -3.347  -2.620  24.208  0.00  0.00    +0.154 C 
ATOM     10  C   UNL     1      -3.100  -0.265  24.061  0.00  0.00    +0.110 C 
ATOM     11  C   UNL     1      -4.729  -1.963  24.129  0.00  0.00    +0.118 C 
ATOM     13  C   UNL     1      -0.685  -2.466  25.289  0.00  0.00    +0.242 C 
ATOM     14  C   UNL     1      -1.774  -3.416  25.738  0.00  0.00    +0.256 C 
ENDROOT
BRANCH   6  12
ATOM     12  C   UNL     1      -5.439   0.365  24.231  0.00  0.00    +0.119 C 
BRANCH  12  16
ATOM     16  C   UNL     1      -4.790   1.674  24.595  0.00  0.00    -0.033 A 
ATOM     18  C   UNL     1      -3.865   2.258  23.729  0.00  0.00    +0.006 A 
ATOM     19  C   UNL     1      -5.115   2.302  25.797  0.00  0.00    +0.006 A 
ATOM     22  C   UNL     1      -3.264   3.471  24.066  0.00  0.00    +0.015 A 
ATOM     23  C   UNL     1      -4.513   3.515  26.134  0.00  0.00    +0.015 A 
ATOM     24  C   UNL     1      -3.588   4.099  25.269  0.00  0.00    +0.059 A 
BRANCH  24  28
ATOM      5  O   UNL     1      -2.145   5.976  24.925  0.00  0.00    -0.245 OA
ATOM     28  C   UNL     1      -2.963   5.364  25.620  0.00  0.00    +0.337 C 
BRANCH  28   4
ATOM      4  O   UNL     1      -3.376   5.832  26.830  0.00  0.00    -0.477 OA
ATOM     29  H   UNL     1      -4.335   5.685  26.970  0.00  0.00    +0.295 HD
ENDBRANCH  28   4
ENDBRANCH  24  28
ENDBRANCH  12  16
ENDBRANCH   6  12
BRANCH   7  15
ATOM     15  C   UNL     1      -0.028  -0.758  23.633  0.00  0.00    +0.143 C 
BRANCH  15  17
ATOM      1  F   UNL     1      -0.178   4.373  25.957  0.00  0.00    -0.205 F 
ATOM     17  C   UNL     1      -0.068   0.613  24.254  0.00  0.00    -0.030 A 
ATOM     20  C   UNL     1       0.363   1.722  23.525  0.00  0.00    +0.008 A 
ATOM     21  C   UNL     1      -0.537   0.775  25.558  0.00  0.00    +0.008 A 
ATOM     25  C   UNL     1       0.327   2.991  24.100  0.00  0.00    +0.038 A 
ATOM     26  C   UNL     1      -0.574   2.045  26.133  0.00  0.00    +0.038 A 
ATOM     27  C   UNL     1      -0.142   3.153  25.404  0.00  0.00    +0.123 A 
ENDBRANCH  15  17
ENDBRANCH   7  15
TORSDOF 6
ENDMDL
