MODEL 1
REMARK VINA RESULT:      -2.3      0.000      0.000
REMARK  Name = 40780906
REMARK  13 active torsions:
REMARK  status: ('A' for Active; 'I' for Inactive)
REMARK    1  A    between atoms: O_4  and  C_24
REMARK    2  A    between atoms: N_6  and  C_13
REMARK    3  A    between atoms: N_7  and  C_14
REMARK    4  A    between atoms: N_10  and  C_33
REMARK    5  A    between atoms: N_10  and  C_34
REMARK    6  A    between atoms: N_10  and  C_35
REMARK    7  A    between atoms: C_17  and  C_18
REMARK    8  A    between atoms: C_18  and  C_19
REMARK    9  A    between atoms: C_19  and  C_21
REMARK   10  A    between atoms: C_19  and  C_22
REMARK   11  A    between atoms: C_19  and  C_23
REMARK   12  A    between atoms: C_21  and  C_24
REMARK   13  A    between atoms: C_25  and  C_28
REMARK                            x       y       z     vdW  Elec       q    Type
REMARK                         _______ _______ _______ _____ _____    ______ ____
ROOT
ATOM      1  O   UNL     1      13.955  -8.009  29.959  0.00  0.00    -0.370 OA
ATOM      2  O   UNL     1      16.247  -8.566  32.002  0.00  0.00    -0.370 OA
ATOM     11  C   UNL     1      14.868  -8.188  32.148  0.00  0.00    +0.171 C 
ATOM     12  C   UNL     1      14.539  -7.232  31.017  0.00  0.00    +0.171 C 
ATOM     13  C   UNL     1      13.968  -9.376  31.899  0.00  0.00    +0.130 C 
ATOM     14  C   UNL     1      15.883  -6.690  30.589  0.00  0.00    +0.130 C 
ATOM     15  C   UNL     1      13.839  -9.375  30.386  0.00  0.00    +0.185 C 
ATOM     16  C   UNL     1      16.821  -7.841  30.904  0.00  0.00    +0.185 C 
ENDROOT
BRANCH  14   7
ATOM      7  N   UNL     1      16.227  -5.532  31.385  0.00  0.00    -0.306 N 
ATOM      8  N   UNL     1      16.689  -4.255  29.502  0.00  0.00    -0.214 NA
ATOM      9  N   UNL     1      16.914  -3.340  31.719  0.00  0.00    -0.223 NA
ATOM     20  C   UNL     1      16.629  -4.324  30.845  0.00  0.00    +0.216 A 
ATOM     25  C   UNL     1      17.081  -3.062  29.009  0.00  0.00    +0.076 A 
ATOM     26  C   UNL     1      17.299  -2.174  31.159  0.00  0.00    +0.116 A 
ATOM     27  C   UNL     1      17.402  -1.975  29.797  0.00  0.00    +0.048 A 
ATOM     37  H   UNL     1      16.126  -5.573  32.393  0.00  0.00    +0.149 HD
BRANCH  25  28
ATOM     28  C   UNL     1      17.148  -2.985  27.570  0.00  0.00    +0.001 A 
ATOM     29  C   UNL     1      17.326  -4.146  26.816  0.00  0.00    +0.012 A 
ATOM     30  C   UNL     1      17.036  -1.750  26.931  0.00  0.00    +0.012 A 
ATOM     31  C   UNL     1      17.390  -4.071  25.425  0.00  0.00    +0.024 A 
ATOM     32  C   UNL     1      17.100  -1.675  25.540  0.00  0.00    +0.024 A 
ATOM     33  C   UNL     1      17.277  -2.835  24.786  0.00  0.00    +0.029 A 
BRANCH  33  10
ATOM     10  N   UNL     1      17.342  -2.759  23.380  0.00  0.00    -0.336 N 
ATOM     34  C   UNL     1      17.397  -3.968  22.581  0.00  0.00    +0.129 C 
ATOM     35  C   UNL     1      17.349  -1.472  22.714  0.00  0.00    +0.129 C 
ENDBRANCH  33  10
ENDBRANCH  25  28
ENDBRANCH  14   7
BRANCH  13   6
ATOM      3  O   UNL     1      11.450 -10.453  31.018  0.00  0.00    -0.276 OA
ATOM      6  N   UNL     1      12.684  -9.201  32.533  0.00  0.00    -0.308 N 
ATOM     17  C   UNL     1      11.521  -9.762  32.033  0.00  0.00    +0.214 C 
ATOM     36  H   UNL     1      12.649  -8.689  33.410  0.00  0.00    +0.149 HD
BRANCH  17  18
ATOM     18  C   UNL     1      10.294  -9.443  32.873  0.00  0.00    +0.102 C 
BRANCH  18  19
ATOM     19  C   UNL     1       9.038  -9.035  32.061  0.00  0.00    -0.017 C 
ATOM     22  C   UNL     1       9.450  -8.306  30.764  0.00  0.00    +0.012 C 
ATOM     23  C   UNL     1       8.299 -10.326  31.651  0.00  0.00    +0.012 C 
BRANCH  19  21
ATOM     21  C   UNL     1       8.088  -8.104  32.850  0.00  0.00    +0.127 C 
BRANCH  21  24
ATOM      5  O   UNL     1       5.882  -9.098  32.765  0.00  0.00    -0.251 OA
ATOM     24  C   UNL     1       6.634  -8.186  32.443  0.00  0.00    +0.305 C 
BRANCH  24   4
ATOM      4  O   UNL     1       6.243  -7.143  31.670  0.00  0.00    -0.481 OA
ATOM     38  H   UNL     1       6.095  -6.330  32.198  0.00  0.00    +0.295 HD
ENDBRANCH  24   4
ENDBRANCH  21  24
ENDBRANCH  19  21
ENDBRANCH  18  19
ENDBRANCH  17  18
ENDBRANCH  13   6
TORSDOF 9
ENDMDL
