MODEL 1
REMARK VINA RESULT:       2.2      0.000      0.000
REMARK  Name = 25338776
REMARK  5 active torsions:
REMARK  status: ('A' for Active; 'I' for Inactive)
REMARK    1  A    between atoms: N_5  and  C_15
REMARK    2  A    between atoms: N_6  and  C_10
REMARK    3  A    between atoms: N_9  and  C_19
REMARK    4  A    between atoms: C_11  and  C_14
REMARK    5  A    between atoms: C_17  and  C_18
REMARK                            x       y       z     vdW  Elec       q    Type
REMARK                         _______ _______ _______ _____ _____    ______ ____
ROOT
ATOM      5  N   UNL     1      -4.142  -1.603  23.993  0.00  0.00    -0.293 NA
ATOM     10  C   UNL     1      -2.390  -2.841  24.906  0.00  0.00    +0.090 C 
ATOM     11  C   UNL     1      -3.928  -0.989  25.318  0.00  0.00    +0.147 C 
ATOM     12  C   UNL     1      -2.676  -1.693  25.874  0.00  0.00    +0.052 C 
ATOM     13  C   UNL     1      -3.682  -2.990  24.115  0.00  0.00    +0.107 C 
ATOM     15  C   UNL     1      -5.526  -1.527  23.541  0.00  0.00    +0.105 C 
ENDROOT
BRANCH  10   6
ATOM      4  O   UNL     1      -0.215  -1.065  25.469  0.00  0.00    -0.252 OA
ATOM      6  N   UNL     1      -1.275  -2.540  24.038  0.00  0.00    -0.295 N 
ATOM      9  N   UNL     1       0.687  -1.563  23.360  0.00  0.00    -0.267 N 
ATOM     16  C   UNL     1      -0.249  -1.657  24.392  0.00  0.00    +0.304 C 
ATOM     30  H   UNL     1      -1.272  -2.932  23.102  0.00  0.00    +0.151 HD
ATOM     31  H   UNL     1       0.511  -2.121  22.529  0.00  0.00    +0.156 HD
BRANCH   9  19
ATOM      1  F   UNL     1       0.593   1.200  23.005  0.00  0.00    -0.203 F 
ATOM      2  F   UNL     1       5.310   1.493  23.219  0.00  0.00    -0.205 F 
ATOM     19  C   UNL     1       1.865  -0.780  23.324  0.00  0.00    +0.070 A 
ATOM     22  C   UNL     1       1.784   0.600  23.144  0.00  0.00    +0.147 A 
ATOM     23  C   UNL     1       3.110  -1.393  23.468  0.00  0.00    +0.029 A 
ATOM     26  C   UNL     1       2.948   1.369  23.109  0.00  0.00    +0.078 A 
ATOM     27  C   UNL     1       4.274  -0.625  23.432  0.00  0.00    +0.040 A 
ATOM     29  C   UNL     1       4.193   0.756  23.254  0.00  0.00    +0.126 A 
ENDBRANCH   9  19
ENDBRANCH  10   6
BRANCH  11  14
ATOM      3  O   UNL     1      -4.913   1.246  25.409  0.00  0.00    -0.336 OA
ATOM      7  N   UNL     1      -2.693   1.235  25.103  0.00  0.00    -0.190 NA
ATOM      8  N   UNL     1      -4.524   2.589  25.329  0.00  0.00    -0.056 NA
ATOM     14  C   UNL     1      -3.774   0.516  25.267  0.00  0.00    +0.245 A 
ATOM     17  C   UNL     1      -3.203   2.500  25.148  0.00  0.00    +0.202 A 
BRANCH  17  18
ATOM     18  C   UNL     1      -2.364   3.655  25.010  0.00  0.00    +0.022 A 
ATOM     20  C   UNL     1      -2.884   4.927  25.247  0.00  0.00    +0.012 A 
ATOM     21  C   UNL     1      -1.027   3.507  24.637  0.00  0.00    +0.012 A 
ATOM     24  C   UNL     1      -2.069   6.051  25.113  0.00  0.00    +0.001 A 
ATOM     25  C   UNL     1      -0.212   4.630  24.502  0.00  0.00    +0.001 A 
ATOM     28  C   UNL     1      -0.733   5.903  24.740  0.00  0.00    +0.000 A 
ENDBRANCH  17  18
ENDBRANCH  11  14
TORSDOF 4
ENDMDL
MODEL 2
REMARK VINA RESULT:       3.0      2.077      5.405
REMARK  Name = 25338776
REMARK  5 active torsions:
REMARK  status: ('A' for Active; 'I' for Inactive)
REMARK    1  A    between atoms: N_5  and  C_15
REMARK    2  A    between atoms: N_6  and  C_10
REMARK    3  A    between atoms: N_9  and  C_19
REMARK    4  A    between atoms: C_11  and  C_14
REMARK    5  A    between atoms: C_17  and  C_18
REMARK                            x       y       z     vdW  Elec       q    Type
REMARK                         _______ _______ _______ _____ _____    ______ ____
ROOT
ATOM      5  N   UNL     1      -3.242   4.239  26.417  0.00  0.00    -0.293 NA
ATOM     10  C   UNL     1      -1.920   5.227  24.771  0.00  0.00    +0.090 C 
ATOM     11  C   UNL     1      -3.972   3.962  25.165  0.00  0.00    +0.147 C 
ATOM     12  C   UNL     1      -3.038   4.473  24.051  0.00  0.00    +0.052 C 
ATOM     13  C   UNL     1      -2.471   5.461  26.170  0.00  0.00    +0.107 C 
ATOM     15  C   UNL     1      -4.118   4.374  27.574  0.00  0.00    +0.105 C 
ENDROOT
BRANCH  10   6
ATOM      4  O   UNL     1      -1.335   2.871  23.250  0.00  0.00    -0.252 OA
ATOM      6  N   UNL     1      -0.699   4.455  24.809  0.00  0.00    -0.295 N 
ATOM      9  N   UNL     1       0.773   2.778  24.277  0.00  0.00    -0.267 N 
ATOM     16  C   UNL     1      -0.493   3.312  24.030  0.00  0.00    +0.304 C 
ATOM     30  H   UNL     1       0.014   4.714  25.484  0.00  0.00    +0.151 HD
ATOM     31  H   UNL     1       1.352   3.266  24.956  0.00  0.00    +0.156 HD
BRANCH   9  19
ATOM      1  F   UNL     1      -0.595   0.354  24.124  0.00  0.00    -0.203 F 
ATOM      2  F   UNL     1       3.090  -1.712  21.995  0.00  0.00    -0.205 F 
ATOM     19  C   UNL     1       1.362   1.630  23.695  0.00  0.00    +0.070 A 
ATOM     22  C   UNL     1       0.650   0.433  23.635  0.00  0.00    +0.147 A 
ATOM     23  C   UNL     1       2.657   1.699  23.182  0.00  0.00    +0.029 A 
ATOM     26  C   UNL     1       1.234  -0.697  23.059  0.00  0.00    +0.078 A 
ATOM     27  C   UNL     1       3.241   0.569  22.608  0.00  0.00    +0.040 A 
ATOM     29  C   UNL     1       2.529  -0.628  22.546  0.00  0.00    +0.126 A 
ENDBRANCH   9  19
ENDBRANCH  10   6
BRANCH  11  14
ATOM      3  O   UNL     1      -5.655   2.233  24.780  0.00  0.00    -0.336 OA
ATOM      7  N   UNL     1      -3.571   1.445  25.013  0.00  0.00    -0.190 NA
ATOM      8  N   UNL     1      -5.748   0.841  24.652  0.00  0.00    -0.056 NA
ATOM     14  C   UNL     1      -4.340   2.504  24.991  0.00  0.00    +0.245 A 
ATOM     17  C   UNL     1      -4.479   0.449  24.801  0.00  0.00    +0.202 A 
BRANCH  17  18
ATOM     18  C   UNL     1      -4.085  -0.929  24.743  0.00  0.00    +0.022 A 
ATOM     20  C   UNL     1      -3.323  -1.480  25.772  0.00  0.00    +0.012 A 
ATOM     21  C   UNL     1      -4.463  -1.718  23.656  0.00  0.00    +0.012 A 
ATOM     24  C   UNL     1      -2.940  -2.820  25.716  0.00  0.00    +0.001 A 
ATOM     25  C   UNL     1      -4.079  -3.057  23.599  0.00  0.00    +0.001 A 
ATOM     28  C   UNL     1      -3.317  -3.609  24.630  0.00  0.00    +0.000 A 
ENDBRANCH  17  18
ENDBRANCH  11  14
TORSDOF 4
ENDMDL
MODEL 3
REMARK VINA RESULT:       3.4      2.882      6.358
REMARK  Name = 25338776
REMARK  5 active torsions:
REMARK  status: ('A' for Active; 'I' for Inactive)
REMARK    1  A    between atoms: N_5  and  C_15
REMARK    2  A    between atoms: N_6  and  C_10
REMARK    3  A    between atoms: N_9  and  C_19
REMARK    4  A    between atoms: C_11  and  C_14
REMARK    5  A    between atoms: C_17  and  C_18
REMARK                            x       y       z     vdW  Elec       q    Type
REMARK                         _______ _______ _______ _____ _____    ______ ____
ROOT
ATOM      5  N   UNL     1      -3.483   4.230  24.313  0.00  0.00    -0.293 NA
ATOM     10  C   UNL     1      -4.834   3.643  26.120  0.00  0.00    +0.090 C 
ATOM     11  C   UNL     1      -2.561   4.251  25.465  0.00  0.00    +0.147 C 
ATOM     12  C   UNL     1      -3.399   3.717  26.643  0.00  0.00    +0.052 C 
ATOM     13  C   UNL     1      -4.816   4.499  24.862  0.00  0.00    +0.107 C 
ATOM     15  C   UNL     1      -3.122   5.183  23.271  0.00  0.00    +0.105 C 
ENDROOT
BRANCH  10   6
ATOM      4  O   UNL     1      -3.120   1.531  25.222  0.00  0.00    -0.252 OA
ATOM      6  N   UNL     1      -5.222   2.283  25.825  0.00  0.00    -0.295 N 
ATOM      9  N   UNL     1      -4.976   0.094  25.184  0.00  0.00    -0.267 N 
ATOM     16  C   UNL     1      -4.317   1.309  25.389  0.00  0.00    +0.304 C 
ATOM     30  H   UNL     1      -6.207   2.043  25.868  0.00  0.00    +0.151 HD
ATOM     31  H   UNL     1      -5.976   0.077  25.370  0.00  0.00    +0.156 HD
BRANCH   9  19
ATOM      1  F   UNL     1      -3.147  -1.320  26.741  0.00  0.00    -0.203 F 
ATOM      2  F   UNL     1      -2.810  -4.707  23.455  0.00  0.00    -0.205 F 
ATOM     19  C   UNL     1      -4.422  -1.132  24.746  0.00  0.00    +0.070 A 
ATOM     22  C   UNL     1      -3.508  -1.814  25.549  0.00  0.00    +0.147 A 
ATOM     23  C   UNL     1      -4.790  -1.656  23.507  0.00  0.00    +0.029 A 
ATOM     26  C   UNL     1      -2.964  -3.023  25.113  0.00  0.00    +0.078 A 
ATOM     27  C   UNL     1      -4.245  -2.864  23.071  0.00  0.00    +0.040 A 
ATOM     29  C   UNL     1      -3.333  -3.547  23.874  0.00  0.00    +0.126 A 
ENDBRANCH   9  19
ENDBRANCH  10   6
BRANCH  11  14
ATOM      3  O   UNL     1      -0.410   3.413  26.269  0.00  0.00    -0.336 OA
ATOM      7  N   UNL     1      -0.922   2.767  24.186  0.00  0.00    -0.190 NA
ATOM      8  N   UNL     1       0.660   2.623  25.832  0.00  0.00    -0.056 NA
ATOM     14  C   UNL     1      -1.297   3.447  25.240  0.00  0.00    +0.245 A 
ATOM     17  C   UNL     1       0.284   2.280  24.597  0.00  0.00    +0.202 A 
BRANCH  17  18
ATOM     18  C   UNL     1       1.090   1.451  23.747  0.00  0.00    +0.022 A 
ATOM     20  C   UNL     1       0.522   0.350  23.106  0.00  0.00    +0.012 A 
ATOM     21  C   UNL     1       2.441   1.745  23.562  0.00  0.00    +0.012 A 
ATOM     24  C   UNL     1       1.306  -0.456  22.279  0.00  0.00    +0.001 A 
ATOM     25  C   UNL     1       3.224   0.939  22.737  0.00  0.00    +0.001 A 
ATOM     28  C   UNL     1       2.656  -0.163  22.095  0.00  0.00    +0.000 A 
ENDBRANCH  17  18
ENDBRANCH  11  14
TORSDOF 4
ENDMDL
MODEL 4
REMARK VINA RESULT:       6.2      2.108      6.305
REMARK  Name = 25338776
REMARK  5 active torsions:
REMARK  status: ('A' for Active; 'I' for Inactive)
REMARK    1  A    between atoms: N_5  and  C_15
REMARK    2  A    between atoms: N_6  and  C_10
REMARK    3  A    between atoms: N_9  and  C_19
REMARK    4  A    between atoms: C_11  and  C_14
REMARK    5  A    between atoms: C_17  and  C_18
REMARK                            x       y       z     vdW  Elec       q    Type
REMARK                         _______ _______ _______ _____ _____    ______ ____
ROOT
ATOM      5  N   UNL     1      -1.839  -2.143  25.442  0.00  0.00    -0.293 NA
ATOM     10  C   UNL     1      -3.911  -1.407  24.667  0.00  0.00    +0.090 C 
ATOM     11  C   UNL     1      -1.670  -2.093  23.977  0.00  0.00    +0.147 C 
ATOM     12  C   UNL     1      -2.977  -1.463  23.457  0.00  0.00    +0.052 C 
ATOM     13  C   UNL     1      -3.272  -2.352  25.673  0.00  0.00    +0.107 C 
ATOM     15  C   UNL     1      -1.029  -3.175  26.078  0.00  0.00    +0.105 C 
ENDROOT
BRANCH  10   6
ATOM      4  O   UNL     1      -2.761   0.968  23.551  0.00  0.00    -0.252 OA
ATOM      6  N   UNL     1      -4.014  -0.067  25.197  0.00  0.00    -0.295 N 
ATOM      9  N   UNL     1      -3.687   2.201  25.321  0.00  0.00    -0.267 N 
ATOM     16  C   UNL     1      -3.419   1.043  24.587  0.00  0.00    +0.304 C 
ATOM     30  H   UNL     1      -4.478   0.064  26.089  0.00  0.00    +0.151 HD
ATOM     31  H   UNL     1      -4.251   2.091  26.160  0.00  0.00    +0.156 HD
BRANCH   9  19
ATOM      1  F   UNL     1      -1.322   3.235  26.374  0.00  0.00    -0.203 F 
ATOM      2  F   UNL     1      -2.059   7.384  24.222  0.00  0.00    -0.205 F 
ATOM     19  C   UNL     1      -3.268   3.523  25.042  0.00  0.00    +0.070 A 
ATOM     22  C   UNL     1      -2.080   4.011  25.585  0.00  0.00    +0.147 A 
ATOM     23  C   UNL     1      -4.048   4.339  24.223  0.00  0.00    +0.029 A 
ATOM     26  C   UNL     1      -1.671   5.316  25.307  0.00  0.00    +0.078 A 
ATOM     27  C   UNL     1      -3.639   5.644  23.946  0.00  0.00    +0.040 A 
ATOM     29  C   UNL     1      -2.450   6.131  24.488  0.00  0.00    +0.126 A 
ENDBRANCH   9  19
ENDBRANCH  10   6
BRANCH  11  14
ATOM      3  O   UNL     1      -0.639  -0.333  22.631  0.00  0.00    -0.336 OA
ATOM      7  N   UNL     1       0.807  -1.474  23.906  0.00  0.00    -0.190 NA
ATOM      8  N   UNL     1       0.622   0.224  22.383  0.00  0.00    -0.056 NA
ATOM     14  C   UNL     1      -0.441  -1.325  23.538  0.00  0.00    +0.245 A 
ATOM     17  C   UNL     1       1.421  -0.503  23.171  0.00  0.00    +0.202 A 
BRANCH  17  18
ATOM     18  C   UNL     1       2.837  -0.282  23.247  0.00  0.00    +0.022 A 
ATOM     20  C   UNL     1       3.668  -1.272  23.770  0.00  0.00    +0.012 A 
ATOM     21  C   UNL     1       3.381   0.922  22.800  0.00  0.00    +0.012 A 
ATOM     24  C   UNL     1       5.045  -1.058  23.845  0.00  0.00    +0.001 A 
ATOM     25  C   UNL     1       4.757   1.136  22.875  0.00  0.00    +0.001 A 
ATOM     28  C   UNL     1       5.590   0.145  23.398  0.00  0.00    +0.000 A 
ENDBRANCH  17  18
ENDBRANCH  11  14
TORSDOF 4
ENDMDL
