MODEL 1
REMARK VINA RESULT:      25.6      0.000      0.000
REMARK  Name = 7142490
REMARK  2 active torsions:
REMARK  status: ('A' for Active; 'I' for Inactive)
REMARK    1  A    between atoms: C_10  and  C_17
REMARK    2  A    between atoms: C_26  and  C_28
REMARK                            x       y       z     vdW  Elec       q    Type
REMARK                         _______ _______ _______ _____ _____    ______ ____
ROOT
ATOM      1  O   UNL     1      -5.200  -0.596  25.194  0.00  0.00    -0.275 OA
ATOM      2  O   UNL     1      -2.556   0.162  22.324  0.00  0.00    -0.273 OA
ATOM      3  O   UNL     1       1.264   2.823  24.828  0.00  0.00    -0.270 OA
ATOM      6  N   UNL     1      -3.396   0.875  25.108  0.00  0.00    -0.298 N 
ATOM      7  N   UNL     1      -0.593   1.457  24.632  0.00  0.00    -0.283 N 
ATOM      9  N   UNL     1      -0.309   0.208  21.965  0.00  0.00    -0.283 N 
ATOM     11  C   UNL     1      -1.145   0.155  24.283  0.00  0.00    +0.180 C 
ATOM     12  C   UNL     1      -2.396  -0.195  25.100  0.00  0.00    +0.139 C 
ATOM     13  C   UNL     1      -2.895   2.251  25.070  0.00  0.00    +0.127 C 
ATOM     14  C   UNL     1      -1.425   2.342  25.449  0.00  0.00    +0.128 C 
ATOM     17  C   UNL     1      -4.754   0.548  25.161  0.00  0.00    +0.219 C 
ATOM     20  C   UNL     1      -1.415   0.206  22.788  0.00  0.00    +0.239 C 
ATOM     21  C   UNL     1       0.728   1.810  24.373  0.00  0.00    +0.249 C 
ATOM     22  C   UNL     1       1.543   0.945  23.479  0.00  0.00    +0.059 A 
ATOM     23  C   UNL     1       1.050   0.308  22.329  0.00  0.00    +0.046 A 
ATOM     24  C   UNL     1       2.927   0.933  23.734  0.00  0.00    +0.023 A 
ATOM     25  C   UNL     1       1.963  -0.267  21.426  0.00  0.00    +0.024 A 
ATOM     26  C   UNL     1       3.813   0.317  22.851  0.00  0.00    -0.017 A 
ATOM     27  C   UNL     1       3.331  -0.273  21.689  0.00  0.00    +0.010 A 
ATOM     36  H   UNL     1      -0.495   0.017  20.983  0.00  0.00    +0.155 HD
ENDROOT
BRANCH  26  28
ATOM      4  O   UNL     1       8.400  -1.219  22.089  0.00  0.00    -0.453 OA
ATOM      5  O   UNL     1       9.275   0.195  23.833  0.00  0.00    -0.453 OA
ATOM     28  C   UNL     1       5.232   0.310  23.134  0.00  0.00    -0.014 A 
ATOM     29  C   UNL     1       6.083  -0.515  22.393  0.00  0.00    +0.058 A 
ATOM     30  C   UNL     1       5.744   1.135  24.151  0.00  0.00    +0.012 A 
ATOM     31  C   UNL     1       7.428  -0.487  22.699  0.00  0.00    +0.167 A 
ATOM     32  C   UNL     1       7.928   0.320  23.695  0.00  0.00    +0.166 A 
ATOM     33  C   UNL     1       7.110   1.144  24.440  0.00  0.00    +0.050 A 
ATOM     34  C   UNL     1       9.569  -0.781  22.813  0.00  0.00    +0.466 C 
ENDBRANCH  26  28
BRANCH  17  10
ATOM      8  N   UNL     1      -6.329   4.409  26.075  0.00  0.00    -0.316 NA
ATOM     10  C   UNL     1      -5.729   1.687  25.196  0.00  0.00    +0.078 C 
ATOM     15  C   UNL     1      -5.129   2.917  24.512  0.00  0.00    +0.028 C 
ATOM     16  C   UNL     1      -6.112   2.012  26.639  0.00  0.00    +0.028 C 
ATOM     18  C   UNL     1      -6.036   4.136  24.667  0.00  0.00    +0.081 C 
ATOM     19  C   UNL     1      -6.981   3.266  26.714  0.00  0.00    +0.081 C 
ATOM     35  H   UNL     1      -5.456   4.606  26.563  0.00  0.00    +0.122 HD
ENDBRANCH  17  10
TORSDOF 2
ENDMDL
