MODEL 1
REMARK VINA RESULT:       2.7      0.000      0.000
REMARK  Name = 11912942
REMARK  11 active torsions:
REMARK  status: ('A' for Active; 'I' for Inactive)
REMARK    1  A    between atoms: O_4  and  C_24
REMARK    2  A    between atoms: N_6  and  C_13
REMARK    3  A    between atoms: N_7  and  C_16
REMARK    4  A    between atoms: C_10  and  C_17
REMARK    5  A    between atoms: C_10  and  C_21
REMARK    6  A    between atoms: C_17  and  C_23
REMARK    7  A    between atoms: C_21  and  C_24
REMARK    8  A    between atoms: C_26  and  C_27
REMARK    9  A    between atoms: C_27  and  C_30
REMARK   10  A    between atoms: C_27  and  C_31
REMARK   11  A    between atoms: C_27  and  C_32
REMARK                            x       y       z     vdW  Elec       q    Type
REMARK                         _______ _______ _______ _____ _____    ______ ____
ROOT
ATOM      1  O   UNL     1      -1.145  -0.905  26.248  0.00  0.00    -0.370 OA
ATOM      2  O   UNL     1      -2.748  -2.615  24.186  0.00  0.00    -0.370 OA
ATOM     11  C   UNL     1      -1.926  -1.441  24.065  0.00  0.00    +0.171 C 
ATOM     12  C   UNL     1      -2.173  -0.588  25.294  0.00  0.00    +0.171 C 
ATOM     13  C   UNL     1      -0.463  -1.811  24.163  0.00  0.00    +0.130 C 
ATOM     16  C   UNL     1      -3.519  -1.052  25.800  0.00  0.00    +0.130 C 
ATOM     20  C   UNL     1      -0.237  -1.851  25.664  0.00  0.00    +0.185 C 
ATOM     22  C   UNL     1      -3.553  -2.506  25.368  0.00  0.00    +0.185 C 
ENDROOT
BRANCH  16   7
ATOM      7  N   UNL     1      -4.576  -0.311  25.148  0.00  0.00    -0.306 N 
ATOM      8  N   UNL     1      -3.507   1.718  25.513  0.00  0.00    -0.219 NA
ATOM      9  N   UNL     1      -5.627   1.609  24.371  0.00  0.00    -0.223 NA
ATOM     25  C   UNL     1      -4.569   1.066  25.004  0.00  0.00    +0.216 A 
ATOM     26  C   UNL     1      -3.534   3.058  25.354  0.00  0.00    +0.052 A 
ATOM     28  C   UNL     1      -5.588   2.952  24.248  0.00  0.00    +0.116 A 
ATOM     29  C   UNL     1      -4.557   3.736  24.724  0.00  0.00    +0.043 A 
ATOM     34  H   UNL     1      -5.346  -0.813  24.721  0.00  0.00    +0.149 HD
BRANCH  26  27
ATOM     27  C   UNL     1      -2.375   3.821  25.902  0.00  0.00    +0.005 C 
ATOM     30  C   UNL     1      -1.250   2.860  26.399  0.00  0.00    +0.017 C 
ATOM     31  C   UNL     1      -2.804   4.708  27.112  0.00  0.00    +0.017 C 
ATOM     32  C   UNL     1      -1.676   4.797  24.898  0.00  0.00    +0.017 C 
ENDBRANCH  26  27
ENDBRANCH  16   7
BRANCH  13   6
ATOM      3  O   UNL     1       0.550  -1.829  21.452  0.00  0.00    -0.276 OA
ATOM      6  N   UNL     1       0.370  -0.815  23.535  0.00  0.00    -0.308 N 
ATOM     23  C   UNL     1       0.810  -0.908  22.221  0.00  0.00    +0.214 C 
ATOM     33  H   UNL     1       0.616   0.005  24.084  0.00  0.00    +0.149 HD
BRANCH  23  17
ATOM     17  C   UNL     1       1.667   0.282  21.831  0.00  0.00    +0.103 C 
BRANCH  17  10
ATOM     10  C   UNL     1       2.849   0.492  22.781  0.00  0.00    -0.011 C 
ATOM     14  C   UNL     1       4.161   0.705  22.013  0.00  0.00    +0.008 C 
ATOM     15  C   UNL     1       3.162  -0.778  23.585  0.00  0.00    +0.008 C 
ATOM     18  C   UNL     1       5.263   0.321  22.997  0.00  0.00    +0.001 C 
ATOM     19  C   UNL     1       4.621  -0.632  24.006  0.00  0.00    +0.001 C 
BRANCH  10  21
ATOM     21  C   UNL     1       2.547   1.679  23.709  0.00  0.00    +0.127 C 
BRANCH  21  24
ATOM      5  O   UNL     1       0.196   2.174  23.289  0.00  0.00    -0.251 OA
ATOM     24  C   UNL     1       1.082   1.766  24.026  0.00  0.00    +0.305 C 
BRANCH  24   4
ATOM      4  O   UNL     1       0.866   1.315  25.287  0.00  0.00    -0.481 OA
ATOM     35  H   UNL     1       1.355   0.484  25.468  0.00  0.00    +0.295 HD
ENDBRANCH  24   4
ENDBRANCH  21  24
ENDBRANCH  10  21
ENDBRANCH  17  10
ENDBRANCH  23  17
ENDBRANCH  13   6
TORSDOF 8
ENDMDL
MODEL 2
REMARK VINA RESULT:       3.0      1.496      2.286
REMARK  Name = 11912942
REMARK  11 active torsions:
REMARK  status: ('A' for Active; 'I' for Inactive)
REMARK    1  A    between atoms: O_4  and  C_24
REMARK    2  A    between atoms: N_6  and  C_13
REMARK    3  A    between atoms: N_7  and  C_16
REMARK    4  A    between atoms: C_10  and  C_17
REMARK    5  A    between atoms: C_10  and  C_21
REMARK    6  A    between atoms: C_17  and  C_23
REMARK    7  A    between atoms: C_21  and  C_24
REMARK    8  A    between atoms: C_26  and  C_27
REMARK    9  A    between atoms: C_27  and  C_30
REMARK   10  A    between atoms: C_27  and  C_31
REMARK   11  A    between atoms: C_27  and  C_32
REMARK                            x       y       z     vdW  Elec       q    Type
REMARK                         _______ _______ _______ _____ _____    ______ ____
ROOT
ATOM      1  O   UNL     1      -1.351  -1.088  26.499  0.00  0.00    -0.370 OA
ATOM      2  O   UNL     1      -2.767  -2.057  23.893  0.00  0.00    -0.370 OA
ATOM     11  C   UNL     1      -1.840  -0.995  24.173  0.00  0.00    +0.171 C 
ATOM     12  C   UNL     1      -2.194  -0.434  25.536  0.00  0.00    +0.171 C 
ATOM     13  C   UNL     1      -0.444  -1.549  24.355  0.00  0.00    +0.130 C 
ATOM     16  C   UNL     1      -3.635  -0.841  25.739  0.00  0.00    +0.130 C 
ATOM     20  C   UNL     1      -0.450  -1.970  25.813  0.00  0.00    +0.185 C 
ATOM     22  C   UNL     1      -3.728  -2.137  24.955  0.00  0.00    +0.185 C 
ENDROOT
BRANCH  16   7
ATOM      7  N   UNL     1      -4.516   0.154  25.169  0.00  0.00    -0.306 N 
ATOM      8  N   UNL     1      -2.834   1.754  25.124  0.00  0.00    -0.219 NA
ATOM      9  N   UNL     1      -5.056   2.252  24.334  0.00  0.00    -0.223 NA
ATOM     25  C   UNL     1      -4.118   1.443  24.862  0.00  0.00    +0.216 A 
ATOM     26  C   UNL     1      -2.480   3.019  24.812  0.00  0.00    +0.052 A 
ATOM     28  C   UNL     1      -4.633   3.502  24.047  0.00  0.00    +0.116 A 
ATOM     29  C   UNL     1      -3.346   3.945  24.266  0.00  0.00    +0.043 A 
ATOM     34  H   UNL     1      -5.466  -0.103  24.925  0.00  0.00    +0.149 HD
BRANCH  26  27
ATOM     27  C   UNL     1      -1.066   3.406  25.086  0.00  0.00    +0.005 C 
ATOM     30  C   UNL     1      -0.926   4.950  25.261  0.00  0.00    +0.017 C 
ATOM     31  C   UNL     1      -0.126   2.979  23.916  0.00  0.00    +0.017 C 
ATOM     32  C   UNL     1      -0.436   2.782  26.375  0.00  0.00    +0.017 C 
ENDBRANCH  26  27
ENDBRANCH  16   7
BRANCH  13   6
ATOM      3  O   UNL     1       0.619  -0.731  21.790  0.00  0.00    -0.276 OA
ATOM      6  N   UNL     1       0.555  -0.538  24.106  0.00  0.00    -0.308 N 
ATOM     23  C   UNL     1       1.006  -0.212  22.834  0.00  0.00    +0.214 C 
ATOM     33  H   UNL     1       0.916  -0.028  24.907  0.00  0.00    +0.149 HD
BRANCH  23  17
ATOM     17  C   UNL     1       2.054   0.885  22.876  0.00  0.00    +0.103 C 
BRANCH  17  10
ATOM     10  C   UNL     1       3.474   0.335  23.039  0.00  0.00    -0.011 C 
ATOM     14  C   UNL     1       4.023   0.598  24.448  0.00  0.00    +0.008 C 
ATOM     15  C   UNL     1       4.479   1.098  22.166  0.00  0.00    +0.008 C 
ATOM     18  C   UNL     1       5.541   0.550  24.297  0.00  0.00    +0.001 C 
ATOM     19  C   UNL     1       5.834   0.872  22.831  0.00  0.00    +0.001 C 
BRANCH  10  21
ATOM     21  C   UNL     1       3.476  -1.166  22.710  0.00  0.00    +0.127 C 
BRANCH  21  24
ATOM      5  O   UNL     1       5.293  -2.236  23.935  0.00  0.00    -0.251 OA
ATOM     24  C   UNL     1       4.108  -1.966  23.812  0.00  0.00    +0.305 C 
BRANCH  24   4
ATOM      4  O   UNL     1       3.149  -2.364  24.687  0.00  0.00    -0.481 OA
ATOM     35  H   UNL     1       3.461  -2.319  25.616  0.00  0.00    +0.295 HD
ENDBRANCH  24   4
ENDBRANCH  21  24
ENDBRANCH  10  21
ENDBRANCH  17  10
ENDBRANCH  23  17
ENDBRANCH  13   6
TORSDOF 8
ENDMDL
MODEL 3
REMARK VINA RESULT:       5.3      2.487      5.483
REMARK  Name = 11912942
REMARK  11 active torsions:
REMARK  status: ('A' for Active; 'I' for Inactive)
REMARK    1  A    between atoms: O_4  and  C_24
REMARK    2  A    between atoms: N_6  and  C_13
REMARK    3  A    between atoms: N_7  and  C_16
REMARK    4  A    between atoms: C_10  and  C_17
REMARK    5  A    between atoms: C_10  and  C_21
REMARK    6  A    between atoms: C_17  and  C_23
REMARK    7  A    between atoms: C_21  and  C_24
REMARK    8  A    between atoms: C_26  and  C_27
REMARK    9  A    between atoms: C_27  and  C_30
REMARK   10  A    between atoms: C_27  and  C_31
REMARK   11  A    between atoms: C_27  and  C_32
REMARK                            x       y       z     vdW  Elec       q    Type
REMARK                         _______ _______ _______ _____ _____    ______ ____
ROOT
ATOM      1  O   UNL     1      -4.828   1.871  26.761  0.00  0.00    -0.370 OA
ATOM      2  O   UNL     1      -6.292   3.520  24.553  0.00  0.00    -0.370 OA
ATOM     11  C   UNL     1      -5.167   2.626  24.531  0.00  0.00    +0.171 C 
ATOM     12  C   UNL     1      -4.384   2.853  25.810  0.00  0.00    +0.171 C 
ATOM     13  C   UNL     1      -5.633   1.191  24.634  0.00  0.00    +0.130 C 
ATOM     16  C   UNL     1      -4.797   4.237  26.254  0.00  0.00    +0.130 C 
ATOM     20  C   UNL     1      -5.788   1.007  26.133  0.00  0.00    +0.185 C 
ATOM     22  C   UNL     1      -6.214   4.348  25.722  0.00  0.00    +0.185 C 
ENDROOT
BRANCH  16   7
ATOM      7  N   UNL     1      -3.949   5.230  25.632  0.00  0.00    -0.306 N 
ATOM      8  N   UNL     1      -2.098   3.829  25.701  0.00  0.00    -0.219 NA
ATOM      9  N   UNL     1      -1.953   6.048  24.772  0.00  0.00    -0.223 NA
ATOM     25  C   UNL     1      -2.608   5.027  25.356  0.00  0.00    +0.216 A 
ATOM     26  C   UNL     1      -0.788   3.666  25.418  0.00  0.00    +0.052 A 
ATOM     28  C   UNL     1      -0.648   5.816  24.517  0.00  0.00    +0.116 A 
ATOM     29  C   UNL     1      -0.007   4.634  24.821  0.00  0.00    +0.043 A 
ATOM     34  H   UNL     1      -4.352   6.108  25.327  0.00  0.00    +0.149 HD
BRANCH  26  27
ATOM     27  C   UNL     1      -0.182   2.353  25.783  0.00  0.00    +0.005 C 
ATOM     30  C   UNL     1       0.689   2.472  27.072  0.00  0.00    +0.017 C 
ATOM     31  C   UNL     1       0.737   1.817  24.642  0.00  0.00    +0.017 C 
ATOM     32  C   UNL     1      -1.200   1.200  26.073  0.00  0.00    +0.017 C 
ENDBRANCH  26  27
ENDBRANCH  16   7
BRANCH  13   6
ATOM      3  O   UNL     1      -3.169   1.879  23.281  0.00  0.00    -0.276 OA
ATOM      6  N   UNL     1      -4.650   0.283  24.095  0.00  0.00    -0.308 N 
ATOM     23  C   UNL     1      -3.491   0.707  23.458  0.00  0.00    +0.214 C 
ATOM     33  H   UNL     1      -4.812  -0.712  24.220  0.00  0.00    +0.149 HD
BRANCH  23  17
ATOM     17  C   UNL     1      -2.645  -0.465  22.996  0.00  0.00    +0.103 C 
BRANCH  17  10
ATOM     10  C   UNL     1      -2.564  -1.580  24.042  0.00  0.00    -0.011 C 
ATOM     14  C   UNL     1      -3.758  -2.539  23.939  0.00  0.00    +0.008 C 
ATOM     15  C   UNL     1      -2.727  -1.032  25.466  0.00  0.00    +0.008 C 
ATOM     18  C   UNL     1      -3.863  -3.190  25.316  0.00  0.00    +0.001 C 
ATOM     19  C   UNL     1      -3.202  -2.221  26.297  0.00  0.00    +0.001 C 
BRANCH  10  21
ATOM     21  C   UNL     1      -1.231  -2.328  23.881  0.00  0.00    +0.127 C 
BRANCH  21  24
ATOM      5  O   UNL     1       0.514  -0.660  23.536  0.00  0.00    -0.251 OA
ATOM     24  C   UNL     1      -0.067  -1.458  24.256  0.00  0.00    +0.305 C 
BRANCH  24   4
ATOM      4  O   UNL     1       0.266  -1.685  25.552  0.00  0.00    -0.481 OA
ATOM     35  H   UNL     1       1.177  -1.381  25.754  0.00  0.00    +0.295 HD
ENDBRANCH  24   4
ENDBRANCH  21  24
ENDBRANCH  10  21
ENDBRANCH  17  10
ENDBRANCH  23  17
ENDBRANCH  13   6
TORSDOF 8
ENDMDL
MODEL 4
REMARK VINA RESULT:       5.4      2.014      5.965
REMARK  Name = 11912942
REMARK  11 active torsions:
REMARK  status: ('A' for Active; 'I' for Inactive)
REMARK    1  A    between atoms: O_4  and  C_24
REMARK    2  A    between atoms: N_6  and  C_13
REMARK    3  A    between atoms: N_7  and  C_16
REMARK    4  A    between atoms: C_10  and  C_17
REMARK    5  A    between atoms: C_10  and  C_21
REMARK    6  A    between atoms: C_17  and  C_23
REMARK    7  A    between atoms: C_21  and  C_24
REMARK    8  A    between atoms: C_26  and  C_27
REMARK    9  A    between atoms: C_27  and  C_30
REMARK   10  A    between atoms: C_27  and  C_31
REMARK   11  A    between atoms: C_27  and  C_32
REMARK                            x       y       z     vdW  Elec       q    Type
REMARK                         _______ _______ _______ _____ _____    ______ ____
ROOT
ATOM      1  O   UNL     1      -3.562   0.665  22.981  0.00  0.00    -0.370 OA
ATOM      2  O   UNL     1      -5.083  -0.976  25.157  0.00  0.00    -0.370 OA
ATOM     11  C   UNL     1      -4.091   0.063  25.221  0.00  0.00    +0.171 C 
ATOM     12  C   UNL     1      -3.126  -0.163  24.074  0.00  0.00    +0.171 C 
ATOM     13  C   UNL     1      -4.716   1.406  24.918  0.00  0.00    +0.130 C 
ATOM     16  C   UNL     1      -3.300  -1.623  23.727  0.00  0.00    +0.130 C 
ATOM     20  C   UNL     1      -4.695   1.439  23.401  0.00  0.00    +0.185 C 
ATOM     22  C   UNL     1      -4.749  -1.882  24.096  0.00  0.00    +0.185 C 
ENDROOT
BRANCH  16   7
ATOM      7  N   UNL     1      -2.423  -2.433  24.542  0.00  0.00    -0.306 N 
ATOM      8  N   UNL     1      -0.534  -1.306  23.798  0.00  0.00    -0.219 NA
ATOM      9  N   UNL     1      -0.369  -3.107  25.391  0.00  0.00    -0.223 NA
ATOM     25  C   UNL     1      -1.048  -2.275  24.579  0.00  0.00    +0.216 A 
ATOM     26  C   UNL     1       0.809  -1.179  23.859  0.00  0.00    +0.052 A 
ATOM     28  C   UNL     1       0.968  -2.925  25.401  0.00  0.00    +0.116 A 
ATOM     29  C   UNL     1       1.618  -1.968  24.650  0.00  0.00    +0.043 A 
ATOM     34  H   UNL     1      -2.821  -3.125  25.167  0.00  0.00    +0.149 HD
BRANCH  26  27
ATOM     27  C   UNL     1       1.420  -0.117  23.010  0.00  0.00    +0.005 C 
ATOM     30  C   UNL     1       0.835   1.288  23.354  0.00  0.00    +0.017 C 
ATOM     31  C   UNL     1       1.153  -0.379  21.495  0.00  0.00    +0.017 C 
ATOM     32  C   UNL     1       2.972   0.035  23.137  0.00  0.00    +0.017 C 
ENDBRANCH  26  27
ENDBRANCH  16   7
BRANCH  13   6
ATOM      3  O   UNL     1      -5.550   4.147  25.328  0.00  0.00    -0.276 OA
ATOM      6  N   UNL     1      -3.933   2.483  25.475  0.00  0.00    -0.308 N 
ATOM     23  C   UNL     1      -4.420   3.774  25.634  0.00  0.00    +0.214 C 
ATOM     33  H   UNL     1      -2.992   2.265  25.788  0.00  0.00    +0.149 HD
BRANCH  23  17
ATOM     17  C   UNL     1      -3.379   4.694  26.244  0.00  0.00    +0.103 C 
BRANCH  17  10
ATOM     10  C   UNL     1      -1.972   4.431  25.702  0.00  0.00    -0.011 C 
ATOM     14  C   UNL     1      -1.312   5.721  25.196  0.00  0.00    +0.008 C 
ATOM     15  C   UNL     1      -2.008   3.579  24.426  0.00  0.00    +0.008 C 
ATOM     18  C   UNL     1      -0.247   5.258  24.204  0.00  0.00    +0.001 C 
ATOM     19  C   UNL     1      -0.696   3.883  23.708  0.00  0.00    +0.001 C 
BRANCH  10  21
ATOM     21  C   UNL     1      -1.125   3.762  26.796  0.00  0.00    +0.127 C 
BRANCH  21  24
ATOM      5  O   UNL     1      -1.228   1.485  25.929  0.00  0.00    -0.251 OA
ATOM     24  C   UNL     1      -0.583   2.440  26.336  0.00  0.00    +0.305 C 
BRANCH  24   4
ATOM      4  O   UNL     1       0.770   2.448  26.437  0.00  0.00    -0.481 OA
ATOM     35  H   UNL     1       1.068   2.598  27.359  0.00  0.00    +0.295 HD
ENDBRANCH  24   4
ENDBRANCH  21  24
ENDBRANCH  10  21
ENDBRANCH  17  10
ENDBRANCH  23  17
ENDBRANCH  13   6
TORSDOF 8
ENDMDL
MODEL 5
REMARK VINA RESULT:       5.7      2.354      6.874
REMARK  Name = 11912942
REMARK  11 active torsions:
REMARK  status: ('A' for Active; 'I' for Inactive)
REMARK    1  A    between atoms: O_4  and  C_24
REMARK    2  A    between atoms: N_6  and  C_13
REMARK    3  A    between atoms: N_7  and  C_16
REMARK    4  A    between atoms: C_10  and  C_17
REMARK    5  A    between atoms: C_10  and  C_21
REMARK    6  A    between atoms: C_17  and  C_23
REMARK    7  A    between atoms: C_21  and  C_24
REMARK    8  A    between atoms: C_26  and  C_27
REMARK    9  A    between atoms: C_27  and  C_30
REMARK   10  A    between atoms: C_27  and  C_31
REMARK   11  A    between atoms: C_27  and  C_32
REMARK                            x       y       z     vdW  Elec       q    Type
REMARK                         _______ _______ _______ _____ _____    ______ ____
ROOT
ATOM      1  O   UNL     1      -1.736   3.008  26.335  0.00  0.00    -0.370 OA
ATOM      2  O   UNL     1      -1.214   5.065  24.046  0.00  0.00    -0.370 OA
ATOM     11  C   UNL     1      -1.774   3.741  24.072  0.00  0.00    +0.171 C 
ATOM     12  C   UNL     1      -0.999   2.943  25.102  0.00  0.00    +0.171 C 
ATOM     13  C   UNL     1      -3.184   3.776  24.617  0.00  0.00    +0.130 C 
ATOM     16  C   UNL     1       0.310   3.685  25.235  0.00  0.00    +0.130 C 
ATOM     20  C   UNL     1      -2.952   3.739  26.117  0.00  0.00    +0.185 C 
ATOM     22  C   UNL     1      -0.087   5.118  24.932  0.00  0.00    +0.185 C 
ENDROOT
BRANCH  16   7
ATOM      7  N   UNL     1       1.253   3.208  24.247  0.00  0.00    -0.306 N 
ATOM      8  N   UNL     1       0.542   1.011  24.493  0.00  0.00    -0.219 NA
ATOM      9  N   UNL     1       2.292   1.593  22.942  0.00  0.00    -0.223 NA
ATOM     25  C   UNL     1       1.367   1.879  23.878  0.00  0.00    +0.216 A 
ATOM     26  C   UNL     1       0.680  -0.276  24.109  0.00  0.00    +0.052 A 
ATOM     28  C   UNL     1       2.376   0.289  22.605  0.00  0.00    +0.116 A 
ATOM     29  C   UNL     1       1.589  -0.699  23.160  0.00  0.00    +0.043 A 
ATOM     34  H   UNL     1       1.833   3.873  23.750  0.00  0.00    +0.149 HD
BRANCH  26  27
ATOM     27  C   UNL     1      -0.215  -1.271  24.765  0.00  0.00    +0.005 C 
ATOM     30  C   UNL     1      -1.243  -1.863  23.751  0.00  0.00    +0.017 C 
ATOM     31  C   UNL     1      -1.025  -0.621  25.930  0.00  0.00    +0.017 C 
ATOM     32  C   UNL     1       0.505  -2.508  25.399  0.00  0.00    +0.017 C 
ENDBRANCH  26  27
ENDBRANCH  16   7
BRANCH  13   6
ATOM      3  O   UNL     1      -2.317   1.695  22.802  0.00  0.00    -0.276 OA
ATOM      6  N   UNL     1      -3.942   2.629  24.177  0.00  0.00    -0.308 N 
ATOM     23  C   UNL     1      -3.441   1.677  23.299  0.00  0.00    +0.214 C 
ATOM     33  H   UNL     1      -4.875   2.510  24.559  0.00  0.00    +0.149 HD
BRANCH  23  17
ATOM     17  C   UNL     1      -4.456   0.586  23.016  0.00  0.00    +0.103 C 
BRANCH  17  10
ATOM     10  C   UNL     1      -4.670  -0.343  24.214  0.00  0.00    -0.011 C 
ATOM     14  C   UNL     1      -3.629  -0.094  25.314  0.00  0.00    +0.008 C 
ATOM     15  C   UNL     1      -4.393  -1.808  23.850  0.00  0.00    +0.008 C 
ATOM     18  C   UNL     1      -3.583  -1.392  26.117  0.00  0.00    +0.001 C 
ATOM     19  C   UNL     1      -4.073  -2.493  25.175  0.00  0.00    +0.001 C 
BRANCH  10  21
ATOM     21  C   UNL     1      -6.100  -0.161  24.747  0.00  0.00    +0.127 C 
BRANCH  21  24
ATOM      5  O   UNL     1      -5.844   1.728  26.267  0.00  0.00    -0.251 OA
ATOM     24  C   UNL     1      -6.319   1.234  25.256  0.00  0.00    +0.305 C 
BRANCH  24   4
ATOM      4  O   UNL     1      -7.149   1.897  24.411  0.00  0.00    -0.481 OA
ATOM     35  H   UNL     1      -6.655   2.351  23.695  0.00  0.00    +0.295 HD
ENDBRANCH  24   4
ENDBRANCH  21  24
ENDBRANCH  10  21
ENDBRANCH  17  10
ENDBRANCH  23  17
ENDBRANCH  13   6
TORSDOF 8
ENDMDL
MODEL 6
REMARK VINA RESULT:       6.0      1.696      4.221
REMARK  Name = 11912942
REMARK  11 active torsions:
REMARK  status: ('A' for Active; 'I' for Inactive)
REMARK    1  A    between atoms: O_4  and  C_24
REMARK    2  A    between atoms: N_6  and  C_13
REMARK    3  A    between atoms: N_7  and  C_16
REMARK    4  A    between atoms: C_10  and  C_17
REMARK    5  A    between atoms: C_10  and  C_21
REMARK    6  A    between atoms: C_17  and  C_23
REMARK    7  A    between atoms: C_21  and  C_24
REMARK    8  A    between atoms: C_26  and  C_27
REMARK    9  A    between atoms: C_27  and  C_30
REMARK   10  A    between atoms: C_27  and  C_31
REMARK   11  A    between atoms: C_27  and  C_32
REMARK                            x       y       z     vdW  Elec       q    Type
REMARK                         _______ _______ _______ _____ _____    ______ ____
ROOT
ATOM      1  O   UNL     1      -1.160   4.128  23.893  0.00  0.00    -0.370 OA
ATOM      2  O   UNL     1      -2.199   3.942  26.830  0.00  0.00    -0.370 OA
ATOM     11  C   UNL     1      -1.786   2.957  25.867  0.00  0.00    +0.171 C 
ATOM     12  C   UNL     1      -2.258   3.431  24.506  0.00  0.00    +0.171 C 
ATOM     13  C   UNL     1      -0.279   2.938  25.747  0.00  0.00    +0.130 C 
ATOM     16  C   UNL     1      -3.380   4.393  24.819  0.00  0.00    +0.130 C 
ATOM     20  C   UNL     1      -0.017   4.059  24.758  0.00  0.00    +0.185 C 
ATOM     22  C   UNL     1      -2.970   4.954  26.168  0.00  0.00    +0.185 C 
ENDROOT
BRANCH  16   7
ATOM      7  N   UNL     1      -4.631   3.675  24.934  0.00  0.00    -0.306 N 
ATOM      8  N   UNL     1      -3.573   1.615  24.756  0.00  0.00    -0.219 NA
ATOM      9  N   UNL     1      -5.963   1.776  25.026  0.00  0.00    -0.223 NA
ATOM     25  C   UNL     1      -4.726   2.295  24.905  0.00  0.00    +0.216 A 
ATOM     26  C   UNL     1      -3.704   0.272  24.732  0.00  0.00    +0.052 A 
ATOM     28  C   UNL     1      -6.020   0.428  24.993  0.00  0.00    +0.116 A 
ATOM     29  C   UNL     1      -4.913  -0.382  24.847  0.00  0.00    +0.043 A 
ATOM     34  H   UNL     1      -5.487   4.191  25.099  0.00  0.00    +0.149 HD
BRANCH  26  27
ATOM     27  C   UNL     1      -2.451  -0.520  24.570  0.00  0.00    +0.005 C 
ATOM     30  C   UNL     1      -1.560   0.059  23.427  0.00  0.00    +0.017 C 
ATOM     31  C   UNL     1      -2.764  -2.007  24.215  0.00  0.00    +0.017 C 
ATOM     32  C   UNL     1      -1.526  -0.580  25.830  0.00  0.00    +0.017 C 
ENDBRANCH  26  27
ENDBRANCH  16   7
BRANCH  13   6
ATOM      3  O   UNL     1       1.558   2.501  23.554  0.00  0.00    -0.276 OA
ATOM      6  N   UNL     1       0.187   1.671  25.238  0.00  0.00    -0.308 N 
ATOM     23  C   UNL     1       1.074   1.558  24.175  0.00  0.00    +0.214 C 
ATOM     33  H   UNL     1      -0.134   0.829  25.707  0.00  0.00    +0.149 HD
BRANCH  23  17
ATOM     17  C   UNL     1       1.388   0.108  23.858  0.00  0.00    +0.103 C 
BRANCH  17  10
ATOM     10  C   UNL     1       2.742  -0.063  23.166  0.00  0.00    -0.011 C 
ATOM     14  C   UNL     1       3.551  -1.212  23.782  0.00  0.00    +0.008 C 
ATOM     15  C   UNL     1       3.664   1.138  23.422  0.00  0.00    +0.008 C 
ATOM     18  C   UNL     1       5.006  -0.904  23.436  0.00  0.00    +0.001 C 
ATOM     19  C   UNL     1       5.078   0.607  23.205  0.00  0.00    +0.001 C 
BRANCH  10  21
ATOM     21  C   UNL     1       2.517  -0.283  21.661  0.00  0.00    +0.127 C 
BRANCH  21  24
ATOM      5  O   UNL     1       0.407  -1.385  22.189  0.00  0.00    -0.251 OA
ATOM     24  C   UNL     1       1.148  -0.834  21.389  0.00  0.00    +0.305 C 
BRANCH  24   4
ATOM      4  O   UNL     1       0.831  -0.631  20.085  0.00  0.00    -0.481 OA
ATOM     35  H   UNL     1       1.628  -0.476  19.535  0.00  0.00    +0.295 HD
ENDBRANCH  24   4
ENDBRANCH  21  24
ENDBRANCH  10  21
ENDBRANCH  17  10
ENDBRANCH  23  17
ENDBRANCH  13   6
TORSDOF 8
ENDMDL
MODEL 7
REMARK VINA RESULT:       6.3      2.310      6.100
REMARK  Name = 11912942
REMARK  11 active torsions:
REMARK  status: ('A' for Active; 'I' for Inactive)
REMARK    1  A    between atoms: O_4  and  C_24
REMARK    2  A    between atoms: N_6  and  C_13
REMARK    3  A    between atoms: N_7  and  C_16
REMARK    4  A    between atoms: C_10  and  C_17
REMARK    5  A    between atoms: C_10  and  C_21
REMARK    6  A    between atoms: C_17  and  C_23
REMARK    7  A    between atoms: C_21  and  C_24
REMARK    8  A    between atoms: C_26  and  C_27
REMARK    9  A    between atoms: C_27  and  C_30
REMARK   10  A    between atoms: C_27  and  C_31
REMARK   11  A    between atoms: C_27  and  C_32
REMARK                            x       y       z     vdW  Elec       q    Type
REMARK                         _______ _______ _______ _____ _____    ______ ____
ROOT
ATOM      1  O   UNL     1       0.356   1.298  25.291  0.00  0.00    -0.370 OA
ATOM      2  O   UNL     1       0.836   0.505  22.311  0.00  0.00    -0.370 OA
ATOM     11  C   UNL     1      -0.341   0.846  23.062  0.00  0.00    +0.171 C 
ATOM     12  C   UNL     1      -0.176   0.260  24.451  0.00  0.00    +0.171 C 
ATOM     13  C   UNL     1      -0.402   2.339  23.297  0.00  0.00    +0.130 C 
ATOM     16  C   UNL     1       0.842  -0.840  24.268  0.00  0.00    +0.130 C 
ATOM     20  C   UNL     1       0.469   2.509  24.529  0.00  0.00    +0.185 C 
ATOM     22  C   UNL     1       1.685  -0.326  23.115  0.00  0.00    +0.185 C 
ENDROOT
BRANCH  16   7
ATOM      7  N   UNL     1       0.181  -2.071  23.895  0.00  0.00    -0.306 N 
ATOM      8  N   UNL     1      -1.884  -1.291  24.619  0.00  0.00    -0.219 NA
ATOM      9  N   UNL     1      -1.642  -3.492  23.668  0.00  0.00    -0.223 NA
ATOM     25  C   UNL     1      -1.174  -2.294  24.068  0.00  0.00    +0.216 A 
ATOM     26  C   UNL     1      -3.201  -1.543  24.773  0.00  0.00    +0.052 A 
ATOM     28  C   UNL     1      -2.966  -3.676  23.852  0.00  0.00    +0.116 A 
ATOM     29  C   UNL     1      -3.802  -2.729  24.404  0.00  0.00    +0.043 A 
ATOM     34  H   UNL     1       0.710  -2.801  23.432  0.00  0.00    +0.149 HD
BRANCH  26  27
ATOM     27  C   UNL     1      -4.024  -0.458  25.379  0.00  0.00    +0.005 C 
ATOM     30  C   UNL     1      -5.206  -0.055  24.444  0.00  0.00    +0.017 C 
ATOM     31  C   UNL     1      -3.171   0.823  25.637  0.00  0.00    +0.017 C 
ATOM     32  C   UNL     1      -4.682  -0.803  26.757  0.00  0.00    +0.017 C 
ENDBRANCH  26  27
ENDBRANCH  16   7
BRANCH  13   6
ATOM      3  O   UNL     1      -2.700   2.004  21.570  0.00  0.00    -0.276 OA
ATOM      6  N   UNL     1      -1.755   2.772  23.550  0.00  0.00    -0.308 N 
ATOM     23  C   UNL     1      -2.799   2.567  22.657  0.00  0.00    +0.214 C 
ATOM     33  H   UNL     1      -1.944   3.223  24.440  0.00  0.00    +0.149 HD
BRANCH  23  17
ATOM     17  C   UNL     1      -4.107   3.126  23.187  0.00  0.00    +0.103 C 
BRANCH  17  10
ATOM     10  C   UNL     1      -3.921   3.939  24.470  0.00  0.00    -0.011 C 
ATOM     14  C   UNL     1      -3.096   5.209  24.220  0.00  0.00    +0.008 C 
ATOM     15  C   UNL     1      -3.047   3.197  25.490  0.00  0.00    +0.008 C 
ATOM     18  C   UNL     1      -2.515   5.579  25.582  0.00  0.00    +0.001 C 
ATOM     19  C   UNL     1      -2.483   4.286  26.397  0.00  0.00    +0.001 C 
BRANCH  10  21
ATOM     21  C   UNL     1      -5.301   4.277  25.058  0.00  0.00    +0.127 C 
BRANCH  21  24
ATOM      5  O   UNL     1      -5.756   2.764  26.916  0.00  0.00    -0.251 OA
ATOM     24  C   UNL     1      -5.906   3.089  25.748  0.00  0.00    +0.305 C 
BRANCH  24   4
ATOM      4  O   UNL     1      -6.672   2.398  24.866  0.00  0.00    -0.481 OA
ATOM     35  H   UNL     1      -6.172   2.157  24.057  0.00  0.00    +0.295 HD
ENDBRANCH  24   4
ENDBRANCH  21  24
ENDBRANCH  10  21
ENDBRANCH  17  10
ENDBRANCH  23  17
ENDBRANCH  13   6
TORSDOF 8
ENDMDL
MODEL 8
REMARK VINA RESULT:       6.5      2.122      4.340
REMARK  Name = 11912942
REMARK  11 active torsions:
REMARK  status: ('A' for Active; 'I' for Inactive)
REMARK    1  A    between atoms: O_4  and  C_24
REMARK    2  A    between atoms: N_6  and  C_13
REMARK    3  A    between atoms: N_7  and  C_16
REMARK    4  A    between atoms: C_10  and  C_17
REMARK    5  A    between atoms: C_10  and  C_21
REMARK    6  A    between atoms: C_17  and  C_23
REMARK    7  A    between atoms: C_21  and  C_24
REMARK    8  A    between atoms: C_26  and  C_27
REMARK    9  A    between atoms: C_27  and  C_30
REMARK   10  A    between atoms: C_27  and  C_31
REMARK   11  A    between atoms: C_27  and  C_32
REMARK                            x       y       z     vdW  Elec       q    Type
REMARK                         _______ _______ _______ _____ _____    ______ ____
ROOT
ATOM      1  O   UNL     1      -1.140   4.002  23.964  0.00  0.00    -0.370 OA
ATOM      2  O   UNL     1      -2.356   3.852  26.834  0.00  0.00    -0.370 OA
ATOM     11  C   UNL     1      -1.877   2.856  25.914  0.00  0.00    +0.171 C 
ATOM     12  C   UNL     1      -2.268   3.304  24.520  0.00  0.00    +0.171 C 
ATOM     13  C   UNL     1      -0.365   2.848  25.888  0.00  0.00    +0.130 C 
ATOM     16  C   UNL     1      -3.415   4.261  24.748  0.00  0.00    +0.130 C 
ATOM     20  C   UNL     1      -0.052   3.956  24.899  0.00  0.00    +0.185 C 
ATOM     22  C   UNL     1      -3.093   4.847  26.111  0.00  0.00    +0.185 C 
ENDROOT
BRANCH  16   7
ATOM      7  N   UNL     1      -4.664   3.534  24.798  0.00  0.00    -0.306 N 
ATOM      8  N   UNL     1      -3.583   1.482  24.686  0.00  0.00    -0.219 NA
ATOM      9  N   UNL     1      -5.985   1.625  24.824  0.00  0.00    -0.223 NA
ATOM     25  C   UNL     1      -4.748   2.153  24.768  0.00  0.00    +0.216 A 
ATOM     26  C   UNL     1      -3.702   0.137  24.661  0.00  0.00    +0.052 A 
ATOM     28  C   UNL     1      -6.029   0.276  24.793  0.00  0.00    +0.116 A 
ATOM     29  C   UNL     1      -4.910  -0.526  24.712  0.00  0.00    +0.043 A 
ATOM     34  H   UNL     1      -5.533   4.044  24.913  0.00  0.00    +0.149 HD
BRANCH  26  27
ATOM     27  C   UNL     1      -2.436  -0.645  24.571  0.00  0.00    +0.005 C 
ATOM     30  C   UNL     1      -1.515  -0.102  23.435  0.00  0.00    +0.017 C 
ATOM     31  C   UNL     1      -2.721  -2.149  24.266  0.00  0.00    +0.017 C 
ATOM     32  C   UNL     1      -1.551  -0.643  25.862  0.00  0.00    +0.017 C 
ENDBRANCH  26  27
ENDBRANCH  16   7
BRANCH  13   6
ATOM      3  O   UNL     1       1.327   2.366  23.590  0.00  0.00    -0.276 OA
ATOM      6  N   UNL     1       0.142   1.578  25.428  0.00  0.00    -0.308 N 
ATOM     23  C   UNL     1       0.952   1.443  24.309  0.00  0.00    +0.214 C 
ATOM     33  H   UNL     1      -0.089   0.754  25.977  0.00  0.00    +0.149 HD
BRANCH  23  17
ATOM     17  C   UNL     1       1.334  -0.006  24.065  0.00  0.00    +0.103 C 
BRANCH  17  10
ATOM     10  C   UNL     1       2.607  -0.145  23.227  0.00  0.00    -0.011 C 
ATOM     14  C   UNL     1       3.482   1.113  23.317  0.00  0.00    +0.008 C 
ATOM     15  C   UNL     1       2.294  -0.199  21.726  0.00  0.00    +0.008 C 
ATOM     18  C   UNL     1       4.345   1.086  22.057  0.00  0.00    +0.001 C 
ATOM     19  C   UNL     1       3.580   0.244  21.035  0.00  0.00    +0.001 C 
BRANCH  10  21
ATOM     21  C   UNL     1       3.378  -1.395  23.682  0.00  0.00    +0.127 C 
BRANCH  21  24
ATOM      5  O   UNL     1       5.139  -0.001  24.631  0.00  0.00    -0.251 OA
ATOM     24  C   UNL     1       4.771  -1.048  24.120  0.00  0.00    +0.305 C 
BRANCH  24   4
ATOM      4  O   UNL     1       5.597  -2.093  23.863  0.00  0.00    -0.481 OA
ATOM     35  H   UNL     1       5.336  -2.897  24.361  0.00  0.00    +0.295 HD
ENDBRANCH  24   4
ENDBRANCH  21  24
ENDBRANCH  10  21
ENDBRANCH  17  10
ENDBRANCH  23  17
ENDBRANCH  13   6
TORSDOF 8
ENDMDL
