MODEL 1
REMARK VINA RESULT:      -4.1      0.000      0.000
REMARK  Name = 45784300
REMARK  5 active torsions:
REMARK  status: ('A' for Active; 'I' for Inactive)
REMARK    1  A    between atoms: O_2  and  C_19
REMARK    2  A    between atoms: O_2  and  C_22
REMARK    3  A    between atoms: N_3  and  C_11
REMARK    4  A    between atoms: C_6  and  C_10
REMARK    5  A    between atoms: C_11  and  C_12
REMARK                            x       y       z     vdW  Elec       q    Type
REMARK                         _______ _______ _______ _____ _____    ______ ____
ROOT
ATOM      4  N   UNL     1      -4.566 -10.765  14.919  0.00  0.00    -0.341 N 
ATOM      5  N   UNL     1      -6.422  -9.967  13.991  0.00  0.00    -0.232 NA
ATOM     10  C   UNL     1      -5.896 -10.488  15.078  0.00  0.00    +0.113 A 
ATOM     13  C   UNL     1      -4.211 -10.399  13.647  0.00  0.00    +0.070 A 
ATOM     14  C   UNL     1      -5.385  -9.903  13.088  0.00  0.00    +0.089 A 
ATOM     15  C   UNL     1      -2.998 -10.458  12.957  0.00  0.00    +0.073 A 
ATOM     18  C   UNL     1      -5.368  -9.434  11.763  0.00  0.00    +0.033 A 
ATOM     19  C   UNL     1      -3.000  -9.986  11.641  0.00  0.00    +0.122 A 
ATOM     20  C   UNL     1      -4.163  -9.482  11.053  0.00  0.00    +0.048 A 
ATOM     23  H   UNL     1      -3.952 -11.168  15.615  0.00  0.00    +0.167 HD
ENDROOT
BRANCH  10   6
ATOM      3  N   UNL     1      -8.591 -10.341  17.556  0.00  0.00    -0.297 NA
ATOM      6  C   UNL     1      -6.609 -10.774  16.378  0.00  0.00    +0.070 C 
ATOM      7  C   UNL     1      -6.329  -9.763  17.505  0.00  0.00    +0.028 C 
ATOM      8  C   UNL     1      -8.136 -10.781  16.234  0.00  0.00    +0.096 C 
ATOM      9  C   UNL     1      -7.700  -9.238  17.913  0.00  0.00    +0.085 C 
BRANCH   3  11
ATOM     11  C   UNL     1      -9.991  -9.945  17.558  0.00  0.00    +0.120 C 
BRANCH  11  12
ATOM      1  S   UNL     1     -10.647  -6.510  15.556  0.00  0.00    -0.105 S 
ATOM     12  C   UNL     1     -10.262  -8.837  16.575  0.00  0.00    -0.026 A 
ATOM     16  C   UNL     1     -10.485  -9.048  15.183  0.00  0.00    +0.012 A 
ATOM     17  C   UNL     1     -10.323  -7.504  16.912  0.00  0.00    +0.050 A 
ATOM     21  C   UNL     1     -10.706  -7.866  14.510  0.00  0.00    +0.045 A 
ENDBRANCH  11  12
ENDBRANCH   3  11
ENDBRANCH  10   6
BRANCH  19   2
ATOM      2  O   UNL     1      -1.843 -10.018  10.920  0.00  0.00    -0.495 OA
ATOM     22  C   UNL     1      -0.952  -8.917  11.079  0.00  0.00    +0.277 C 
ENDBRANCH  19   2
TORSDOF 4
ENDMDL
MODEL 2
REMARK VINA RESULT:      -2.6      1.333      2.029
REMARK  Name = 45784300
REMARK  5 active torsions:
REMARK  status: ('A' for Active; 'I' for Inactive)
REMARK    1  A    between atoms: O_2  and  C_19
REMARK    2  A    between atoms: O_2  and  C_22
REMARK    3  A    between atoms: N_3  and  C_11
REMARK    4  A    between atoms: C_6  and  C_10
REMARK    5  A    between atoms: C_11  and  C_12
REMARK                            x       y       z     vdW  Elec       q    Type
REMARK                         _______ _______ _______ _____ _____    ______ ____
ROOT
ATOM      4  N   UNL     1      -3.567 -10.448  13.796  0.00  0.00    -0.341 N 
ATOM      5  N   UNL     1      -5.119  -9.923  12.292  0.00  0.00    -0.232 NA
ATOM     10  C   UNL     1      -4.902 -10.375  13.508  0.00  0.00    +0.113 A 
ATOM     13  C   UNL     1      -2.877 -10.015  12.693  0.00  0.00    +0.070 A 
ATOM     14  C   UNL     1      -3.867  -9.692  11.769  0.00  0.00    +0.089 A 
ATOM     15  C   UNL     1      -1.512  -9.882  12.433  0.00  0.00    +0.073 A 
ATOM     18  C   UNL     1      -3.491  -9.208  10.504  0.00  0.00    +0.033 A 
ATOM     19  C   UNL     1      -1.157  -9.398  11.170  0.00  0.00    +0.122 A 
ATOM     20  C   UNL     1      -2.128  -9.066  10.221  0.00  0.00    +0.048 A 
ATOM     23  H   UNL     1      -3.159 -10.764  14.666  0.00  0.00    +0.167 HD
ENDROOT
BRANCH  10   6
ATOM      3  N   UNL     1      -8.195 -10.466  15.113  0.00  0.00    -0.297 NA
ATOM      6  C   UNL     1      -5.948 -10.781  14.520  0.00  0.00    +0.070 C 
ATOM      7  C   UNL     1      -6.031  -9.877  15.763  0.00  0.00    +0.028 C 
ATOM      8  C   UNL     1      -7.370 -10.781  13.944  0.00  0.00    +0.096 C 
ATOM      9  C   UNL     1      -7.476  -9.397  15.805  0.00  0.00    +0.085 C 
BRANCH   3  11
ATOM     11  C   UNL     1      -9.549 -10.078  14.748  0.00  0.00    +0.120 C 
BRANCH  11  12
ATOM      1  S   UNL     1     -10.513  -6.303  15.779  0.00  0.00    -0.105 S 
ATOM     12  C   UNL     1      -9.956  -8.782  15.400  0.00  0.00    -0.026 A 
ATOM     16  C   UNL     1     -10.331  -8.667  16.770  0.00  0.00    +0.012 A 
ATOM     17  C   UNL     1     -10.011  -7.573  14.745  0.00  0.00    +0.050 A 
ATOM     21  C   UNL     1     -10.660  -7.372  17.109  0.00  0.00    +0.045 A 
ENDBRANCH  11  12
ENDBRANCH   3  11
ENDBRANCH  10   6
BRANCH  19   2
ATOM      2  O   UNL     1       0.162  -9.247  10.860  0.00  0.00    -0.495 OA
ATOM     22  C   UNL     1       0.844  -8.146  11.455  0.00  0.00    +0.277 C 
ENDBRANCH  19   2
TORSDOF 4
ENDMDL
MODEL 3
REMARK VINA RESULT:      -2.1     14.135     15.276
REMARK  Name = 45784300
REMARK  5 active torsions:
REMARK  status: ('A' for Active; 'I' for Inactive)
REMARK    1  A    between atoms: O_2  and  C_19
REMARK    2  A    between atoms: O_2  and  C_22
REMARK    3  A    between atoms: N_3  and  C_11
REMARK    4  A    between atoms: C_6  and  C_10
REMARK    5  A    between atoms: C_11  and  C_12
REMARK                            x       y       z     vdW  Elec       q    Type
REMARK                         _______ _______ _______ _____ _____    ______ ____
ROOT
ATOM      4  N   UNL     1       1.018   2.024  24.348  0.00  0.00    -0.341 N 
ATOM      5  N   UNL     1      -0.234   0.735  23.040  0.00  0.00    -0.232 NA
ATOM     10  C   UNL     1      -0.246   1.650  23.984  0.00  0.00    +0.113 A 
ATOM     13  C   UNL     1       1.904   1.303  23.589  0.00  0.00    +0.070 A 
ATOM     14  C   UNL     1       1.098   0.507  22.780  0.00  0.00    +0.089 A 
ATOM     15  C   UNL     1       3.298   1.280  23.542  0.00  0.00    +0.073 A 
ATOM     18  C   UNL     1       1.702  -0.372  21.865  0.00  0.00    +0.033 A 
ATOM     19  C   UNL     1       3.882   0.401  22.624  0.00  0.00    +0.122 A 
ATOM     20  C   UNL     1       3.099  -0.412  21.799  0.00  0.00    +0.048 A 
ATOM     23  H   UNL     1       1.261   2.710  25.051  0.00  0.00    +0.167 HD
ENDROOT
BRANCH  10   6
ATOM      3  N   UNL     1      -3.716   1.847  25.144  0.00  0.00    -0.297 NA
ATOM      6  C   UNL     1      -1.464   2.261  24.635  0.00  0.00    +0.070 C 
ATOM      7  C   UNL     1      -2.365   3.073  23.687  0.00  0.00    +0.028 C 
ATOM      8  C   UNL     1      -2.398   1.216  25.257  0.00  0.00    +0.096 C 
ATOM      9  C   UNL     1      -3.741   2.430  23.803  0.00  0.00    +0.085 C 
BRANCH   3  11
ATOM     11  C   UNL     1      -4.803   0.904  25.359  0.00  0.00    +0.120 C 
BRANCH  11  12
ATOM      1  S   UNL     1      -4.007  -2.778  23.927  0.00  0.00    -0.105 S 
ATOM     12  C   UNL     1      -4.378  -0.515  25.086  0.00  0.00    -0.026 A 
ATOM     16  C   UNL     1      -3.666  -1.324  26.018  0.00  0.00    +0.012 A 
ATOM     17  C   UNL     1      -4.628  -1.182  23.908  0.00  0.00    +0.050 A 
ATOM     21  C   UNL     1      -3.399  -2.579  25.516  0.00  0.00    +0.045 A 
ENDBRANCH  11  12
ENDBRANCH   3  11
ENDBRANCH  10   6
BRANCH  19   2
ATOM      2  O   UNL     1       5.241   0.337  22.534  0.00  0.00    -0.495 OA
ATOM     22  C   UNL     1       5.940  -0.190  23.659  0.00  0.00    +0.277 C 
ENDBRANCH  19   2
TORSDOF 4
ENDMDL
MODEL 4
REMARK VINA RESULT:      -1.7     14.865     17.246
REMARK  Name = 45784300
REMARK  5 active torsions:
REMARK  status: ('A' for Active; 'I' for Inactive)
REMARK    1  A    between atoms: O_2  and  C_19
REMARK    2  A    between atoms: O_2  and  C_22
REMARK    3  A    between atoms: N_3  and  C_11
REMARK    4  A    between atoms: C_6  and  C_10
REMARK    5  A    between atoms: C_11  and  C_12
REMARK                            x       y       z     vdW  Elec       q    Type
REMARK                         _______ _______ _______ _____ _____    ______ ____
ROOT
ATOM      4  N   UNL     1      -2.333   1.803  25.423  0.00  0.00    -0.341 N 
ATOM      5  N   UNL     1      -3.528   0.006  24.887  0.00  0.00    -0.232 NA
ATOM     10  C   UNL     1      -2.316   0.480  25.078  0.00  0.00    +0.113 A 
ATOM     13  C   UNL     1      -3.642   2.210  25.457  0.00  0.00    +0.070 A 
ATOM     14  C   UNL     1      -4.368   1.071  25.121  0.00  0.00    +0.089 A 
ATOM     15  C   UNL     1      -4.236   3.440  25.746  0.00  0.00    +0.073 A 
ATOM     18  C   UNL     1      -5.770   1.145  25.062  0.00  0.00    +0.033 A 
ATOM     19  C   UNL     1      -5.632   3.495  25.684  0.00  0.00    +0.122 A 
ATOM     20  C   UNL     1      -6.387   2.368  25.348  0.00  0.00    +0.048 A 
ATOM     23  H   UNL     1      -1.527   2.381  25.619  0.00  0.00    +0.167 HD
ENDROOT
BRANCH  10   6
ATOM      3  N   UNL     1       0.873  -0.536  23.586  0.00  0.00    -0.297 NA
ATOM      6  C   UNL     1      -1.018  -0.282  24.951  0.00  0.00    +0.070 C 
ATOM      7  C   UNL     1      -1.119  -1.606  24.172  0.00  0.00    +0.028 C 
ATOM      8  C   UNL     1       0.074   0.513  24.225  0.00  0.00    +0.096 C 
ATOM      9  C   UNL     1      -0.107  -1.476  23.040  0.00  0.00    +0.085 C 
BRANCH   3  11
ATOM     11  C   UNL     1       1.765  -0.010  22.565  0.00  0.00    +0.120 C 
BRANCH  11  12
ATOM      1  S   UNL     1       5.443  -0.865  23.973  0.00  0.00    -0.105 S 
ATOM     12  C   UNL     1       3.206  -0.058  23.000  0.00  0.00    -0.026 A 
ATOM     16  C   UNL     1       4.125   1.018  22.825  0.00  0.00    +0.012 A 
ATOM     17  C   UNL     1       3.792  -1.143  23.612  0.00  0.00    +0.050 A 
ATOM     21  C   UNL     1       5.378   0.712  23.309  0.00  0.00    +0.045 A 
ENDBRANCH  11  12
ENDBRANCH   3  11
ENDBRANCH  10   6
BRANCH  19   2
ATOM      2  O   UNL     1      -6.265   4.671  25.957  0.00  0.00    -0.495 OA
ATOM     22  C   UNL     1      -6.259   5.662  24.933  0.00  0.00    +0.277 C 
ENDBRANCH  19   2
TORSDOF 4
ENDMDL
MODEL 5
REMARK VINA RESULT:      -1.4     14.112     15.172
REMARK  Name = 45784300
REMARK  5 active torsions:
REMARK  status: ('A' for Active; 'I' for Inactive)
REMARK    1  A    between atoms: O_2  and  C_19
REMARK    2  A    between atoms: O_2  and  C_22
REMARK    3  A    between atoms: N_3  and  C_11
REMARK    4  A    between atoms: C_6  and  C_10
REMARK    5  A    between atoms: C_11  and  C_12
REMARK                            x       y       z     vdW  Elec       q    Type
REMARK                         _______ _______ _______ _____ _____    ______ ____
ROOT
ATOM      4  N   UNL     1       0.112  -1.223  23.572  0.00  0.00    -0.341 N 
ATOM      5  N   UNL     1      -0.631   0.833  23.982  0.00  0.00    -0.232 NA
ATOM     10  C   UNL     1      -0.949  -0.443  23.941  0.00  0.00    +0.113 A 
ATOM     13  C   UNL     1       1.185  -0.396  23.361  0.00  0.00    +0.070 A 
ATOM     14  C   UNL     1       0.697   0.880  23.624  0.00  0.00    +0.089 A 
ATOM     15  C   UNL     1       2.502  -0.649  22.974  0.00  0.00    +0.073 A 
ATOM     18  C   UNL     1       1.559   1.983  23.498  0.00  0.00    +0.033 A 
ATOM     19  C   UNL     1       3.346   0.460  22.855  0.00  0.00    +0.122 A 
ATOM     20  C   UNL     1       2.885   1.754  23.112  0.00  0.00    +0.048 A 
ATOM     23  H   UNL     1       0.109  -2.229  23.471  0.00  0.00    +0.167 HD
ENDROOT
BRANCH  10   6
ATOM      3  N   UNL     1      -4.522  -0.494  24.752  0.00  0.00    -0.297 NA
ATOM      6  C   UNL     1      -2.299  -1.047  24.250  0.00  0.00    +0.070 C 
ATOM      7  C   UNL     1      -2.567  -1.298  25.745  0.00  0.00    +0.028 C 
ATOM      8  C   UNL     1      -3.468  -0.169  23.788  0.00  0.00    +0.096 C 
ATOM      9  C   UNL     1      -3.848  -0.530  26.050  0.00  0.00    +0.085 C 
BRANCH   3  11
ATOM     11  C   UNL     1      -5.616   0.465  24.723  0.00  0.00    +0.120 C 
BRANCH  11  12
ATOM      1  S   UNL     1      -3.859   4.085  24.506  0.00  0.00    -0.105 S 
ATOM     12  C   UNL     1      -5.126   1.880  24.877  0.00  0.00    -0.026 A 
ATOM     16  C   UNL     1      -5.580   2.772  25.892  0.00  0.00    +0.012 A 
ATOM     17  C   UNL     1      -4.189   2.466  24.056  0.00  0.00    +0.050 A 
ATOM     21  C   UNL     1      -4.972   4.006  25.806  0.00  0.00    +0.045 A 
ENDBRANCH  11  12
ENDBRANCH   3  11
ENDBRANCH  10   6
BRANCH  19   2
ATOM      2  O   UNL     1       4.644   0.273  22.481  0.00  0.00    -0.495 OA
ATOM     22  C   UNL     1       5.575  -0.043  23.512  0.00  0.00    +0.277 C 
ENDBRANCH  19   2
TORSDOF 4
ENDMDL
MODEL 6
REMARK VINA RESULT:      -1.0      2.387      3.041
REMARK  Name = 45784300
REMARK  5 active torsions:
REMARK  status: ('A' for Active; 'I' for Inactive)
REMARK    1  A    between atoms: O_2  and  C_19
REMARK    2  A    between atoms: O_2  and  C_22
REMARK    3  A    between atoms: N_3  and  C_11
REMARK    4  A    between atoms: C_6  and  C_10
REMARK    5  A    between atoms: C_11  and  C_12
REMARK                            x       y       z     vdW  Elec       q    Type
REMARK                         _______ _______ _______ _____ _____    ______ ____
ROOT
ATOM      4  N   UNL     1      -3.443 -10.239  13.671  0.00  0.00    -0.341 N 
ATOM      5  N   UNL     1      -4.938  -9.994  12.042  0.00  0.00    -0.232 NA
ATOM     10  C   UNL     1      -4.758 -10.325  13.302  0.00  0.00    +0.113 A 
ATOM     13  C   UNL     1      -2.728  -9.824  12.577  0.00  0.00    +0.070 A 
ATOM     14  C   UNL     1      -3.683  -9.678  11.574  0.00  0.00    +0.089 A 
ATOM     15  C   UNL     1      -1.369  -9.572  12.384  0.00  0.00    +0.073 A 
ATOM     18  C   UNL     1      -3.275  -9.257  10.297  0.00  0.00    +0.033 A 
ATOM     19  C   UNL     1      -0.982  -9.154  11.107  0.00  0.00    +0.122 A 
ATOM     20  C   UNL     1      -1.917  -8.998  10.081  0.00  0.00    +0.048 A 
ATOM     23  H   UNL     1      -3.064 -10.443  14.586  0.00  0.00    +0.167 HD
ENDROOT
BRANCH  10   6
ATOM      3  N   UNL     1      -8.090 -10.488  14.818  0.00  0.00    -0.297 NA
ATOM      6  C   UNL     1      -5.822 -10.758  14.283  0.00  0.00    +0.070 C 
ATOM      7  C   UNL     1      -5.955  -9.863  15.529  0.00  0.00    +0.028 C 
ATOM      8  C   UNL     1      -7.228 -10.780  13.669  0.00  0.00    +0.096 C 
ATOM      9  C   UNL     1      -7.410  -9.410  15.535  0.00  0.00    +0.085 C 
BRANCH   3  11
ATOM     11  C   UNL     1      -9.440 -10.122  14.419  0.00  0.00    +0.120 C 
BRANCH  11  12
ATOM      1  S   UNL     1      -9.257  -9.051  10.538  0.00  0.00    -0.105 S 
ATOM     12  C   UNL     1      -9.557  -9.947  12.927  0.00  0.00    -0.026 A 
ATOM     16  C   UNL     1     -10.353 -10.781  12.090  0.00  0.00    +0.012 A 
ATOM     17  C   UNL     1      -8.908  -8.966  12.212  0.00  0.00    +0.050 A 
ATOM     21  C   UNL     1     -10.281 -10.405  10.766  0.00  0.00    +0.045 A 
ENDBRANCH  11  12
ENDBRANCH   3  11
ENDBRANCH  10   6
BRANCH  19   2
ATOM      2  O   UNL     1       0.334  -8.892  10.862  0.00  0.00    -0.495 OA
ATOM     22  C   UNL     1       0.990  -7.989  11.748  0.00  0.00    +0.277 C 
ENDBRANCH  19   2
TORSDOF 4
ENDMDL
MODEL 7
REMARK VINA RESULT:      -0.7     15.402     17.716
REMARK  Name = 45784300
REMARK  5 active torsions:
REMARK  status: ('A' for Active; 'I' for Inactive)
REMARK    1  A    between atoms: O_2  and  C_19
REMARK    2  A    between atoms: O_2  and  C_22
REMARK    3  A    between atoms: N_3  and  C_11
REMARK    4  A    between atoms: C_6  and  C_10
REMARK    5  A    between atoms: C_11  and  C_12
REMARK                            x       y       z     vdW  Elec       q    Type
REMARK                         _______ _______ _______ _____ _____    ______ ____
ROOT
ATOM      4  N   UNL     1      -2.780   0.931  24.720  0.00  0.00    -0.341 N 
ATOM      5  N   UNL     1      -1.153   2.262  25.443  0.00  0.00    -0.232 NA
ATOM     10  C   UNL     1      -1.437   1.088  24.922  0.00  0.00    +0.113 A 
ATOM     13  C   UNL     1      -3.404   2.078  25.140  0.00  0.00    +0.070 A 
ATOM     14  C   UNL     1      -2.368   2.893  25.586  0.00  0.00    +0.089 A 
ATOM     15  C   UNL     1      -4.746   2.460  25.166  0.00  0.00    +0.073 A 
ATOM     18  C   UNL     1      -2.669   4.168  26.092  0.00  0.00    +0.033 A 
ATOM     19  C   UNL     1      -5.027   3.733  25.673  0.00  0.00    +0.122 A 
ATOM     20  C   UNL     1      -4.008   4.574  26.128  0.00  0.00    +0.048 A 
ATOM     23  H   UNL     1      -3.236   0.116  24.331  0.00  0.00    +0.167 HD
ENDROOT
BRANCH  10   6
ATOM      3  N   UNL     1       1.333  -0.506  23.129  0.00  0.00    -0.297 NA
ATOM      6  C   UNL     1      -0.455  -0.002  24.561  0.00  0.00    +0.070 C 
ATOM      7  C   UNL     1      -0.934  -0.964  23.460  0.00  0.00    +0.028 C 
ATOM      8  C   UNL     1       0.883   0.545  24.046  0.00  0.00    +0.096 C 
ATOM      9  C   UNL     1       0.137  -0.889  22.378  0.00  0.00    +0.085 C 
BRANCH   3  11
ATOM     11  C   UNL     1       2.413  -0.061  22.262  0.00  0.00    +0.120 C 
BRANCH  11  12
ATOM      1  S   UNL     1       6.080   0.502  23.834  0.00  0.00    -0.105 S 
ATOM     12  C   UNL     1       3.750  -0.124  22.953  0.00  0.00    -0.026 A 
ATOM     16  C   UNL     1       4.213  -1.257  23.684  0.00  0.00    +0.012 A 
ATOM     17  C   UNL     1       4.667   0.902  22.954  0.00  0.00    +0.050 A 
ATOM     21  C   UNL     1       5.466  -1.050  24.217  0.00  0.00    +0.045 A 
ENDBRANCH  11  12
ENDBRANCH   3  11
ENDBRANCH  10   6
BRANCH  19   2
ATOM      2  O   UNL     1      -6.321   4.161  25.722  0.00  0.00    -0.495 OA
ATOM     22  C   UNL     1      -6.570   5.514  25.351  0.00  0.00    +0.277 C 
ENDBRANCH  19   2
TORSDOF 4
ENDMDL
MODEL 8
REMARK VINA RESULT:      -0.5      2.534      4.293
REMARK  Name = 45784300
REMARK  5 active torsions:
REMARK  status: ('A' for Active; 'I' for Inactive)
REMARK    1  A    between atoms: O_2  and  C_19
REMARK    2  A    between atoms: O_2  and  C_22
REMARK    3  A    between atoms: N_3  and  C_11
REMARK    4  A    between atoms: C_6  and  C_10
REMARK    5  A    between atoms: C_11  and  C_12
REMARK                            x       y       z     vdW  Elec       q    Type
REMARK                         _______ _______ _______ _____ _____    ______ ____
ROOT
ATOM      4  N   UNL     1      -1.747  -9.202  13.831  0.00  0.00    -0.341 N 
ATOM      5  N   UNL     1      -2.068 -10.096  11.821  0.00  0.00    -0.232 NA
ATOM     10  C   UNL     1      -2.504 -10.040  13.060  0.00  0.00    +0.113 A 
ATOM     13  C   UNL     1      -0.757  -8.683  13.038  0.00  0.00    +0.070 A 
ATOM     14  C   UNL     1      -0.979  -9.255  11.788  0.00  0.00    +0.089 A 
ATOM     15  C   UNL     1       0.282  -7.788  13.298  0.00  0.00    +0.073 A 
ATOM     18  C   UNL     1      -0.122  -8.928  10.723  0.00  0.00    +0.033 A 
ATOM     19  C   UNL     1       1.124  -7.474  12.226  0.00  0.00    +0.122 A 
ATOM     20  C   UNL     1       0.927  -8.032  10.961  0.00  0.00    +0.048 A 
ATOM     23  H   UNL     1      -1.890  -8.998  14.812  0.00  0.00    +0.167 HD
ENDROOT
BRANCH  10   6
ATOM      3  N   UNL     1      -5.949 -10.527  14.211  0.00  0.00    -0.297 NA
ATOM      6  C   UNL     1      -3.689 -10.780  13.635  0.00  0.00    +0.070 C 
ATOM      7  C   UNL     1      -3.824 -10.695  15.166  0.00  0.00    +0.028 C 
ATOM      8  C   UNL     1      -5.032 -10.268  13.098  0.00  0.00    +0.096 C 
ATOM      9  C   UNL     1      -5.214 -10.119  15.408  0.00  0.00    +0.085 C 
BRANCH   3  11
ATOM     11  C   UNL     1      -7.211  -9.818  14.067  0.00  0.00    +0.120 C 
BRANCH  11  12
ATOM      1  S   UNL     1      -9.913 -10.683  16.930  0.00  0.00    -0.105 S 
ATOM     12  C   UNL     1      -8.070  -9.946  15.298  0.00  0.00    -0.026 A 
ATOM     16  C   UNL     1      -7.845  -9.218  16.502  0.00  0.00    +0.012 A 
ATOM     17  C   UNL     1      -9.162 -10.778  15.393  0.00  0.00    +0.050 A 
ATOM     21  C   UNL     1      -8.775  -9.523  17.472  0.00  0.00    +0.045 A 
ENDBRANCH  11  12
ENDBRANCH   3  11
ENDBRANCH  10   6
BRANCH  19   2
ATOM      2  O   UNL     1       2.156  -6.604  12.422  0.00  0.00    -0.495 OA
ATOM     22  C   UNL     1       3.433  -6.994  11.924  0.00  0.00    +0.277 C 
ENDBRANCH  19   2
TORSDOF 4
ENDMDL
