MODEL 1
REMARK VINA RESULT:      -4.9      0.000      0.000
REMARK  Name = 51137977
REMARK  9 active torsions:
REMARK  status: ('A' for Active; 'I' for Inactive)
REMARK    1  A    between atoms: O_2  and  C_28
REMARK    2  A    between atoms: O_2  and  C_29
REMARK    3  A    between atoms: N_5  and  C_23
REMARK    4  A    between atoms: C_7  and  C_11
REMARK    5  A    between atoms: C_8  and  C_14
REMARK    6  A    between atoms: C_11  and  C_17
REMARK    7  A    between atoms: C_17  and  C_25
REMARK    8  A    between atoms: C_17  and  C_26
REMARK    9  A    between atoms: C_23  and  C_28
REMARK                            x       y       z     vdW  Elec       q    Type
REMARK                         _______ _______ _______ _____ _____    ______ ____
ROOT
ATOM      3  N   UNL     1      -4.465 -10.703  13.122  0.00  0.00    -0.299 NA
ATOM      6  N   UNL     1      -8.008 -10.285   9.548  0.00  0.00    -0.360 N 
ATOM      7  C   UNL     1      -3.814 -10.027  11.992  0.00  0.00    +0.085 C 
ATOM      8  C   UNL     1      -5.662 -10.039  13.619  0.00  0.00    +0.145 C 
ATOM      9  C   UNL     1      -6.930 -10.652  13.030  0.00  0.00    +0.065 C 
ATOM     10  C   UNL     1      -4.632  -9.943  10.700  0.00  0.00    -0.021 A 
ATOM     12  C   UNL     1      -6.039 -10.146  10.605  0.00  0.00    +0.008 A 
ATOM     13  C   UNL     1      -7.071 -10.450  11.559  0.00  0.00    -0.020 A 
ATOM     20  C   UNL     1      -6.671 -10.026   9.362  0.00  0.00    +0.047 A 
ATOM     21  C   UNL     1      -8.261 -10.535  10.864  0.00  0.00    +0.087 A 
ATOM     22  C   UNL     1      -3.974  -9.558   9.504  0.00  0.00    +0.006 A 
ATOM     24  C   UNL     1      -5.997  -9.692   8.186  0.00  0.00    +0.026 A 
ATOM     27  C   UNL     1      -4.633  -9.447   8.281  0.00  0.00    +0.002 A 
ATOM     30  H   UNL     1      -4.651 -11.681  12.903  0.00  0.00    +0.123 HD
ATOM     31  H   UNL     1      -8.705 -10.274   8.815  0.00  0.00    +0.165 HD
ENDROOT
BRANCH   8  14
ATOM      1  O   UNL     1      -4.570 -10.304  15.696  0.00  0.00    -0.274 OA
ATOM      4  N   UNL     1      -6.889 -10.421  15.719  0.00  0.00    -0.298 N 
ATOM      5  N   UNL     1      -9.296  -9.995  17.213  0.00  0.00    -0.297 NA
ATOM     14  C   UNL     1      -5.649 -10.266  15.101  0.00  0.00    +0.233 C 
ATOM     15  C   UNL     1      -8.186 -10.381  15.037  0.00  0.00    +0.123 C 
ATOM     16  C   UNL     1      -6.958 -10.780  17.134  0.00  0.00    +0.123 C 
ATOM     18  C   UNL     1      -9.195  -9.537  15.820  0.00  0.00    +0.103 C 
ATOM     19  C   UNL     1      -7.985  -9.924  17.875  0.00  0.00    +0.103 C 
BRANCH   5  23
ATOM     23  C   UNL     1     -10.284  -9.202  17.944  0.00  0.00    +0.112 C 
BRANCH  23  28
ATOM     28  C   UNL     1     -10.161  -7.730  17.585  0.00  0.00    +0.174 C 
BRANCH  28   2
ATOM      2  O   UNL     1     -10.541  -7.559  16.226  0.00  0.00    -0.382 OA
ATOM     29  C   UNL     1     -10.719  -6.185  15.903  0.00  0.00    +0.194 C 
ENDBRANCH  28   2
ENDBRANCH  23  28
ENDBRANCH   5  23
ENDBRANCH   8  14
BRANCH   7  11
ATOM     11  C   UNL     1      -2.485 -10.781  11.802  0.00  0.00    +0.026 C 
BRANCH  11  17
ATOM     17  C   UNL     1      -1.277 -10.010  12.340  0.00  0.00    -0.015 C 
ATOM     25  C   UNL     1      -1.516  -9.660  13.812  0.00  0.00    +0.007 C 
ATOM     26  C   UNL     1      -0.990  -8.734  11.547  0.00  0.00    +0.007 C 
ENDBRANCH  11  17
ENDBRANCH   7  11
TORSDOF 6
ENDMDL
