MODEL 1
REMARK VINA RESULT:      -4.7      0.000      0.000
REMARK  Name = 45784180
REMARK  4 active torsions:
REMARK  status: ('A' for Active; 'I' for Inactive)
REMARK    1  A    between atoms: N_3  and  C_9
REMARK    2  A    between atoms: C_5  and  C_10
REMARK    3  A    between atoms: C_9  and  C_11
REMARK    4  A    between atoms: C_12  and  C_17
REMARK                            x       y       z     vdW  Elec       q    Type
REMARK                         _______ _______ _______ _____ _____    ______ ____
ROOT
ATOM      3  N   UNL     1      17.297  -5.214  26.816  0.00  0.00    -0.297 NA
ATOM      5  C   UNL     1      16.448  -7.010  28.063  0.00  0.00    +0.090 C 
ATOM      6  C   UNL     1      16.841  -5.531  28.171  0.00  0.00    +0.097 C 
ATOM      7  C   UNL     1      16.124  -7.219  26.574  0.00  0.00    +0.029 C 
ATOM      8  C   UNL     1      16.321  -5.851  25.932  0.00  0.00    +0.085 C 
ENDROOT
BRANCH   5  10
ATOM      1 CL   UNL     1      11.180  -9.670  32.841  0.00  0.00    -0.083 Cl
ATOM      2  O   UNL     1      14.467  -6.403  29.346  0.00  0.00    -0.439 OA
ATOM      4  N   UNL     1      15.105  -8.567  29.564  0.00  0.00    -0.213 NA
ATOM     10  C   UNL     1      15.340  -7.396  29.015  0.00  0.00    +0.201 A 
ATOM     13  C   UNL     1      13.984  -8.340  30.327  0.00  0.00    +0.111 A 
ATOM     14  C   UNL     1      13.591  -7.017  30.196  0.00  0.00    +0.155 A 
ATOM     18  C   UNL     1      13.238  -9.190  31.156  0.00  0.00    +0.051 A 
ATOM     19  C   UNL     1      12.494  -6.450  30.832  0.00  0.00    +0.050 A 
ATOM     22  C   UNL     1      12.122  -8.654  31.815  0.00  0.00    +0.043 A 
ATOM     23  C   UNL     1      11.760  -7.311  31.654  0.00  0.00    +0.024 A 
ENDBRANCH   5  10
BRANCH   3   9
ATOM      9  C   UNL     1      17.402  -3.782  26.585  0.00  0.00    +0.119 C 
BRANCH   9  11
ATOM     11  C   UNL     1      17.219  -3.433  25.132  0.00  0.00    -0.030 A 
ATOM     12  C   UNL     1      16.868  -2.140  24.743  0.00  0.00    -0.046 A 
ATOM     15  C   UNL     1      17.403  -4.425  24.169  0.00  0.00    +0.005 A 
ATOM     16  C   UNL     1      16.703  -1.840  23.391  0.00  0.00    +0.003 A 
ATOM     17  C   UNL     1      16.664  -1.062  25.755  0.00  0.00    +0.044 C 
ATOM     20  C   UNL     1      17.238  -4.124  22.817  0.00  0.00    +0.000 A 
ATOM     21  C   UNL     1      16.888  -2.832  22.428  0.00  0.00    +0.000 A 
ENDBRANCH   9  11
ENDBRANCH   3   9
TORSDOF 3
ENDMDL
MODEL 2
REMARK VINA RESULT:      -4.2      1.476      2.362
REMARK  Name = 45784180
REMARK  4 active torsions:
REMARK  status: ('A' for Active; 'I' for Inactive)
REMARK    1  A    between atoms: N_3  and  C_9
REMARK    2  A    between atoms: C_5  and  C_10
REMARK    3  A    between atoms: C_9  and  C_11
REMARK    4  A    between atoms: C_12  and  C_17
REMARK                            x       y       z     vdW  Elec       q    Type
REMARK                         _______ _______ _______ _____ _____    ______ ____
ROOT
ATOM      3  N   UNL     1      17.405  -5.654  25.120  0.00  0.00    -0.297 NA
ATOM      5  C   UNL     1      17.035  -6.275  27.351  0.00  0.00    +0.090 C 
ATOM      6  C   UNL     1      16.898  -5.098  26.376  0.00  0.00    +0.097 C 
ATOM      7  C   UNL     1      17.005  -7.526  26.457  0.00  0.00    +0.029 C 
ATOM      8  C   UNL     1      16.825  -6.995  25.040  0.00  0.00    +0.085 C 
ENDROOT
BRANCH   5  10
ATOM      1 CL   UNL     1      11.479  -6.770  32.503  0.00  0.00    -0.083 Cl
ATOM      2  O   UNL     1      16.159  -5.295  29.403  0.00  0.00    -0.439 OA
ATOM      4  N   UNL     1      14.954  -7.040  28.603  0.00  0.00    -0.213 NA
ATOM     10  C   UNL     1      15.997  -6.254  28.449  0.00  0.00    +0.201 A 
ATOM     13  C   UNL     1      14.371  -6.569  29.756  0.00  0.00    +0.111 A 
ATOM     14  C   UNL     1      15.106  -5.502  30.248  0.00  0.00    +0.155 A 
ATOM     18  C   UNL     1      13.227  -6.983  30.453  0.00  0.00    +0.051 A 
ATOM     19  C   UNL     1      14.796  -4.790  31.401  0.00  0.00    +0.050 A 
ATOM     22  C   UNL     1      12.881  -6.290  31.621  0.00  0.00    +0.043 A 
ATOM     23  C   UNL     1      13.651  -5.216  32.084  0.00  0.00    +0.024 A 
ENDBRANCH   5  10
BRANCH   3   9
ATOM      9  C   UNL     1      17.061  -4.833  23.969  0.00  0.00    +0.119 C 
BRANCH   9  11
ATOM     11  C   UNL     1      17.128  -3.363  24.288  0.00  0.00    -0.030 A 
ATOM     12  C   UNL     1      17.292  -2.416  23.277  0.00  0.00    -0.046 A 
ATOM     15  C   UNL     1      17.025  -2.953  25.617  0.00  0.00    +0.005 A 
ATOM     16  C   UNL     1      17.352  -1.060  23.595  0.00  0.00    +0.003 A 
ATOM     17  C   UNL     1      17.405  -2.830  21.847  0.00  0.00    +0.044 C 
ATOM     20  C   UNL     1      17.086  -1.596  25.935  0.00  0.00    +0.000 A 
ATOM     21  C   UNL     1      17.249  -0.650  24.925  0.00  0.00    +0.000 A 
ENDBRANCH   9  11
ENDBRANCH   3   9
TORSDOF 3
ENDMDL
MODEL 3
REMARK VINA RESULT:      -3.4     17.160     18.214
REMARK  Name = 45784180
REMARK  4 active torsions:
REMARK  status: ('A' for Active; 'I' for Inactive)
REMARK    1  A    between atoms: N_3  and  C_9
REMARK    2  A    between atoms: C_5  and  C_10
REMARK    3  A    between atoms: C_9  and  C_11
REMARK    4  A    between atoms: C_12  and  C_17
REMARK                            x       y       z     vdW  Elec       q    Type
REMARK                         _______ _______ _______ _____ _____    ______ ____
ROOT
ATOM      3  N   UNL     1       0.876  -0.609  23.652  0.00  0.00    -0.297 NA
ATOM      5  C   UNL     1      -0.939  -0.022  25.016  0.00  0.00    +0.090 C 
ATOM      6  C   UNL     1       0.242   0.573  24.238  0.00  0.00    +0.097 C 
ATOM      7  C   UNL     1      -1.236  -1.357  24.311  0.00  0.00    +0.029 C 
ATOM      8  C   UNL     1      -0.235  -1.429  23.166  0.00  0.00    +0.085 C 
ENDROOT
BRANCH   5  10
ATOM      1 CL   UNL     1      -6.335   5.299  25.510  0.00  0.00    -0.083 Cl
ATOM      2  O   UNL     1      -3.346   0.336  25.140  0.00  0.00    -0.439 OA
ATOM      4  N   UNL     1      -2.109   2.234  25.174  0.00  0.00    -0.213 NA
ATOM     10  C   UNL     1      -2.116   0.921  25.112  0.00  0.00    +0.201 A 
ATOM     13  C   UNL     1      -3.444   2.555  25.249  0.00  0.00    +0.111 A 
ATOM     14  C   UNL     1      -4.204   1.396  25.228  0.00  0.00    +0.155 A 
ATOM     18  C   UNL     1      -4.097   3.793  25.337  0.00  0.00    +0.051 A 
ATOM     19  C   UNL     1      -5.591   1.357  25.290  0.00  0.00    +0.050 A 
ATOM     22  C   UNL     1      -5.498   3.795  25.400  0.00  0.00    +0.043 A 
ATOM     23  C   UNL     1      -6.227   2.601  25.377  0.00  0.00    +0.024 A 
ENDBRANCH   5  10
BRANCH   3   9
ATOM      9  C   UNL     1       1.817  -0.270  22.595  0.00  0.00    +0.119 C 
BRANCH   9  11
ATOM     11  C   UNL     1       3.244  -0.339  23.072  0.00  0.00    -0.030 A 
ATOM     12  C   UNL     1       4.086   0.769  22.979  0.00  0.00    -0.046 A 
ATOM     15  C   UNL     1       3.720  -1.534  23.610  0.00  0.00    +0.005 A 
ATOM     16  C   UNL     1       5.403   0.682  23.426  0.00  0.00    +0.003 A 
ATOM     17  C   UNL     1       3.598   2.059  22.406  0.00  0.00    +0.044 C 
ATOM     20  C   UNL     1       5.039  -1.621  24.057  0.00  0.00    +0.000 A 
ATOM     21  C   UNL     1       5.880  -0.512  23.966  0.00  0.00    +0.000 A 
ENDBRANCH   9  11
ENDBRANCH   3   9
TORSDOF 3
ENDMDL
MODEL 4
REMARK VINA RESULT:      -2.4     16.849     18.472
REMARK  Name = 45784180
REMARK  4 active torsions:
REMARK  status: ('A' for Active; 'I' for Inactive)
REMARK    1  A    between atoms: N_3  and  C_9
REMARK    2  A    between atoms: C_5  and  C_10
REMARK    3  A    between atoms: C_9  and  C_11
REMARK    4  A    between atoms: C_12  and  C_17
REMARK                            x       y       z     vdW  Elec       q    Type
REMARK                         _______ _______ _______ _____ _____    ______ ____
ROOT
ATOM      3  N   UNL     1      -3.088   0.084  24.292  0.00  0.00    -0.297 NA
ATOM      5  C   UNL     1      -1.038  -0.995  23.925  0.00  0.00    +0.090 C 
ATOM      6  C   UNL     1      -1.915   0.157  23.418  0.00  0.00    +0.097 C 
ATOM      7  C   UNL     1      -1.474  -1.202  25.386  0.00  0.00    +0.029 C 
ATOM      8  C   UNL     1      -2.545  -0.147  25.631  0.00  0.00    +0.085 C 
ENDROOT
BRANCH   5  10
ATOM      1 CL   UNL     1       6.505  -0.415  23.271  0.00  0.00    -0.083 Cl
ATOM      2  O   UNL     1       0.769   0.469  23.195  0.00  0.00    -0.439 OA
ATOM      4  N   UNL     1       1.450  -1.529  24.021  0.00  0.00    -0.213 NA
ATOM     10  C   UNL     1       0.439  -0.738  23.734  0.00  0.00    +0.201 A 
ATOM     13  C   UNL     1       2.546  -0.790  23.644  0.00  0.00    +0.111 A 
ATOM     14  C   UNL     1       2.133   0.433  23.138  0.00  0.00    +0.155 A 
ATOM     18  C   UNL     1       3.918  -1.075  23.693  0.00  0.00    +0.051 A 
ATOM     19  C   UNL     1       2.985   1.423  22.665  0.00  0.00    +0.050 A 
ATOM     22  C   UNL     1       4.810  -0.100  23.224  0.00  0.00    +0.043 A 
ATOM     23  C   UNL     1       4.351   1.123  22.722  0.00  0.00    +0.024 A 
ENDBRANCH   5  10
BRANCH   3   9
ATOM      9  C   UNL     1      -3.907   1.285  24.226  0.00  0.00    +0.119 C 
BRANCH   9  11
ATOM     11  C   UNL     1      -3.146   2.508  24.666  0.00  0.00    -0.030 A 
ATOM     12  C   UNL     1      -3.760   3.496  25.435  0.00  0.00    -0.046 A 
ATOM     15  C   UNL     1      -1.810   2.645  24.292  0.00  0.00    +0.005 A 
ATOM     16  C   UNL     1      -3.037   4.620  25.831  0.00  0.00    +0.003 A 
ATOM     17  C   UNL     1      -5.190   3.372  25.848  0.00  0.00    +0.044 C 
ATOM     20  C   UNL     1      -1.086   3.770  24.688  0.00  0.00    +0.000 A 
ATOM     21  C   UNL     1      -1.700   4.757  25.458  0.00  0.00    +0.000 A 
ENDBRANCH   9  11
ENDBRANCH   3   9
TORSDOF 3
ENDMDL
MODEL 5
REMARK VINA RESULT:      -1.9     17.336     19.355
REMARK  Name = 45784180
REMARK  4 active torsions:
REMARK  status: ('A' for Active; 'I' for Inactive)
REMARK    1  A    between atoms: N_3  and  C_9
REMARK    2  A    between atoms: C_5  and  C_10
REMARK    3  A    between atoms: C_9  and  C_11
REMARK    4  A    between atoms: C_12  and  C_17
REMARK                            x       y       z     vdW  Elec       q    Type
REMARK                         _______ _______ _______ _____ _____    ______ ____
ROOT
ATOM      3  N   UNL     1      -3.805   1.684  25.011  0.00  0.00    -0.297 NA
ATOM      5  C   UNL     1      -1.623   2.337  24.453  0.00  0.00    +0.090 C 
ATOM      6  C   UNL     1      -2.413   1.331  25.299  0.00  0.00    +0.097 C 
ATOM      7  C   UNL     1      -2.584   2.731  23.318  0.00  0.00    +0.029 C 
ATOM      8  C   UNL     1      -3.844   1.912  23.566  0.00  0.00    +0.085 C 
ENDROOT
BRANCH   5  10
ATOM      1 CL   UNL     1       5.421   0.181  22.609  0.00  0.00    -0.083 Cl
ATOM      2  O   UNL     1      -0.332   0.768  23.106  0.00  0.00    -0.439 OA
ATOM      4  N   UNL     1       0.918   2.200  24.341  0.00  0.00    -0.213 NA
ATOM     10  C   UNL     1      -0.286   1.800  23.995  0.00  0.00    +0.201 A 
ATOM     13  C   UNL     1       1.745   1.368  23.626  0.00  0.00    +0.111 A 
ATOM     14  C   UNL     1       0.984   0.490  22.869  0.00  0.00    +0.155 A 
ATOM     18  C   UNL     1       3.143   1.285  23.557  0.00  0.00    +0.051 A 
ATOM     19  C   UNL     1       1.503  -0.487  22.029  0.00  0.00    +0.050 A 
ATOM     22  C   UNL     1       3.705   0.311  22.719  0.00  0.00    +0.043 A 
ATOM     23  C   UNL     1       2.899  -0.556  21.971  0.00  0.00    +0.024 A 
ENDBRANCH   5  10
BRANCH   3   9
ATOM      9  C   UNL     1      -4.740   0.652  25.434  0.00  0.00    +0.119 C 
BRANCH   9  11
ATOM     11  C   UNL     1      -4.319  -0.714  24.962  0.00  0.00    -0.030 A 
ATOM     12  C   UNL     1      -3.509  -1.528  25.754  0.00  0.00    -0.046 A 
ATOM     15  C   UNL     1      -4.750  -1.161  23.714  0.00  0.00    +0.005 A 
ATOM     16  C   UNL     1      -3.132  -2.790  25.297  0.00  0.00    +0.003 A 
ATOM     17  C   UNL     1      -3.036  -1.071  27.094  0.00  0.00    +0.044 C 
ATOM     20  C   UNL     1      -4.371  -2.424  23.256  0.00  0.00    +0.000 A 
ATOM     21  C   UNL     1      -3.563  -3.238  24.048  0.00  0.00    +0.000 A 
ENDBRANCH   9  11
ENDBRANCH   3   9
TORSDOF 3
ENDMDL
MODEL 6
REMARK VINA RESULT:      -1.7     16.953     18.005
REMARK  Name = 45784180
REMARK  4 active torsions:
REMARK  status: ('A' for Active; 'I' for Inactive)
REMARK    1  A    between atoms: N_3  and  C_9
REMARK    2  A    between atoms: C_5  and  C_10
REMARK    3  A    between atoms: C_9  and  C_11
REMARK    4  A    between atoms: C_12  and  C_17
REMARK                            x       y       z     vdW  Elec       q    Type
REMARK                         _______ _______ _______ _____ _____    ______ ____
ROOT
ATOM      3  N   UNL     1       0.957  -0.671  23.554  0.00  0.00    -0.297 NA
ATOM      5  C   UNL     1      -0.779   0.039  24.960  0.00  0.00    +0.090 C 
ATOM      6  C   UNL     1       0.464   0.539  24.213  0.00  0.00    +0.097 C 
ATOM      7  C   UNL     1      -1.228  -1.208  24.180  0.00  0.00    +0.029 C 
ATOM      8  C   UNL     1      -0.240  -1.327  23.026  0.00  0.00    +0.085 C 
ENDROOT
BRANCH   5  10
ATOM      1 CL   UNL     1      -6.611   4.878  25.451  0.00  0.00    -0.083 Cl
ATOM      2  O   UNL     1      -1.419   2.289  25.644  0.00  0.00    -0.439 OA
ATOM      4  N   UNL     1      -3.117   1.038  24.814  0.00  0.00    -0.213 NA
ATOM     10  C   UNL     1      -1.840   1.104  25.119  0.00  0.00    +0.201 A 
ATOM     13  C   UNL     1      -3.591   2.280  25.164  0.00  0.00    +0.111 A 
ATOM     14  C   UNL     1      -2.555   3.048  25.673  0.00  0.00    +0.155 A 
ATOM     18  C   UNL     1      -4.875   2.839  25.088  0.00  0.00    +0.051 A 
ATOM     19  C   UNL     1      -2.685   4.356  26.122  0.00  0.00    +0.050 A 
ATOM     22  C   UNL     1      -5.046   4.158  25.532  0.00  0.00    +0.043 A 
ATOM     23  C   UNL     1      -3.972   4.899  26.038  0.00  0.00    +0.024 A 
ENDBRANCH   5  10
BRANCH   3   9
ATOM      9  C   UNL     1       1.933  -0.381  22.514  0.00  0.00    +0.119 C 
BRANCH   9  11
ATOM     11  C   UNL     1       3.341  -0.399  23.045  0.00  0.00    -0.030 A 
ATOM     12  C   UNL     1       4.145   0.740  22.987  0.00  0.00    -0.046 A 
ATOM     15  C   UNL     1       3.841  -1.577  23.600  0.00  0.00    +0.005 A 
ATOM     16  C   UNL     1       5.446   0.700  23.485  0.00  0.00    +0.003 A 
ATOM     17  C   UNL     1       3.632   2.013  22.398  0.00  0.00    +0.044 C 
ATOM     20  C   UNL     1       5.143  -1.617  24.097  0.00  0.00    +0.000 A 
ATOM     21  C   UNL     1       5.945  -0.478  24.041  0.00  0.00    +0.000 A 
ENDBRANCH   9  11
ENDBRANCH   3   9
TORSDOF 3
ENDMDL
MODEL 7
REMARK VINA RESULT:      -1.6     16.554     18.294
REMARK  Name = 45784180
REMARK  4 active torsions:
REMARK  status: ('A' for Active; 'I' for Inactive)
REMARK    1  A    between atoms: N_3  and  C_9
REMARK    2  A    between atoms: C_5  and  C_10
REMARK    3  A    between atoms: C_9  and  C_11
REMARK    4  A    between atoms: C_12  and  C_17
REMARK                            x       y       z     vdW  Elec       q    Type
REMARK                         _______ _______ _______ _____ _____    ______ ____
ROOT
ATOM      3  N   UNL     1      -1.388   1.352  24.226  0.00  0.00    -0.297 NA
ATOM      5  C   UNL     1       0.440   0.391  23.114  0.00  0.00    +0.090 C 
ATOM      6  C   UNL     1      -0.035   1.689  23.780  0.00  0.00    +0.097 C 
ATOM      7  C   UNL     1      -0.398  -0.716  23.778  0.00  0.00    +0.029 C 
ATOM      8  C   UNL     1      -1.273   0.008  24.794  0.00  0.00    +0.085 C 
ENDROOT
BRANCH   5  10
ATOM      1 CL   UNL     1       8.026   0.151  23.349  0.00  0.00    -0.083 Cl
ATOM      2  O   UNL     1       2.352  -1.050  23.572  0.00  0.00    -0.439 OA
ATOM      4  N   UNL     1       2.890   1.069  22.974  0.00  0.00    -0.213 NA
ATOM     10  C   UNL     1       1.936   0.195  23.205  0.00  0.00    +0.201 A 
ATOM     13  C   UNL     1       4.040   0.351  23.206  0.00  0.00    +0.111 A 
ATOM     14  C   UNL     1       3.714  -0.946  23.572  0.00  0.00    +0.155 A 
ATOM     18  C   UNL     1       5.392   0.715  23.131  0.00  0.00    +0.051 A 
ATOM     19  C   UNL     1       4.636  -1.938  23.877  0.00  0.00    +0.050 A 
ATOM     22  C   UNL     1       6.353  -0.260  23.432  0.00  0.00    +0.043 A 
ATOM     23  C   UNL     1       5.981  -1.559  23.797  0.00  0.00    +0.024 A 
ENDBRANCH   5  10
BRANCH   3   9
ATOM      9  C   UNL     1      -1.914   2.314  25.182  0.00  0.00    +0.119 C 
BRANCH   9  11
ATOM     11  C   UNL     1      -3.420   2.308  25.213  0.00  0.00    -0.030 A 
ATOM     12  C   UNL     1      -4.133   3.422  25.654  0.00  0.00    -0.046 A 
ATOM     15  C   UNL     1      -4.101   1.165  24.793  0.00  0.00    +0.005 A 
ATOM     16  C   UNL     1      -5.526   3.394  25.675  0.00  0.00    +0.003 A 
ATOM     17  C   UNL     1      -3.426   4.656  26.109  0.00  0.00    +0.044 C 
ATOM     20  C   UNL     1      -5.495   1.138  24.814  0.00  0.00    +0.000 A 
ATOM     21  C   UNL     1      -6.208   2.252  25.254  0.00  0.00    +0.000 A 
ENDBRANCH   9  11
ENDBRANCH   3   9
TORSDOF 3
ENDMDL
MODEL 8
REMARK VINA RESULT:      -1.3      1.380      2.394
REMARK  Name = 45784180
REMARK  4 active torsions:
REMARK  status: ('A' for Active; 'I' for Inactive)
REMARK    1  A    between atoms: N_3  and  C_9
REMARK    2  A    between atoms: C_5  and  C_10
REMARK    3  A    between atoms: C_9  and  C_11
REMARK    4  A    between atoms: C_12  and  C_17
REMARK                            x       y       z     vdW  Elec       q    Type
REMARK                         _______ _______ _______ _____ _____    ______ ____
ROOT
ATOM      3  N   UNL     1      16.462  -4.568  25.871  0.00  0.00    -0.297 NA
ATOM      5  C   UNL     1      16.641  -5.712  27.911  0.00  0.00    +0.090 C 
ATOM      6  C   UNL     1      15.752  -4.726  27.142  0.00  0.00    +0.097 C 
ATOM      7  C   UNL     1      17.398  -6.487  26.818  0.00  0.00    +0.029 C 
ATOM      8  C   UNL     1      16.878  -5.922  25.502  0.00  0.00    +0.085 C 
ENDROOT
BRANCH   5  10
ATOM      1 CL   UNL     1      12.091  -9.747  32.458  0.00  0.00    -0.083 Cl
ATOM      2  O   UNL     1      16.610  -7.339  29.724  0.00  0.00    -0.439 OA
ATOM      4  N   UNL     1      14.561  -6.683  29.013  0.00  0.00    -0.213 NA
ATOM     10  C   UNL     1      15.864  -6.575  28.878  0.00  0.00    +0.201 A 
ATOM     13  C   UNL     1      14.422  -7.595  30.032  0.00  0.00    +0.111 A 
ATOM     14  C   UNL     1      15.674  -7.999  30.469  0.00  0.00    +0.155 A 
ATOM     18  C   UNL     1      13.283  -8.135  30.645  0.00  0.00    +0.051 A 
ATOM     19  C   UNL     1      15.899  -8.915  31.489  0.00  0.00    +0.050 A 
ATOM     22  C   UNL     1      13.469  -9.064  31.679  0.00  0.00    +0.043 A 
ATOM     23  C   UNL     1      14.752  -9.444  32.091  0.00  0.00    +0.024 A 
ENDBRANCH   5  10
BRANCH   3   9
ATOM      9  C   UNL     1      15.638  -3.944  24.847  0.00  0.00    +0.119 C 
BRANCH   9  11
ATOM     11  C   UNL     1      16.254  -2.671  24.331  0.00  0.00    -0.030 A 
ATOM     12  C   UNL     1      16.827  -2.615  23.061  0.00  0.00    -0.046 A 
ATOM     15  C   UNL     1      16.246  -1.537  25.143  0.00  0.00    +0.005 A 
ATOM     16  C   UNL     1      17.392  -1.425  22.603  0.00  0.00    +0.003 A 
ATOM     17  C   UNL     1      16.847  -3.815  22.173  0.00  0.00    +0.044 C 
ATOM     20  C   UNL     1      16.812  -0.347  24.685  0.00  0.00    +0.000 A 
ATOM     21  C   UNL     1      17.384  -0.291  23.415  0.00  0.00    +0.000 A 
ENDBRANCH   9  11
ENDBRANCH   3   9
TORSDOF 3
ENDMDL
