MODEL 1
REMARK VINA RESULT:      -2.2      0.000      0.000
REMARK  Name = 11882524
REMARK  11 active torsions:
REMARK  status: ('A' for Active; 'I' for Inactive)
REMARK    1  A    between atoms: S_1  and  N_10
REMARK    2  A    between atoms: S_1  and  C_22
REMARK    3  A    between atoms: O_3  and  C_13
REMARK    4  A    between atoms: O_4  and  C_15
REMARK    5  A    between atoms: O_9  and  C_32
REMARK    6  A    between atoms: N_10  and  C_14
REMARK    7  A    between atoms: N_11  and  C_20
REMARK    8  A    between atoms: C_17  and  C_19
REMARK    9  A    between atoms: C_20  and  C_21
REMARK   10  A    between atoms: C_20  and  C_24
REMARK   11  A    between atoms: C_21  and  C_23
REMARK                            x       y       z     vdW  Elec       q    Type
REMARK                         _______ _______ _______ _____ _____    ______ ____
ROOT
ATOM     13  C   UNL     1       0.722   3.186  24.454  0.00  0.00    +0.166 C 
ATOM     14  C   UNL     1       0.234   1.803  23.984  0.00  0.00    +0.131 C 
ATOM     15  C   UNL     1      -0.220   3.783  25.506  0.00  0.00    +0.149 C 
ATOM     16  C   UNL     1      -1.670   3.874  25.001  0.00  0.00    +0.074 C 
ATOM     17  C   UNL     1      -2.086   2.694  24.168  0.00  0.00    +0.015 C 
ATOM     18  C   UNL     1      -1.245   1.755  23.712  0.00  0.00    +0.004 C 
ENDROOT
BRANCH  17  19
ATOM      5  O   UNL     1      -3.967   2.978  22.788  0.00  0.00    -0.271 OA
ATOM     11  N   UNL     1      -4.220   1.887  24.833  0.00  0.00    -0.300 N 
ATOM     19  C   UNL     1      -3.508   2.543  23.845  0.00  0.00    +0.241 C 
ATOM     36  H   UNL     1      -3.753   1.649  25.703  0.00  0.00    +0.150 HD
BRANCH  11  20
ATOM     20  C   UNL     1      -5.639   1.623  24.741  0.00  0.00    +0.163 C 
BRANCH  20  24
ATOM      8  O   UNL     1      -6.793   1.588  26.879  0.00  0.00    -0.274 OA
ATOM     12  N   UNL     1      -6.210   3.620  25.977  0.00  0.00    -0.328 N 
ATOM     24  C   UNL     1      -6.290   2.242  25.968  0.00  0.00    +0.231 C 
ATOM     37  H   UNL     1      -6.593   4.158  26.747  0.00  0.00    +0.145 HD
ATOM     38  H   UNL     1      -5.788   4.147  25.220  0.00  0.00    +0.145 HD
ENDBRANCH  20  24
BRANCH  20  21
ATOM     21  C   UNL     1      -5.945   0.123  24.672  0.00  0.00    +0.067 C 
BRANCH  21  23
ATOM     23  C   UNL     1      -4.701  -0.730  24.720  0.00  0.00    -0.045 A 
ATOM     26  C   UNL     1      -4.495  -1.719  23.758  0.00  0.00    +0.007 A 
ATOM     27  C   UNL     1      -3.756  -0.530  25.727  0.00  0.00    +0.007 A 
ATOM     30  C   UNL     1      -3.345  -2.507  23.804  0.00  0.00    +0.045 A 
ATOM     31  C   UNL     1      -2.607  -1.318  25.772  0.00  0.00    +0.045 A 
ATOM     32  C   UNL     1      -2.401  -2.306  24.810  0.00  0.00    +0.117 A 
BRANCH  32   9
ATOM      9  O   UNL     1      -1.279  -3.074  24.853  0.00  0.00    -0.507 OA
ATOM     39  H   UNL     1      -1.053  -3.352  23.948  0.00  0.00    +0.292 HD
ENDBRANCH  32   9
ENDBRANCH  21  23
ENDBRANCH  20  21
ENDBRANCH  11  20
ENDBRANCH  17  19
BRANCH  13   3
ATOM      3  O   UNL     1       0.789   4.080  23.340  0.00  0.00    -0.387 OA
ATOM     34  H   UNL     1       0.130   4.779  23.486  0.00  0.00    +0.210 HD
ENDBRANCH  13   3
BRANCH  15   4
ATOM      4  O   UNL     1      -0.168   3.015  26.706  0.00  0.00    -0.389 OA
ATOM     35  H   UNL     1      -1.081   2.893  27.018  0.00  0.00    +0.210 HD
ENDBRANCH  15   4
BRANCH  14  10
ATOM     10  N   UNL     1       0.971   1.399  22.761  0.00  0.00    -0.180 NA
ATOM     33  H   UNL     1       1.602   2.111  22.373  0.00  0.00    +0.149 HD
BRANCH  10   1
ATOM      1  S   UNL     1       1.416  -0.244  22.607  0.00  0.00    +0.065 S 
ATOM      6  O   UNL     1       1.395  -0.622  21.207  0.00  0.00    -0.153 OA
ATOM      7  O   UNL     1       0.705  -1.015  23.606  0.00  0.00    -0.153 OA
BRANCH   1  22
ATOM      2  S   UNL     1       4.104   0.974  22.718  0.00  0.00    -0.077 S 
ATOM     22  C   UNL     1       3.131  -0.379  23.112  0.00  0.00    +0.142 A 
ATOM     25  C   UNL     1       3.848  -1.360  23.764  0.00  0.00    +0.036 A 
ATOM     28  C   UNL     1       5.213  -0.995  23.941  0.00  0.00    +0.010 A 
ATOM     29  C   UNL     1       5.489   0.250  23.419  0.00  0.00    +0.047 A 
ENDBRANCH   1  22
ENDBRANCH  10   1
ENDBRANCH  14  10
TORSDOF 11
ENDMDL
MODEL 2
REMARK VINA RESULT:      -0.6      1.773      4.577
REMARK  Name = 11882524
REMARK  11 active torsions:
REMARK  status: ('A' for Active; 'I' for Inactive)
REMARK    1  A    between atoms: S_1  and  N_10
REMARK    2  A    between atoms: S_1  and  C_22
REMARK    3  A    between atoms: O_3  and  C_13
REMARK    4  A    between atoms: O_4  and  C_15
REMARK    5  A    between atoms: O_9  and  C_32
REMARK    6  A    between atoms: N_10  and  C_14
REMARK    7  A    between atoms: N_11  and  C_20
REMARK    8  A    between atoms: C_17  and  C_19
REMARK    9  A    between atoms: C_20  and  C_21
REMARK   10  A    between atoms: C_20  and  C_24
REMARK   11  A    between atoms: C_21  and  C_23
REMARK                            x       y       z     vdW  Elec       q    Type
REMARK                         _______ _______ _______ _____ _____    ______ ____
ROOT
ATOM     13  C   UNL     1      -1.325  -2.475  25.132  0.00  0.00    +0.166 C 
ATOM     14  C   UNL     1      -0.913  -1.468  24.042  0.00  0.00    +0.131 C 
ATOM     15  C   UNL     1      -2.836  -2.737  25.108  0.00  0.00    +0.149 C 
ATOM     16  C   UNL     1      -3.652  -1.441  25.244  0.00  0.00    +0.074 C 
ATOM     17  C   UNL     1      -3.055  -0.279  24.501  0.00  0.00    +0.015 C 
ATOM     18  C   UNL     1      -1.832  -0.280  23.951  0.00  0.00    +0.004 C 
ENDROOT
BRANCH  17  19
ATOM      5  O   UNL     1      -4.887   1.100  25.013  0.00  0.00    -0.271 OA
ATOM     11  N   UNL     1      -3.355   1.807  23.403  0.00  0.00    -0.300 N 
ATOM     19  C   UNL     1      -3.865   0.933  24.346  0.00  0.00    +0.241 C 
ATOM     36  H   UNL     1      -2.551   1.523  22.850  0.00  0.00    +0.150 HD
BRANCH  11  20
ATOM     20  C   UNL     1      -3.982   3.067  23.074  0.00  0.00    +0.163 C 
BRANCH  20  24
ATOM      8  O   UNL     1      -4.370   4.130  20.923  0.00  0.00    -0.274 OA
ATOM     12  N   UNL     1      -2.691   2.569  21.093  0.00  0.00    -0.328 N 
ATOM     24  C   UNL     1      -3.737   3.317  21.594  0.00  0.00    +0.231 C 
ATOM     37  H   UNL     1      -2.412   2.651  20.121  0.00  0.00    +0.145 HD
ATOM     38  H   UNL     1      -2.175   1.905  21.660  0.00  0.00    +0.145 HD
ENDBRANCH  20  24
BRANCH  20  21
ATOM     21  C   UNL     1      -3.427   4.225  23.911  0.00  0.00    +0.067 C 
BRANCH  21  23
ATOM     23  C   UNL     1      -2.243   3.820  24.756  0.00  0.00    -0.045 A 
ATOM     26  C   UNL     1      -0.958   3.845  24.214  0.00  0.00    +0.007 A 
ATOM     27  C   UNL     1      -2.435   3.419  26.078  0.00  0.00    +0.007 A 
ATOM     30  C   UNL     1       0.135   3.471  24.995  0.00  0.00    +0.045 A 
ATOM     31  C   UNL     1      -1.342   3.044  26.858  0.00  0.00    +0.045 A 
ATOM     32  C   UNL     1      -0.057   3.071  26.317  0.00  0.00    +0.117 A 
BRANCH  32   9
ATOM      9  O   UNL     1       1.010   2.705  27.079  0.00  0.00    -0.507 OA
ATOM     39  H   UNL     1       1.776   3.251  26.829  0.00  0.00    +0.292 HD
ENDBRANCH  32   9
ENDBRANCH  21  23
ENDBRANCH  20  21
ENDBRANCH  11  20
ENDBRANCH  17  19
BRANCH  13   3
ATOM      3  O   UNL     1      -0.970  -1.966  26.420  0.00  0.00    -0.387 OA
ATOM     34  H   UNL     1      -0.455  -1.153  26.282  0.00  0.00    +0.210 HD
ENDBRANCH  13   3
BRANCH  15   4
ATOM      4  O   UNL     1      -3.197  -3.418  23.908  0.00  0.00    -0.389 OA
ATOM     35  H   UNL     1      -3.342  -2.746  23.220  0.00  0.00    +0.210 HD
ENDBRANCH  15   4
BRANCH  14  10
ATOM     10  N   UNL     1       0.473  -0.997  24.291  0.00  0.00    -0.180 NA
ATOM     33  H   UNL     1       1.050  -1.618  24.871  0.00  0.00    +0.149 HD
BRANCH  10   1
ATOM      1  S   UNL     1       1.242  -0.101  23.055  0.00  0.00    +0.065 S 
ATOM      6  O   UNL     1       0.990   1.313  23.254  0.00  0.00    -0.153 OA
ATOM      7  O   UNL     1       0.978  -0.741  21.782  0.00  0.00    -0.153 OA
BRANCH   1  22
ATOM      2  S   UNL     1       3.960   0.999  22.704  0.00  0.00    -0.077 S 
ATOM     22  C   UNL     1       3.010  -0.307  23.272  0.00  0.00    +0.142 A 
ATOM     25  C   UNL     1       3.782  -1.314  23.809  0.00  0.00    +0.036 A 
ATOM     28  C   UNL     1       5.173  -1.008  23.753  0.00  0.00    +0.010 A 
ATOM     29  C   UNL     1       5.410   0.220  23.176  0.00  0.00    +0.047 A 
ENDBRANCH   1  22
ENDBRANCH  10   1
ENDBRANCH  14  10
TORSDOF 11
ENDMDL
MODEL 3
REMARK VINA RESULT:      -0.3      1.930      4.317
REMARK  Name = 11882524
REMARK  11 active torsions:
REMARK  status: ('A' for Active; 'I' for Inactive)
REMARK    1  A    between atoms: S_1  and  N_10
REMARK    2  A    between atoms: S_1  and  C_22
REMARK    3  A    between atoms: O_3  and  C_13
REMARK    4  A    between atoms: O_4  and  C_15
REMARK    5  A    between atoms: O_9  and  C_32
REMARK    6  A    between atoms: N_10  and  C_14
REMARK    7  A    between atoms: N_11  and  C_20
REMARK    8  A    between atoms: C_17  and  C_19
REMARK    9  A    between atoms: C_20  and  C_21
REMARK   10  A    between atoms: C_20  and  C_24
REMARK   11  A    between atoms: C_21  and  C_23
REMARK                            x       y       z     vdW  Elec       q    Type
REMARK                         _______ _______ _______ _____ _____    ______ ____
ROOT
ATOM     13  C   UNL     1      -1.218  -1.718  25.153  0.00  0.00    +0.166 C 
ATOM     14  C   UNL     1      -0.590  -1.294  23.813  0.00  0.00    +0.131 C 
ATOM     15  C   UNL     1      -2.722  -1.420  25.186  0.00  0.00    +0.149 C 
ATOM     16  C   UNL     1      -3.025   0.061  24.901  0.00  0.00    +0.074 C 
ATOM     17  C   UNL     1      -2.138   0.659  23.845  0.00  0.00    +0.015 C 
ATOM     18  C   UNL     1      -1.049   0.059  23.343  0.00  0.00    +0.004 C 
ENDROOT
BRANCH  17  19
ATOM      5  O   UNL     1      -2.996   2.092  22.192  0.00  0.00    -0.271 OA
ATOM     11  N   UNL     1      -2.198   3.011  24.181  0.00  0.00    -0.300 N 
ATOM     19  C   UNL     1      -2.493   1.977  23.310  0.00  0.00    +0.241 C 
ATOM     36  H   UNL     1      -1.702   2.804  25.043  0.00  0.00    +0.150 HD
BRANCH  11  20
ATOM     20  C   UNL     1      -2.455   4.400  23.873  0.00  0.00    +0.163 C 
BRANCH  20  24
ATOM      8  O   UNL     1      -2.029   6.334  25.281  0.00  0.00    -0.274 OA
ATOM     12  N   UNL     1      -0.524   4.598  25.314  0.00  0.00    -0.328 N 
ATOM     24  C   UNL     1      -1.667   5.233  24.873  0.00  0.00    +0.231 C 
ATOM     37  H   UNL     1       0.085   5.038  25.995  0.00  0.00    +0.145 HD
ATOM     38  H   UNL     1      -0.240   3.686  24.971  0.00  0.00    +0.145 HD
ENDBRANCH  20  24
BRANCH  20  21
ATOM     21  C   UNL     1      -3.947   4.743  23.949  0.00  0.00    +0.067 C 
BRANCH  21  23
ATOM     23  C   UNL     1      -4.729   3.764  24.790  0.00  0.00    -0.045 A 
ATOM     26  C   UNL     1      -4.684   3.847  26.182  0.00  0.00    +0.007 A 
ATOM     27  C   UNL     1      -5.496   2.774  24.176  0.00  0.00    +0.007 A 
ATOM     30  C   UNL     1      -5.407   2.942  26.958  0.00  0.00    +0.045 A 
ATOM     31  C   UNL     1      -6.218   1.869  24.952  0.00  0.00    +0.045 A 
ATOM     32  C   UNL     1      -6.174   1.953  26.344  0.00  0.00    +0.117 A 
BRANCH  32   9
ATOM      9  O   UNL     1      -6.880   1.071  27.102  0.00  0.00    -0.507 OA
ATOM     39  H   UNL     1      -6.308   0.312  27.315  0.00  0.00    +0.292 HD
ENDBRANCH  32   9
ENDBRANCH  21  23
ENDBRANCH  20  21
ENDBRANCH  11  20
ENDBRANCH  17  19
BRANCH  13   3
ATOM      3  O   UNL     1      -0.589  -1.015  26.227  0.00  0.00    -0.387 OA
ATOM     34  H   UNL     1      -0.404  -0.112  25.916  0.00  0.00    +0.210 HD
ENDBRANCH  13   3
BRANCH  15   4
ATOM      4  O   UNL     1      -3.408  -2.248  24.249  0.00  0.00    -0.389 OA
ATOM     35  H   UNL     1      -3.031  -3.142  24.315  0.00  0.00    +0.210 HD
ENDBRANCH  15   4
BRANCH  14  10
ATOM     10  N   UNL     1       0.889  -1.298  23.927  0.00  0.00    -0.180 NA
ATOM     33  H   UNL     1       1.317  -2.222  24.064  0.00  0.00    +0.149 HD
BRANCH  10   1
ATOM      1  S   UNL     1       1.759  -0.131  23.030  0.00  0.00    +0.065 S 
ATOM      6  O   UNL     1       1.472   1.191  23.550  0.00  0.00    -0.153 OA
ATOM      7  O   UNL     1       1.623  -0.432  21.619  0.00  0.00    -0.153 OA
BRANCH   1  22
ATOM      2  S   UNL     1       4.528   0.883  22.887  0.00  0.00    -0.077 S 
ATOM     22  C   UNL     1       3.502  -0.405  23.353  0.00  0.00    +0.142 A 
ATOM     25  C   UNL     1       4.204  -1.453  23.907  0.00  0.00    +0.036 A 
ATOM     28  C   UNL     1       5.604  -1.194  23.950  0.00  0.00    +0.010 A 
ATOM     29  C   UNL     1       5.919   0.041  23.427  0.00  0.00    +0.047 A 
ENDBRANCH   1  22
ENDBRANCH  10   1
ENDBRANCH  14  10
TORSDOF 11
ENDMDL
MODEL 4
REMARK VINA RESULT:      -0.2      1.588      4.258
REMARK  Name = 11882524
REMARK  11 active torsions:
REMARK  status: ('A' for Active; 'I' for Inactive)
REMARK    1  A    between atoms: S_1  and  N_10
REMARK    2  A    between atoms: S_1  and  C_22
REMARK    3  A    between atoms: O_3  and  C_13
REMARK    4  A    between atoms: O_4  and  C_15
REMARK    5  A    between atoms: O_9  and  C_32
REMARK    6  A    between atoms: N_10  and  C_14
REMARK    7  A    between atoms: N_11  and  C_20
REMARK    8  A    between atoms: C_17  and  C_19
REMARK    9  A    between atoms: C_20  and  C_21
REMARK   10  A    between atoms: C_20  and  C_24
REMARK   11  A    between atoms: C_21  and  C_23
REMARK                            x       y       z     vdW  Elec       q    Type
REMARK                         _______ _______ _______ _____ _____    ______ ____
ROOT
ATOM     13  C   UNL     1      -0.824  -2.118  25.136  0.00  0.00    +0.166 C 
ATOM     14  C   UNL     1      -0.712  -0.937  24.154  0.00  0.00    +0.131 C 
ATOM     15  C   UNL     1      -2.233  -2.723  25.125  0.00  0.00    +0.149 C 
ATOM     16  C   UNL     1      -3.316  -1.674  25.427  0.00  0.00    +0.074 C 
ATOM     17  C   UNL     1      -3.043  -0.335  24.802  0.00  0.00    +0.015 C 
ATOM     18  C   UNL     1      -1.883   0.006  24.221  0.00  0.00    +0.004 C 
ENDROOT
BRANCH  17  19
ATOM      5  O   UNL     1      -4.958   0.692  23.908  0.00  0.00    -0.271 OA
ATOM     11  N   UNL     1      -4.055   1.517  25.893  0.00  0.00    -0.300 N 
ATOM     19  C   UNL     1      -4.117   0.663  24.807  0.00  0.00    +0.241 C 
ATOM     36  H   UNL     1      -3.264   1.454  26.527  0.00  0.00    +0.150 HD
BRANCH  11  20
ATOM     20  C   UNL     1      -5.005   2.585  26.113  0.00  0.00    +0.163 C 
BRANCH  20  24
ATOM      8  O   UNL     1      -6.956   1.924  24.823  0.00  0.00    -0.274 OA
ATOM     12  N   UNL     1      -6.937   1.505  27.083  0.00  0.00    -0.328 N 
ATOM     24  C   UNL     1      -6.394   1.996  25.914  0.00  0.00    +0.231 C 
ATOM     37  H   UNL     1      -7.855   1.072  27.088  0.00  0.00    +0.145 HD
ATOM     38  H   UNL     1      -6.460   1.568  27.976  0.00  0.00    +0.145 HD
ENDBRANCH  20  24
BRANCH  20  21
ATOM     21  C   UNL     1      -4.781   3.762  25.157  0.00  0.00    +0.067 C 
BRANCH  21  23
ATOM     23  C   UNL     1      -3.340   3.904  24.733  0.00  0.00    -0.045 A 
ATOM     26  C   UNL     1      -2.448   4.629  25.524  0.00  0.00    +0.007 A 
ATOM     27  C   UNL     1      -2.900   3.312  23.549  0.00  0.00    +0.007 A 
ATOM     30  C   UNL     1      -1.116   4.760  25.131  0.00  0.00    +0.045 A 
ATOM     31  C   UNL     1      -1.568   3.444  23.156  0.00  0.00    +0.045 A 
ATOM     32  C   UNL     1      -0.676   4.167  23.947  0.00  0.00    +0.117 A 
BRANCH  32   9
ATOM      9  O   UNL     1       0.623   4.295  23.565  0.00  0.00    -0.507 OA
ATOM     39  H   UNL     1       0.802   3.669  22.843  0.00  0.00    +0.292 HD
ENDBRANCH  32   9
ENDBRANCH  21  23
ENDBRANCH  20  21
ENDBRANCH  11  20
ENDBRANCH  17  19
BRANCH  13   3
ATOM      3  O   UNL     1      -0.527  -1.674  26.462  0.00  0.00    -0.387 OA
ATOM     34  H   UNL     1      -0.138  -0.786  26.393  0.00  0.00    +0.210 HD
ENDBRANCH  13   3
BRANCH  15   4
ATOM      4  O   UNL     1      -2.492  -3.343  23.867  0.00  0.00    -0.389 OA
ATOM     35  H   UNL     1      -3.122  -4.068  24.020  0.00  0.00    +0.210 HD
ENDBRANCH  15   4
BRANCH  14  10
ATOM     10  N   UNL     1       0.539  -0.183  24.414  0.00  0.00    -0.180 NA
ATOM     33  H   UNL     1       1.049  -0.457  25.263  0.00  0.00    +0.149 HD
BRANCH  10   1
ATOM      1  S   UNL     1       1.446   0.344  23.064  0.00  0.00    +0.065 S 
ATOM      6  O   UNL     1       1.497   1.793  23.052  0.00  0.00    -0.153 OA
ATOM      7  O   UNL     1       1.023  -0.406  21.898  0.00  0.00    -0.153 OA
BRANCH   1  22
ATOM      2  S   UNL     1       4.329   0.937  22.832  0.00  0.00    -0.077 S 
ATOM     22  C   UNL     1       3.138  -0.192  23.319  0.00  0.00    +0.142 A 
ATOM     25  C   UNL     1       3.695  -1.342  23.835  0.00  0.00    +0.036 A 
ATOM     28  C   UNL     1       5.119  -1.295  23.830  0.00  0.00    +0.010 A 
ATOM     29  C   UNL     1       5.596  -0.112  23.310  0.00  0.00    +0.047 A 
ENDBRANCH   1  22
ENDBRANCH  10   1
ENDBRANCH  14  10
TORSDOF 11
ENDMDL
MODEL 5
REMARK VINA RESULT:       0.5      2.651      7.530
REMARK  Name = 11882524
REMARK  11 active torsions:
REMARK  status: ('A' for Active; 'I' for Inactive)
REMARK    1  A    between atoms: S_1  and  N_10
REMARK    2  A    between atoms: S_1  and  C_22
REMARK    3  A    between atoms: O_3  and  C_13
REMARK    4  A    between atoms: O_4  and  C_15
REMARK    5  A    between atoms: O_9  and  C_32
REMARK    6  A    between atoms: N_10  and  C_14
REMARK    7  A    between atoms: N_11  and  C_20
REMARK    8  A    between atoms: C_17  and  C_19
REMARK    9  A    between atoms: C_20  and  C_21
REMARK   10  A    between atoms: C_20  and  C_24
REMARK   11  A    between atoms: C_21  and  C_23
REMARK                            x       y       z     vdW  Elec       q    Type
REMARK                         _______ _______ _______ _____ _____    ______ ____
ROOT
ATOM     13  C   UNL     1      -4.538  -2.256  24.222  0.00  0.00    +0.166 C 
ATOM     14  C   UNL     1      -4.318  -0.898  24.915  0.00  0.00    +0.131 C 
ATOM     15  C   UNL     1      -3.479  -3.279  24.647  0.00  0.00    +0.149 C 
ATOM     16  C   UNL     1      -2.049  -2.776  24.388  0.00  0.00    +0.074 C 
ATOM     17  C   UNL     1      -1.871  -1.311  24.676  0.00  0.00    +0.015 C 
ATOM     18  C   UNL     1      -2.879  -0.460  24.921  0.00  0.00    +0.004 C 
ENDROOT
BRANCH  17  19
ATOM      5  O   UNL     1       0.444  -1.484  25.036  0.00  0.00    -0.271 OA
ATOM     11  N   UNL     1      -0.444   0.561  24.352  0.00  0.00    -0.300 N 
ATOM     19  C   UNL     1      -0.508  -0.774  24.711  0.00  0.00    +0.241 C 
ATOM     36  H   UNL     1      -1.307   1.070  24.187  0.00  0.00    +0.150 HD
BRANCH  11  20
ATOM     20  C   UNL     1       0.792   1.310  24.315  0.00  0.00    +0.163 C 
BRANCH  20  24
ATOM      8  O   UNL     1       0.197   3.557  23.606  0.00  0.00    -0.274 OA
ATOM     12  N   UNL     1       0.357   3.119  25.856  0.00  0.00    -0.328 N 
ATOM     24  C   UNL     1       0.435   2.774  24.523  0.00  0.00    +0.231 C 
ATOM     37  H   UNL     1       0.112   4.064  26.135  0.00  0.00    +0.145 HD
ATOM     38  H   UNL     1       0.552   2.461  26.603  0.00  0.00    +0.145 HD
ENDBRANCH  20  24
BRANCH  20  21
ATOM     21  C   UNL     1       1.540   1.125  22.990  0.00  0.00    +0.067 C 
BRANCH  21  23
ATOM     23  C   UNL     1       2.927   0.558  23.177  0.00  0.00    -0.045 A 
ATOM     26  C   UNL     1       3.092  -0.792  23.488  0.00  0.00    +0.007 A 
ATOM     27  C   UNL     1       4.042   1.384  23.039  0.00  0.00    +0.007 A 
ATOM     30  C   UNL     1       4.374  -1.315  23.661  0.00  0.00    +0.045 A 
ATOM     31  C   UNL     1       5.323   0.860  23.211  0.00  0.00    +0.045 A 
ATOM     32  C   UNL     1       5.489  -0.489  23.522  0.00  0.00    +0.117 A 
BRANCH  32   9
ATOM      9  O   UNL     1       6.739  -1.000  23.690  0.00  0.00    -0.507 OA
ATOM     39  H   UNL     1       7.217  -0.456  24.340  0.00  0.00    +0.292 HD
ENDBRANCH  32   9
ENDBRANCH  21  23
ENDBRANCH  20  21
ENDBRANCH  11  20
ENDBRANCH  17  19
BRANCH  13   3
ATOM      3  O   UNL     1      -4.472  -2.091  22.803  0.00  0.00    -0.387 OA
ATOM     34  H   UNL     1      -3.642  -1.626  22.601  0.00  0.00    +0.210 HD
ENDBRANCH  13   3
BRANCH  15   4
ATOM      4  O   UNL     1      -3.639  -3.609  26.025  0.00  0.00    -0.389 OA
ATOM     35  H   UNL     1      -3.130  -2.963  26.543  0.00  0.00    +0.210 HD
ENDBRANCH  15   4
BRANCH  14  10
ATOM     10  N   UNL     1      -5.144   0.143  24.256  0.00  0.00    -0.180 NA
ATOM     33  H   UNL     1      -5.715  -0.183  23.467  0.00  0.00    +0.149 HD
BRANCH  10   1
ATOM      1  S   UNL     1      -5.762   1.404  25.232  0.00  0.00    +0.065 S 
ATOM      6  O   UNL     1      -5.889   0.938  26.599  0.00  0.00    -0.153 OA
ATOM      7  O   UNL     1      -6.874   2.025  24.541  0.00  0.00    -0.153 OA
BRANCH   1  22
ATOM      2  S   UNL     1      -3.758   3.014  23.781  0.00  0.00    -0.077 S 
ATOM     22  C   UNL     1      -4.520   2.695  25.280  0.00  0.00    +0.142 A 
ATOM     25  C   UNL     1      -4.038   3.502  26.288  0.00  0.00    +0.036 A 
ATOM     28  C   UNL     1      -3.030   4.395  25.823  0.00  0.00    +0.010 A 
ATOM     29  C   UNL     1      -2.779   4.235  24.477  0.00  0.00    +0.047 A 
ENDBRANCH   1  22
ENDBRANCH  10   1
ENDBRANCH  14  10
TORSDOF 11
ENDMDL
MODEL 6
REMARK VINA RESULT:       1.2      2.597      5.621
REMARK  Name = 11882524
REMARK  11 active torsions:
REMARK  status: ('A' for Active; 'I' for Inactive)
REMARK    1  A    between atoms: S_1  and  N_10
REMARK    2  A    between atoms: S_1  and  C_22
REMARK    3  A    between atoms: O_3  and  C_13
REMARK    4  A    between atoms: O_4  and  C_15
REMARK    5  A    between atoms: O_9  and  C_32
REMARK    6  A    between atoms: N_10  and  C_14
REMARK    7  A    between atoms: N_11  and  C_20
REMARK    8  A    between atoms: C_17  and  C_19
REMARK    9  A    between atoms: C_20  and  C_21
REMARK   10  A    between atoms: C_20  and  C_24
REMARK   11  A    between atoms: C_21  and  C_23
REMARK                            x       y       z     vdW  Elec       q    Type
REMARK                         _______ _______ _______ _____ _____    ______ ____
ROOT
ATOM     13  C   UNL     1       2.185   0.852  22.985  0.00  0.00    +0.166 C 
ATOM     14  C   UNL     1       0.853   1.481  23.434  0.00  0.00    +0.131 C 
ATOM     15  C   UNL     1       1.953  -0.440  22.192  0.00  0.00    +0.149 C 
ATOM     16  C   UNL     1       1.120  -1.463  22.982  0.00  0.00    +0.074 C 
ATOM     17  C   UNL     1       0.015  -0.839  23.787  0.00  0.00    +0.015 C 
ATOM     18  C   UNL     1      -0.121   0.479  23.991  0.00  0.00    +0.004 C 
ENDROOT
BRANCH  17  19
ATOM      5  O   UNL     1      -0.790  -2.932  24.490  0.00  0.00    -0.271 OA
ATOM     11  N   UNL     1      -2.143  -1.052  24.759  0.00  0.00    -0.300 N 
ATOM     19  C   UNL     1      -0.996  -1.723  24.376  0.00  0.00    +0.241 C 
ATOM     36  H   UNL     1      -2.236  -0.065  24.535  0.00  0.00    +0.150 HD
BRANCH  11  20
ATOM     20  C   UNL     1      -3.280  -1.711  25.360  0.00  0.00    +0.163 C 
BRANCH  20  24
ATOM      8  O   UNL     1      -4.627  -2.207  23.399  0.00  0.00    -0.274 OA
ATOM     12  N   UNL     1      -3.488  -3.925  24.414  0.00  0.00    -0.328 N 
ATOM     24  C   UNL     1      -3.890  -2.611  24.296  0.00  0.00    +0.231 C 
ATOM     37  H   UNL     1      -3.811  -4.629  23.758  0.00  0.00    +0.145 HD
ATOM     38  H   UNL     1      -2.876  -4.244  25.158  0.00  0.00    +0.145 HD
ENDBRANCH  20  24
BRANCH  20  21
ATOM     21  C   UNL     1      -4.322  -0.712  25.877  0.00  0.00    +0.067 C 
BRANCH  21  23
ATOM     23  C   UNL     1      -4.322   0.584  25.103  0.00  0.00    -0.045 A 
ATOM     26  C   UNL     1      -5.283   1.557  25.373  0.00  0.00    +0.007 A 
ATOM     27  C   UNL     1      -3.361   0.806  24.116  0.00  0.00    +0.007 A 
ATOM     30  C   UNL     1      -5.282   2.755  24.658  0.00  0.00    +0.045 A 
ATOM     31  C   UNL     1      -3.361   2.003  23.401  0.00  0.00    +0.045 A 
ATOM     32  C   UNL     1      -4.321   2.978  23.672  0.00  0.00    +0.117 A 
BRANCH  32   9
ATOM      9  O   UNL     1      -4.321   4.146  22.974  0.00  0.00    -0.507 OA
ATOM     39  H   UNL     1      -3.401   4.409  22.802  0.00  0.00    +0.292 HD
ENDBRANCH  32   9
ENDBRANCH  21  23
ENDBRANCH  20  21
ENDBRANCH  11  20
ENDBRANCH  17  19
BRANCH  13   3
ATOM      3  O   UNL     1       2.987   0.549  24.129  0.00  0.00    -0.387 OA
ATOM     34  H   UNL     1       2.706  -0.320  24.462  0.00  0.00    +0.210 HD
ENDBRANCH  13   3
BRANCH  15   4
ATOM      4  O   UNL     1       1.317  -0.147  20.950  0.00  0.00    -0.389 OA
ATOM     35  H   UNL     1       1.735  -0.700  20.268  0.00  0.00    +0.210 HD
ENDBRANCH  15   4
BRANCH  14  10
ATOM     10  N   UNL     1       1.111   2.532  24.450  0.00  0.00    -0.180 NA
ATOM     33  H   UNL     1       1.337   3.461  24.074  0.00  0.00    +0.149 HD
BRANCH  10   1
ATOM      1  S   UNL     1       0.242   2.445  25.921  0.00  0.00    +0.065 S 
ATOM      6  O   UNL     1       1.097   2.870  27.012  0.00  0.00    -0.153 OA
ATOM      7  O   UNL     1      -0.470   1.184  25.968  0.00  0.00    -0.153 OA
BRANCH   1  22
ATOM      2  S   UNL     1      -0.766   4.969  24.766  0.00  0.00    -0.077 S 
ATOM     22  C   UNL     1      -1.067   3.667  25.836  0.00  0.00    +0.142 A 
ATOM     25  C   UNL     1      -2.289   3.783  26.463  0.00  0.00    +0.036 A 
ATOM     28  C   UNL     1      -2.988   4.957  26.058  0.00  0.00    +0.010 A 
ATOM     29  C   UNL     1      -2.273   5.694  25.138  0.00  0.00    +0.047 A 
ENDBRANCH   1  22
ENDBRANCH  10   1
ENDBRANCH  14  10
TORSDOF 11
ENDMDL
MODEL 7
REMARK VINA RESULT:       1.7      3.162      7.574
REMARK  Name = 11882524
REMARK  11 active torsions:
REMARK  status: ('A' for Active; 'I' for Inactive)
REMARK    1  A    between atoms: S_1  and  N_10
REMARK    2  A    between atoms: S_1  and  C_22
REMARK    3  A    between atoms: O_3  and  C_13
REMARK    4  A    between atoms: O_4  and  C_15
REMARK    5  A    between atoms: O_9  and  C_32
REMARK    6  A    between atoms: N_10  and  C_14
REMARK    7  A    between atoms: N_11  and  C_20
REMARK    8  A    between atoms: C_17  and  C_19
REMARK    9  A    between atoms: C_20  and  C_21
REMARK   10  A    between atoms: C_20  and  C_24
REMARK   11  A    between atoms: C_21  and  C_23
REMARK                            x       y       z     vdW  Elec       q    Type
REMARK                         _______ _______ _______ _____ _____    ______ ____
ROOT
ATOM     13  C   UNL     1      -4.376  -2.428  24.392  0.00  0.00    +0.166 C 
ATOM     14  C   UNL     1      -4.132  -0.978  24.852  0.00  0.00    +0.131 C 
ATOM     15  C   UNL     1      -3.219  -3.347  24.804  0.00  0.00    +0.149 C 
ATOM     16  C   UNL     1      -1.864  -2.843  24.281  0.00  0.00    +0.074 C 
ATOM     17  C   UNL     1      -1.722  -1.347  24.334  0.00  0.00    +0.015 C 
ATOM     18  C   UNL     1      -2.729  -0.501  24.596  0.00  0.00    +0.004 C 
ENDROOT
BRANCH  17  19
ATOM      5  O   UNL     1       0.603  -1.238  24.651  0.00  0.00    -0.271 OA
ATOM     11  N   UNL     1      -0.419   0.311  23.240  0.00  0.00    -0.300 N 
ATOM     19  C   UNL     1      -0.395  -0.770  24.103  0.00  0.00    +0.241 C 
ATOM     36  H   UNL     1      -1.314   0.665  22.916  0.00  0.00    +0.150 HD
BRANCH  11  20
ATOM     20  C   UNL     1       0.767   1.047  22.863  0.00  0.00    +0.163 C 
BRANCH  20  24
ATOM      8  O   UNL     1       2.869  -0.169  22.962  0.00  0.00    -0.274 OA
ATOM     12  N   UNL     1       1.375  -0.688  21.295  0.00  0.00    -0.328 N 
ATOM     24  C   UNL     1       1.796   0.028  22.395  0.00  0.00    +0.231 C 
ATOM     37  H   UNL     1       1.961  -1.411  20.890  0.00  0.00    +0.145 HD
ATOM     38  H   UNL     1       0.485  -0.518  20.840  0.00  0.00    +0.145 HD
ENDBRANCH  20  24
BRANCH  20  21
ATOM     21  C   UNL     1       1.326   1.877  24.024  0.00  0.00    +0.067 C 
BRANCH  21  23
ATOM     23  C   UNL     1       0.252   2.621  24.779  0.00  0.00    -0.045 A 
ATOM     26  C   UNL     1      -0.389   2.015  25.860  0.00  0.00    +0.007 A 
ATOM     27  C   UNL     1      -0.102   3.915  24.395  0.00  0.00    +0.007 A 
ATOM     30  C   UNL     1      -1.381   2.704  26.557  0.00  0.00    +0.045 A 
ATOM     31  C   UNL     1      -1.094   4.603  25.092  0.00  0.00    +0.045 A 
ATOM     32  C   UNL     1      -1.733   3.998  26.173  0.00  0.00    +0.117 A 
BRANCH  32   9
ATOM      9  O   UNL     1      -2.702   4.669  26.854  0.00  0.00    -0.507 OA
ATOM     39  H   UNL     1      -3.300   5.093  26.215  0.00  0.00    +0.292 HD
ENDBRANCH  32   9
ENDBRANCH  21  23
ENDBRANCH  20  21
ENDBRANCH  11  20
ENDBRANCH  17  19
BRANCH  13   3
ATOM      3  O   UNL     1      -4.507  -2.468  22.969  0.00  0.00    -0.387 OA
ATOM     34  H   UNL     1      -5.071  -3.229  22.749  0.00  0.00    +0.210 HD
ENDBRANCH  13   3
BRANCH  15   4
ATOM      4  O   UNL     1      -3.177  -3.477  26.224  0.00  0.00    -0.389 OA
ATOM     35  H   UNL     1      -3.839  -4.143  26.478  0.00  0.00    +0.210 HD
ENDBRANCH  15   4
BRANCH  14  10
ATOM     10  N   UNL     1      -5.091  -0.069  24.176  0.00  0.00    -0.180 NA
ATOM     33  H   UNL     1      -5.721  -0.518  23.500  0.00  0.00    +0.149 HD
BRANCH  10   1
ATOM      1  S   UNL     1      -5.680   1.268  25.064  0.00  0.00    +0.065 S 
ATOM      6  O   UNL     1      -5.231   1.171  26.439  0.00  0.00    -0.153 OA
ATOM      7  O   UNL     1      -7.080   1.462  24.740  0.00  0.00    -0.153 OA
BRANCH   1  22
ATOM      2  S   UNL     1      -5.392   4.206  25.119  0.00  0.00    -0.077 S 
ATOM     22  C   UNL     1      -4.888   2.735  24.404  0.00  0.00    +0.142 A 
ATOM     25  C   UNL     1      -3.940   2.933  23.424  0.00  0.00    +0.036 A 
ATOM     28  C   UNL     1      -3.623   4.313  23.258  0.00  0.00    +0.010 A 
ATOM     29  C   UNL     1      -4.341   5.115  24.117  0.00  0.00    +0.047 A 
ENDBRANCH   1  22
ENDBRANCH  10   1
ENDBRANCH  14  10
TORSDOF 11
ENDMDL
