MODEL 1
REMARK VINA RESULT:      10.6      0.000      0.000
REMARK  Name = 44716813
REMARK  7 active torsions:
REMARK  status: ('A' for Active; 'I' for Inactive)
REMARK    1  A    between atoms: N_4  and  C_12
REMARK    2  A    between atoms: N_5  and  C_13
REMARK    3  A    between atoms: N_6  and  C_18
REMARK    4  A    between atoms: N_9  and  C_35
REMARK    5  A    between atoms: N_9  and  C_37
REMARK    6  A    between atoms: N_9  and  C_38
REMARK    7  A    between atoms: C_19  and  C_23
REMARK                            x       y       z     vdW  Elec       q    Type
REMARK                         _______ _______ _______ _____ _____    ______ ____
ROOT
ATOM      1  O   UNL     1      -4.601  -1.607  23.520  0.00  0.00    -0.370 OA
ATOM      2  O   UNL     1      -3.279  -1.202  26.317  0.00  0.00    -0.370 OA
ATOM     10  C   UNL     1      -3.428  -0.353  25.167  0.00  0.00    +0.171 C 
ATOM     11  C   UNL     1      -3.279  -1.230  23.939  0.00  0.00    +0.171 C 
ATOM     12  C   UNL     1      -4.842   0.168  25.080  0.00  0.00    +0.130 C 
ATOM     13  C   UNL     1      -2.520  -2.439  24.439  0.00  0.00    +0.131 C 
ATOM     14  C   UNL     1      -5.566  -0.953  24.357  0.00  0.00    +0.185 C 
ATOM     15  C   UNL     1      -2.984  -2.537  25.882  0.00  0.00    +0.185 C 
ENDROOT
BRANCH  12   4
ATOM      4  N   UNL     1      -4.877   1.378  24.288  0.00  0.00    -0.306 N 
ATOM      7  N   UNL     1      -2.961   2.212  25.304  0.00  0.00    -0.214 NA
ATOM      8  N   UNL     1      -4.111   3.456  23.591  0.00  0.00    -0.223 NA
ATOM     16  C   UNL     1      -3.942   2.393  24.399  0.00  0.00    +0.216 A 
ATOM     19  C   UNL     1      -2.067   3.219  25.384  0.00  0.00    +0.076 A 
ATOM     20  C   UNL     1      -3.182   4.426  23.723  0.00  0.00    +0.116 A 
ATOM     21  C   UNL     1      -2.127   4.361  24.612  0.00  0.00    +0.048 A 
ATOM     39  H   UNL     1      -5.586   1.485  23.571  0.00  0.00    +0.149 HD
BRANCH  19  23
ATOM     23  C   UNL     1      -1.014   3.028  26.351  0.00  0.00    +0.001 A 
ATOM     29  C   UNL     1       0.297   2.816  25.922  0.00  0.00    +0.012 A 
ATOM     30  C   UNL     1      -1.305   3.054  27.715  0.00  0.00    +0.012 A 
ATOM     33  C   UNL     1       1.316   2.632  26.858  0.00  0.00    +0.024 A 
ATOM     34  C   UNL     1      -0.287   2.869  28.650  0.00  0.00    +0.024 A 
ATOM     35  C   UNL     1       1.023   2.658  28.222  0.00  0.00    +0.029 A 
BRANCH  35   9
ATOM      9  N   UNL     1       2.053   2.471  29.167  0.00  0.00    -0.336 N 
ATOM     37  C   UNL     1       3.421   2.829  28.845  0.00  0.00    +0.129 C 
ATOM     38  C   UNL     1       1.757   1.925  30.477  0.00  0.00    +0.129 C 
ENDBRANCH  35   9
ENDBRANCH  19  23
ENDBRANCH  12   4
BRANCH  13   5
ATOM      3  O   UNL     1      -1.183  -0.064  23.561  0.00  0.00    -0.252 OA
ATOM      5  N   UNL     1      -1.095  -2.231  24.359  0.00  0.00    -0.292 N 
ATOM      6  N   UNL     1       0.875  -1.125  23.947  0.00  0.00    -0.269 N 
ATOM     17  C   UNL     1      -0.519  -1.034  23.917  0.00  0.00    +0.304 C 
ATOM     40  H   UNL     1      -0.482  -2.964  24.702  0.00  0.00    +0.151 HD
ATOM     41  H   UNL     1       1.236  -2.013  24.273  0.00  0.00    +0.156 HD
BRANCH   6  18
ATOM     18  C   UNL     1       1.817  -0.136  23.581  0.00  0.00    +0.042 A 
ATOM     22  C   UNL     1       3.197  -0.396  23.569  0.00  0.00    +0.003 A 
ATOM     24  C   UNL     1       1.327   1.122  23.227  0.00  0.00    +0.024 A 
ATOM     25  C   UNL     1       4.093   0.633  23.193  0.00  0.00    -0.016 A 
ATOM     26  C   UNL     1       2.208   2.134  22.857  0.00  0.00    +0.002 A 
ATOM     27  C   UNL     1       3.708  -1.656  23.922  0.00  0.00    +0.010 A 
ATOM     28  C   UNL     1       3.583   1.893  22.840  0.00  0.00    +0.008 A 
ATOM     31  C   UNL     1       5.472   0.373  23.182  0.00  0.00    +0.008 A 
ATOM     32  C   UNL     1       5.082  -1.898  23.905  0.00  0.00    +0.001 A 
ATOM     36  C   UNL     1       5.962  -0.886  23.536  0.00  0.00    +0.001 A 
ENDBRANCH   6  18
ENDBRANCH  13   5
TORSDOF 5
ENDMDL
