MODEL 1
REMARK VINA RESULT:      13.0      0.000      0.000
REMARK  Name = 11879504
REMARK  10 active torsions:
REMARK  status: ('A' for Active; 'I' for Inactive)
REMARK    1  A    between atoms: O_2  and  C_15
REMARK    2  A    between atoms: O_3  and  C_20
REMARK    3  A    between atoms: N_7  and  C_28
REMARK    4  A    between atoms: C_10  and  C_18
REMARK    5  A    between atoms: C_12  and  C_20
REMARK    6  A    between atoms: C_12  and  C_21
REMARK    7  A    between atoms: C_13  and  C_23
REMARK    8  A    between atoms: C_23  and  C_24
REMARK    9  A    between atoms: C_26  and  C_27
REMARK   10  A    between atoms: C_28  and  C_34
REMARK                            x       y       z     vdW  Elec       q    Type
REMARK                         _______ _______ _______ _____ _____    ______ ____
ROOT
ATOM      1  S   UNL     1       0.355   2.054  25.598  0.00  0.00    -0.057 S 
ATOM      5  O   UNL     1       1.602   0.014  21.590  0.00  0.00    -0.275 OA
ATOM      6  N   UNL     1      -0.467   1.368  23.243  0.00  0.00    -0.229 NA
ATOM      8  N   UNL     1       1.818   0.836  23.796  0.00  0.00    -0.264 N 
ATOM     10  C   UNL     1      -4.000   2.507  24.286  0.00  0.00    -0.019 C 
ATOM     11  C   UNL     1      -3.435   3.630  25.264  0.00  0.00    +0.011 C 
ATOM     12  C   UNL     1      -4.488   4.419  26.133  0.00  0.00    +0.021 C 
ATOM     13  C   UNL     1      -2.860   2.164  23.219  0.00  0.00    +0.054 C 
ATOM     14  C   UNL     1      -5.232   3.061  23.524  0.00  0.00    +0.010 C 
ATOM     15  C   UNL     1      -5.674   4.858  25.227  0.00  0.00    +0.123 C 
ATOM     16  C   UNL     1      -2.212   3.112  26.077  0.00  0.00    +0.049 C 
ATOM     17  C   UNL     1      -6.273   3.710  24.424  0.00  0.00    +0.032 C 
ATOM     18  C   UNL     1      -4.415   1.214  25.030  0.00  0.00    +0.012 C 
ATOM     19  C   UNL     1      -1.526   1.972  23.894  0.00  0.00    +0.058 A 
ATOM     21  C   UNL     1      -3.824   5.712  26.685  0.00  0.00    +0.016 C 
ATOM     22  C   UNL     1      -1.252   2.421  25.170  0.00  0.00    +0.015 A 
ATOM     25  C   UNL     1       0.574   1.350  24.047  0.00  0.00    +0.165 A 
ATOM     26  C   UNL     1       2.249   0.213  22.612  0.00  0.00    +0.222 C 
ATOM     42  H   UNL     1       2.477   0.923  24.564  0.00  0.00    +0.157 HD
ENDROOT
BRANCH  26  27
ATOM     27  C   UNL     1       3.682  -0.221  22.703  0.00  0.00    +0.075 C 
ATOM     29  C   UNL     1       4.558   0.957  23.138  0.00  0.00    +0.013 C 
ATOM     30  C   UNL     1       3.810  -1.401  23.668  0.00  0.00    +0.013 C 
ATOM     31  C   UNL     1       6.012   0.537  23.332  0.00  0.00    +0.001 C 
ATOM     32  C   UNL     1       5.266  -1.816  23.863  0.00  0.00    +0.001 C 
ATOM     33  C   UNL     1       6.133  -0.638  24.299  0.00  0.00    +0.000 C 
ENDBRANCH  26  27
BRANCH  15   2
ATOM      2  O   UNL     1      -6.706   5.461  26.007  0.00  0.00    -0.391 OA
ATOM     39  H   UNL     1      -7.407   5.747  25.397  0.00  0.00    +0.210 HD
ENDBRANCH  15   2
BRANCH  12  20
ATOM     20  C   UNL     1      -4.998   3.652  27.373  0.00  0.00    +0.165 C 
BRANCH  20   3
ATOM      3  O   UNL     1      -6.040   2.799  26.954  0.00  0.00    -0.394 OA
ATOM     40  H   UNL     1      -6.095   2.862  25.985  0.00  0.00    +0.209 HD
ENDBRANCH  20   3
ENDBRANCH  12  20
BRANCH  13  23
ATOM     23  C   UNL     1      -3.193   0.991  22.287  0.00  0.00    +0.106 C 
BRANCH  23  24
ATOM      4  O   UNL     1      -1.616  -0.809  22.648  0.00  0.00    -0.276 OA
ATOM      7  N   UNL     1      -3.722  -0.916  23.624  0.00  0.00    -0.311 N 
ATOM     24  C   UNL     1      -2.728  -0.331  22.853  0.00  0.00    +0.214 C 
ATOM     41  H   UNL     1      -4.610  -0.435  23.739  0.00  0.00    +0.149 HD
BRANCH   7  28
ATOM     28  C   UNL     1      -3.560  -2.189  24.288  0.00  0.00    +0.141 C 
BRANCH  28  34
ATOM      9  N   UNL     1      -0.148  -3.518  25.236  0.00  0.00    -0.263 NA
ATOM     34  C   UNL     1      -2.221  -2.305  24.959  0.00  0.00    -0.012 A 
ATOM     35  C   UNL     1      -1.802  -1.361  25.890  0.00  0.00    +0.008 A 
ATOM     36  C   UNL     1      -1.365  -3.355  24.669  0.00  0.00    +0.115 A 
ATOM     37  C   UNL     1      -0.557  -1.496  26.495  0.00  0.00    +0.020 A 
ATOM     38  C   UNL     1       0.225  -2.581  26.137  0.00  0.00    +0.111 A 
ENDBRANCH  28  34
ENDBRANCH   7  28
ENDBRANCH  23  24
ENDBRANCH  13  23
TORSDOF 8
ENDMDL
MODEL 2
REMARK VINA RESULT:      13.2      2.728      4.125
REMARK  Name = 11879504
REMARK  10 active torsions:
REMARK  status: ('A' for Active; 'I' for Inactive)
REMARK    1  A    between atoms: O_2  and  C_15
REMARK    2  A    between atoms: O_3  and  C_20
REMARK    3  A    between atoms: N_7  and  C_28
REMARK    4  A    between atoms: C_10  and  C_18
REMARK    5  A    between atoms: C_12  and  C_20
REMARK    6  A    between atoms: C_12  and  C_21
REMARK    7  A    between atoms: C_13  and  C_23
REMARK    8  A    between atoms: C_23  and  C_24
REMARK    9  A    between atoms: C_26  and  C_27
REMARK   10  A    between atoms: C_28  and  C_34
REMARK                            x       y       z     vdW  Elec       q    Type
REMARK                         _______ _______ _______ _____ _____    ______ ____
ROOT
ATOM      1  S   UNL     1      -0.960  -0.903  23.939  0.00  0.00    -0.057 S 
ATOM      5  O   UNL     1       2.806   1.822  23.509  0.00  0.00    -0.275 OA
ATOM      6  N   UNL     1      -0.091   1.528  24.115  0.00  0.00    -0.229 NA
ATOM      8  N   UNL     1       1.515  -0.158  23.493  0.00  0.00    -0.264 N 
ATOM     10  C   UNL     1      -3.734   2.650  24.692  0.00  0.00    -0.019 C 
ATOM     11  C   UNL     1      -4.126   1.283  25.408  0.00  0.00    +0.011 C 
ATOM     12  C   UNL     1      -5.641   1.087  25.800  0.00  0.00    +0.021 C 
ATOM     13  C   UNL     1      -2.148   2.823  24.790  0.00  0.00    +0.054 C 
ATOM     14  C   UNL     1      -4.401   3.834  25.442  0.00  0.00    +0.010 C 
ATOM     15  C   UNL     1      -6.161   2.377  26.496  0.00  0.00    +0.123 C 
ATOM     16  C   UNL     1      -3.504   0.059  24.673  0.00  0.00    +0.049 C 
ATOM     17  C   UNL     1      -5.890   3.644  25.693  0.00  0.00    +0.032 C 
ATOM     18  C   UNL     1      -4.167   2.697  23.206  0.00  0.00    +0.012 C 
ATOM     19  C   UNL     1      -1.441   1.546  24.412  0.00  0.00    +0.058 A 
ATOM     21  C   UNL     1      -5.753  -0.072  26.830  0.00  0.00    +0.016 C 
ATOM     22  C   UNL     1      -2.064   0.315  24.383  0.00  0.00    +0.015 A 
ATOM     25  C   UNL     1       0.270   0.293  23.844  0.00  0.00    +0.165 A 
ATOM     26  C   UNL     1       2.681   0.612  23.350  0.00  0.00    +0.222 C 
ATOM     42  H   UNL     1       1.572  -1.158  23.321  0.00  0.00    +0.157 HD
ENDROOT
BRANCH  26  27
ATOM     27  C   UNL     1       3.859  -0.230  22.958  0.00  0.00    +0.075 C 
ATOM     29  C   UNL     1       5.145   0.593  23.059  0.00  0.00    +0.013 C 
ATOM     30  C   UNL     1       3.922  -1.481  23.837  0.00  0.00    +0.013 C 
ATOM     31  C   UNL     1       6.380  -0.252  22.759  0.00  0.00    +0.001 C 
ATOM     32  C   UNL     1       5.160  -2.321  23.535  0.00  0.00    +0.001 C 
ATOM     33  C   UNL     1       6.439  -1.496  23.641  0.00  0.00    +0.000 C 
ENDBRANCH  26  27
BRANCH  15   2
ATOM      2  O   UNL     1      -7.563   2.283  26.747  0.00  0.00    -0.391 OA
ATOM     39  H   UNL     1      -7.803   3.005  27.352  0.00  0.00    +0.210 HD
ENDBRANCH  15   2
BRANCH  12  20
ATOM     20  C   UNL     1      -6.559   0.688  24.624  0.00  0.00    +0.165 C 
BRANCH  20   3
ATOM      3  O   UNL     1      -7.392   1.789  24.334  0.00  0.00    -0.394 OA
ATOM     40  H   UNL     1      -8.312   1.478  24.386  0.00  0.00    +0.209 HD
ENDBRANCH  20   3
ENDBRANCH  12  20
BRANCH  13  23
ATOM     23  C   UNL     1      -1.589   4.025  24.018  0.00  0.00    +0.106 C 
BRANCH  23  24
ATOM      4  O   UNL     1      -0.104   5.839  24.616  0.00  0.00    -0.276 OA
ATOM      7  N   UNL     1       0.249   3.725  25.514  0.00  0.00    -0.311 N 
ATOM     24  C   UNL     1      -0.415   4.657  24.729  0.00  0.00    +0.214 C 
ATOM     41  H   UNL     1      -0.093   2.769  25.545  0.00  0.00    +0.149 HD
BRANCH   7  28
ATOM     28  C   UNL     1       1.415   4.047  26.305  0.00  0.00    +0.141 C 
BRANCH  28  34
ATOM      9  N   UNL     1       2.650   2.642  29.592  0.00  0.00    -0.263 NA
ATOM     34  C   UNL     1       1.441   3.288  27.600  0.00  0.00    -0.012 A 
ATOM     35  C   UNL     1       0.340   2.548  28.020  0.00  0.00    +0.008 A 
ATOM     36  C   UNL     1       2.561   3.303  28.415  0.00  0.00    +0.115 A 
ATOM     37  C   UNL     1       0.394   1.855  29.224  0.00  0.00    +0.020 A 
ATOM     38  C   UNL     1       1.561   1.933  29.967  0.00  0.00    +0.111 A 
ENDBRANCH  28  34
ENDBRANCH   7  28
ENDBRANCH  23  24
ENDBRANCH  13  23
TORSDOF 8
ENDMDL
MODEL 3
REMARK VINA RESULT:      16.8      2.471      5.282
REMARK  Name = 11879504
REMARK  10 active torsions:
REMARK  status: ('A' for Active; 'I' for Inactive)
REMARK    1  A    between atoms: O_2  and  C_15
REMARK    2  A    between atoms: O_3  and  C_20
REMARK    3  A    between atoms: N_7  and  C_28
REMARK    4  A    between atoms: C_10  and  C_18
REMARK    5  A    between atoms: C_12  and  C_20
REMARK    6  A    between atoms: C_12  and  C_21
REMARK    7  A    between atoms: C_13  and  C_23
REMARK    8  A    between atoms: C_23  and  C_24
REMARK    9  A    between atoms: C_26  and  C_27
REMARK   10  A    between atoms: C_28  and  C_34
REMARK                            x       y       z     vdW  Elec       q    Type
REMARK                         _______ _______ _______ _____ _____    ______ ____
ROOT
ATOM      1  S   UNL     1       1.933  -1.884  23.822  0.00  0.00    -0.057 S 
ATOM      5  O   UNL     1       5.085   1.560  23.792  0.00  0.00    -0.275 OA
ATOM      6  N   UNL     1       2.243   0.684  23.877  0.00  0.00    -0.229 NA
ATOM      8  N   UNL     1       4.247  -0.651  23.763  0.00  0.00    -0.264 N 
ATOM     10  C   UNL     1      -1.590   1.022  23.633  0.00  0.00    -0.019 C 
ATOM     11  C   UNL     1      -1.839  -0.342  24.415  0.00  0.00    +0.011 C 
ATOM     12  C   UNL     1      -3.332  -0.836  24.538  0.00  0.00    +0.021 C 
ATOM     13  C   UNL     1      -0.125   1.543  24.004  0.00  0.00    +0.054 C 
ATOM     14  C   UNL     1      -2.620   2.081  24.104  0.00  0.00    +0.010 C 
ATOM     15  C   UNL     1      -4.232   0.356  24.972  0.00  0.00    +0.123 C 
ATOM     16  C   UNL     1      -0.848  -1.451  23.954  0.00  0.00    +0.049 C 
ATOM     17  C   UNL     1      -4.060   1.590  24.094  0.00  0.00    +0.032 C 
ATOM     18  C   UNL     1      -1.707   0.865  22.097  0.00  0.00    +0.012 C 
ATOM     19  C   UNL     1       0.885   0.428  23.913  0.00  0.00    +0.058 A 
ATOM     21  C   UNL     1      -3.421  -1.914  25.655  0.00  0.00    +0.016 C 
ATOM     22  C   UNL     1       0.540  -0.908  23.911  0.00  0.00    +0.015 A 
ATOM     25  C   UNL     1       2.892  -0.458  23.822  0.00  0.00    +0.165 A 
ATOM     26  C   UNL     1       5.239   0.344  23.752  0.00  0.00    +0.222 C 
ATOM     42  H   UNL     1       4.536  -1.623  23.721  0.00  0.00    +0.157 HD
ENDROOT
BRANCH  26  27
ATOM     27  C   UNL     1       6.617  -0.247  23.686  0.00  0.00    +0.075 C 
ATOM     29  C   UNL     1       6.838  -0.902  22.321  0.00  0.00    +0.013 C 
ATOM     30  C   UNL     1       7.662   0.835  23.965  0.00  0.00    +0.013 C 
ATOM     31  C   UNL     1       8.260  -1.435  22.176  0.00  0.00    +0.001 C 
ATOM     32  C   UNL     1       9.083   0.298  23.815  0.00  0.00    +0.001 C 
ATOM     33  C   UNL     1       9.299  -0.351  22.451  0.00  0.00    +0.000 C 
ENDBRANCH  26  27
BRANCH  15   2
ATOM      2  O   UNL     1      -5.607  -0.024  24.967  0.00  0.00    -0.391 OA
ATOM     39  H   UNL     1      -5.652  -0.971  25.181  0.00  0.00    +0.210 HD
ENDBRANCH  15   2
BRANCH  12  20
ATOM     20  C   UNL     1      -3.889  -1.511  23.265  0.00  0.00    +0.165 C 
BRANCH  20   3
ATOM      3  O   UNL     1      -4.578  -2.677  23.661  0.00  0.00    -0.394 OA
ATOM     40  H   UNL     1      -4.382  -3.366  23.004  0.00  0.00    +0.209 HD
ENDBRANCH  20   3
ENDBRANCH  12  20
BRANCH  13  23
ATOM     23  C   UNL     1       0.330   2.779  23.217  0.00  0.00    +0.106 C 
BRANCH  23  24
ATOM      4  O   UNL     1      -0.218   5.136  23.179  0.00  0.00    -0.276 OA
ATOM      7  N   UNL     1      -0.978   3.810  24.930  0.00  0.00    -0.311 N 
ATOM     24  C   UNL     1      -0.302   4.048  23.742  0.00  0.00    +0.214 C 
ATOM     41  H   UNL     1      -0.995   2.868  25.311  0.00  0.00    +0.149 HD
BRANCH   7  28
ATOM     28  C   UNL     1      -1.676   4.842  25.662  0.00  0.00    +0.141 C 
BRANCH  28  34
ATOM      9  N   UNL     1      -5.027   3.526  26.821  0.00  0.00    -0.263 NA
ATOM     34  C   UNL     1      -3.155   4.588  25.719  0.00  0.00    -0.012 A 
ATOM     35  C   UNL     1      -4.014   5.142  24.776  0.00  0.00    +0.008 A 
ATOM     36  C   UNL     1      -3.706   3.795  26.712  0.00  0.00    +0.115 A 
ATOM     37  C   UNL     1      -5.379   4.888  24.855  0.00  0.00    +0.020 A 
ATOM     38  C   UNL     1      -5.831   4.082  25.886  0.00  0.00    +0.111 A 
ENDBRANCH  28  34
ENDBRANCH   7  28
ENDBRANCH  23  24
ENDBRANCH  13  23
TORSDOF 8
ENDMDL
MODEL 4
REMARK VINA RESULT:      16.8      3.237      5.403
REMARK  Name = 11879504
REMARK  10 active torsions:
REMARK  status: ('A' for Active; 'I' for Inactive)
REMARK    1  A    between atoms: O_2  and  C_15
REMARK    2  A    between atoms: O_3  and  C_20
REMARK    3  A    between atoms: N_7  and  C_28
REMARK    4  A    between atoms: C_10  and  C_18
REMARK    5  A    between atoms: C_12  and  C_20
REMARK    6  A    between atoms: C_12  and  C_21
REMARK    7  A    between atoms: C_13  and  C_23
REMARK    8  A    between atoms: C_23  and  C_24
REMARK    9  A    between atoms: C_26  and  C_27
REMARK   10  A    between atoms: C_28  and  C_34
REMARK                            x       y       z     vdW  Elec       q    Type
REMARK                         _______ _______ _______ _____ _____    ______ ____
ROOT
ATOM      1  S   UNL     1      -0.635  -0.183  24.450  0.00  0.00    -0.057 S 
ATOM      5  O   UNL     1       3.092   2.056  22.750  0.00  0.00    -0.275 OA
ATOM      6  N   UNL     1       0.240   2.097  23.595  0.00  0.00    -0.229 NA
ATOM      8  N   UNL     1       1.805   0.263  23.599  0.00  0.00    -0.264 N 
ATOM     10  C   UNL     1      -3.360   3.444  23.896  0.00  0.00    -0.019 C 
ATOM     11  C   UNL     1      -3.703   2.482  25.117  0.00  0.00    +0.011 C 
ATOM     12  C   UNL     1      -5.189   2.494  25.645  0.00  0.00    +0.021 C 
ATOM     13  C   UNL     1      -1.771   3.602  23.822  0.00  0.00    +0.054 C 
ATOM     14  C   UNL     1      -3.979   4.843  24.153  0.00  0.00    +0.010 C 
ATOM     15  C   UNL     1      -5.665   3.966  25.802  0.00  0.00    +0.123 C 
ATOM     16  C   UNL     1      -3.128   1.052  24.893  0.00  0.00    +0.049 C 
ATOM     17  C   UNL     1      -5.449   4.804  24.547  0.00  0.00    +0.032 C 
ATOM     18  C   UNL     1      -3.888   2.908  22.542  0.00  0.00    +0.012 C 
ATOM     19  C   UNL     1      -1.088   2.263  23.940  0.00  0.00    +0.058 A 
ATOM     21  C   UNL     1      -5.233   1.841  27.055  0.00  0.00    +0.016 C 
ATOM     22  C   UNL     1      -1.710   1.138  24.440  0.00  0.00    +0.015 A 
ATOM     25  C   UNL     1       0.585   0.847  23.815  0.00  0.00    +0.165 A 
ATOM     26  C   UNL     1       2.958   0.886  23.091  0.00  0.00    +0.222 C 
ATOM     42  H   UNL     1       1.852  -0.723  23.835  0.00  0.00    +0.157 HD
ENDROOT
BRANCH  26  27
ATOM     27  C   UNL     1       4.110  -0.071  22.996  0.00  0.00    +0.075 C 
ATOM     29  C   UNL     1       5.397   0.614  23.461  0.00  0.00    +0.013 C 
ATOM     30  C   UNL     1       3.814  -1.327  23.819  0.00  0.00    +0.013 C 
ATOM     31  C   UNL     1       6.578  -0.352  23.469  0.00  0.00    +0.001 C 
ATOM     32  C   UNL     1       5.000  -2.288  23.827  0.00  0.00    +0.001 C 
ATOM     33  C   UNL     1       6.279  -1.600  24.294  0.00  0.00    +0.000 C 
ENDBRANCH  26  27
BRANCH  15   2
ATOM      2  O   UNL     1      -7.047   4.013  26.153  0.00  0.00    -0.391 OA
ATOM     39  H   UNL     1      -7.278   4.943  26.316  0.00  0.00    +0.210 HD
ENDBRANCH  15   2
BRANCH  12  20
ATOM     20  C   UNL     1      -6.181   1.684  24.781  0.00  0.00    +0.165 C 
BRANCH  20   3
ATOM      3  O   UNL     1      -7.294   1.366  25.586  0.00  0.00    -0.394 OA
ATOM     40  H   UNL     1      -7.168   0.458  25.910  0.00  0.00    +0.209 HD
ENDBRANCH  20   3
ENDBRANCH  12  20
BRANCH  13  23
ATOM     23  C   UNL     1      -1.265   4.386  22.604  0.00  0.00    +0.106 C 
BRANCH  23  24
ATOM      4  O   UNL     1       0.460   5.321  24.020  0.00  0.00    -0.276 OA
ATOM      7  N   UNL     1       0.685   5.438  21.710  0.00  0.00    -0.311 N 
ATOM     24  C   UNL     1       0.041   5.092  22.889  0.00  0.00    +0.214 C 
ATOM     41  H   UNL     1       0.256   5.196  20.821  0.00  0.00    +0.149 HD
BRANCH   7  28
ATOM     28  C   UNL     1       1.954   6.128  21.677  0.00  0.00    +0.141 C 
BRANCH  28  34
ATOM      9  N   UNL     1       4.874   5.125  19.493  0.00  0.00    -0.263 NA
ATOM     34  C   UNL     1       2.754   5.775  20.456  0.00  0.00    -0.012 A 
ATOM     35  C   UNL     1       2.168   5.761  19.195  0.00  0.00    +0.008 A 
ATOM     36  C   UNL     1       4.097   5.452  20.551  0.00  0.00    +0.115 A 
ATOM     37  C   UNL     1       2.934   5.429  18.083  0.00  0.00    +0.020 A 
ATOM     38  C   UNL     1       4.270   5.122  18.283  0.00  0.00    +0.111 A 
ENDBRANCH  28  34
ENDBRANCH   7  28
ENDBRANCH  23  24
ENDBRANCH  13  23
TORSDOF 8
ENDMDL
