MODEL 1
REMARK VINA RESULT:      -1.6      0.000      0.000
REMARK  Name = 45783303
REMARK  4 active torsions:
REMARK  status: ('A' for Active; 'I' for Inactive)
REMARK    1  A    between atoms: N_3  and  C_14
REMARK    2  A    between atoms: C_10  and  C_15
REMARK    3  A    between atoms: C_14  and  C_16
REMARK    4  A    between atoms: C_17  and  C_20
REMARK                            x       y       z     vdW  Elec       q    Type
REMARK                         _______ _______ _______ _____ _____    ______ ____
ROOT
ATOM      1  O   UNL     1      -6.453  -7.511   9.492  0.00  0.00    -0.336 OA
ATOM      4  N   UNL     1      -6.402  -9.561  10.394  0.00  0.00    -0.190 NA
ATOM      7  N   UNL     1      -5.146  -7.699   9.961  0.00  0.00    -0.056 NA
ATOM     15  C   UNL     1      -7.125  -8.654   9.787  0.00  0.00    +0.245 A 
ATOM     17  C   UNL     1      -5.196  -8.929  10.479  0.00  0.00    +0.202 A 
ENDROOT
BRANCH  17  20
ATOM      2  O   UNL     1      -2.303 -10.391  17.181  0.00  0.00    -0.377 OA
ATOM      5  N   UNL     1      -2.673 -10.160  14.404  0.00  0.00    -0.311 N 
ATOM      9  N   UNL     1      -1.844 -10.781  12.275  0.00  0.00    -0.240 NA
ATOM     18  C   UNL     1      -3.705 -10.781  15.240  0.00  0.00    +0.134 C 
ATOM     19  C   UNL     1      -1.318 -10.167  14.975  0.00  0.00    +0.134 C 
ATOM     20  C   UNL     1      -4.058  -9.557  11.089  0.00  0.00    +0.027 A 
ATOM     21  C   UNL     1      -2.801 -10.173  13.011  0.00  0.00    +0.122 A 
ATOM     22  C   UNL     1      -3.621 -10.229  16.659  0.00  0.00    +0.178 C 
ATOM     23  C   UNL     1      -1.361  -9.646  16.407  0.00  0.00    +0.178 C 
ATOM     24  C   UNL     1      -3.917  -9.553  12.472  0.00  0.00    +0.055 A 
ATOM     27  C   UNL     1      -3.094 -10.170  10.298  0.00  0.00    +0.031 A 
ATOM     28  C   UNL     1      -2.015 -10.763  10.934  0.00  0.00    +0.113 A 
ENDBRANCH  17  20
BRANCH  15  10
ATOM      3  N   UNL     1      -9.501  -8.521  10.516  0.00  0.00    -0.284 NA
ATOM     10  C   UNL     1      -8.582  -8.705   9.375  0.00  0.00    +0.146 C 
ATOM     11  C   UNL     1      -8.959  -7.588   8.385  0.00  0.00    +0.030 C 
ATOM     12  C   UNL     1     -10.137  -6.868   9.027  0.00  0.00    +0.017 C 
ATOM     13  C   UNL     1     -10.711  -7.900   9.977  0.00  0.00    +0.085 C 
BRANCH   3  14
ATOM     14  C   UNL     1      -9.790  -9.759  11.226  0.00  0.00    +0.159 C 
BRANCH  14  16
ATOM      6  N   UNL     1      -8.139  -9.932  13.102  0.00  0.00    -0.347 N 
ATOM      8  N   UNL     1     -10.204  -9.357  13.683  0.00  0.00    -0.239 NA
ATOM     16  C   UNL     1      -9.413  -9.673  12.681  0.00  0.00    +0.121 A 
ATOM     25  C   UNL     1      -8.114  -9.772  14.459  0.00  0.00    +0.104 A 
ATOM     26  C   UNL     1      -9.400  -9.417  14.795  0.00  0.00    +0.130 A 
ATOM     29  H   UNL     1      -7.354 -10.194  12.519  0.00  0.00    +0.167 HD
ENDBRANCH  14  16
ENDBRANCH   3  14
ENDBRANCH  15  10
TORSDOF 4
ENDMDL
MODEL 2
REMARK VINA RESULT:       1.2     23.605     26.777
REMARK  Name = 45783303
REMARK  4 active torsions:
REMARK  status: ('A' for Active; 'I' for Inactive)
REMARK    1  A    between atoms: N_3  and  C_14
REMARK    2  A    between atoms: C_10  and  C_15
REMARK    3  A    between atoms: C_14  and  C_16
REMARK    4  A    between atoms: C_17  and  C_20
REMARK                            x       y       z     vdW  Elec       q    Type
REMARK                         _______ _______ _______ _____ _____    ______ ____
ROOT
ATOM      1  O   UNL     1      16.990  -5.822  24.480  0.00  0.00    -0.336 OA
ATOM      4  N   UNL     1      16.616  -6.022  26.680  0.00  0.00    -0.190 NA
ATOM      7  N   UNL     1      16.578  -7.145  24.687  0.00  0.00    -0.056 NA
ATOM     15  C   UNL     1      16.984  -5.232  25.703  0.00  0.00    +0.245 A 
ATOM     17  C   UNL     1      16.376  -7.185  26.007  0.00  0.00    +0.202 A 
ENDROOT
BRANCH  17  20
ATOM      2  O   UNL     1      14.687  -9.652  32.825  0.00  0.00    -0.377 OA
ATOM      5  N   UNL     1      15.206  -9.519  30.065  0.00  0.00    -0.311 N 
ATOM      9  N   UNL     1      15.078 -10.679  28.006  0.00  0.00    -0.240 NA
ATOM     18  C   UNL     1      14.266  -8.582  30.688  0.00  0.00    +0.134 C 
ATOM     19  C   UNL     1      15.419 -10.773  30.801  0.00  0.00    +0.134 C 
ATOM     20  C   UNL     1      15.936  -8.370  26.686  0.00  0.00    +0.027 A 
ATOM     21  C   UNL     1      15.355  -9.537  28.675  0.00  0.00    +0.122 A 
ATOM     22  C   UNL     1      14.625  -8.392  32.158  0.00  0.00    +0.178 C 
ATOM     23  C   UNL     1      15.717 -10.466  32.265  0.00  0.00    +0.178 C 
ATOM     24  C   UNL     1      15.783  -8.368  28.068  0.00  0.00    +0.055 A 
ATOM     27  C   UNL     1      15.662  -9.526  25.964  0.00  0.00    +0.031 A 
ATOM     28  C   UNL     1      15.240 -10.644  26.664  0.00  0.00    +0.113 A 
ENDBRANCH  17  20
BRANCH  15  10
ATOM      3  N   UNL     1      16.474  -2.899  25.004  0.00  0.00    -0.284 NA
ATOM     10  C   UNL     1      17.398  -3.776  25.751  0.00  0.00    +0.146 C 
ATOM     11  C   UNL     1      17.405  -3.206  27.182  0.00  0.00    +0.030 C 
ATOM     12  C   UNL     1      16.508  -1.978  27.127  0.00  0.00    +0.017 C 
ATOM     13  C   UNL     1      16.521  -1.592  25.661  0.00  0.00    +0.085 C 
BRANCH   3  14
ATOM     14  C   UNL     1      16.788  -2.809  23.584  0.00  0.00    +0.159 C 
BRANCH  14  16
ATOM      6  N   UNL     1      14.605  -3.379  22.494  0.00  0.00    -0.347 N 
ATOM      8  N   UNL     1      15.303  -1.288  22.225  0.00  0.00    -0.239 NA
ATOM     16  C   UNL     1      15.577  -2.456  22.763  0.00  0.00    +0.121 A 
ATOM     25  C   UNL     1      13.650  -2.761  21.736  0.00  0.00    +0.104 A 
ATOM     26  C   UNL     1      14.104  -1.471  21.583  0.00  0.00    +0.130 A 
ATOM     29  H   UNL     1      14.591  -4.343  22.800  0.00  0.00    +0.167 HD
ENDBRANCH  14  16
ENDBRANCH   3  14
ENDBRANCH  15  10
TORSDOF 4
ENDMDL
MODEL 3
REMARK VINA RESULT:       2.4     15.199     17.362
REMARK  Name = 45783303
REMARK  4 active torsions:
REMARK  status: ('A' for Active; 'I' for Inactive)
REMARK    1  A    between atoms: N_3  and  C_14
REMARK    2  A    between atoms: C_10  and  C_15
REMARK    3  A    between atoms: C_14  and  C_16
REMARK    4  A    between atoms: C_17  and  C_20
REMARK                            x       y       z     vdW  Elec       q    Type
REMARK                         _______ _______ _______ _____ _____    ______ ____
ROOT
ATOM      1  O   UNL     1      -2.341  -0.650  25.873  0.00  0.00    -0.336 OA
ATOM      4  N   UNL     1      -2.043   0.782  24.177  0.00  0.00    -0.190 NA
ATOM      7  N   UNL     1      -1.190  -1.078  25.200  0.00  0.00    -0.056 NA
ATOM     15  C   UNL     1      -2.779   0.449  25.207  0.00  0.00    +0.245 A 
ATOM     17  C   UNL     1      -1.080  -0.183  24.213  0.00  0.00    +0.202 A 
ENDROOT
BRANCH  17  20
ATOM      2  O   UNL     1       6.349  -0.434  23.787  0.00  0.00    -0.377 OA
ATOM      5  N   UNL     1       3.622  -0.267  23.127  0.00  0.00    -0.311 N 
ATOM      9  N   UNL     1       2.043  -0.311  21.363  0.00  0.00    -0.240 NA
ATOM     18  C   UNL     1       4.109  -1.345  23.993  0.00  0.00    +0.134 C 
ATOM     19  C   UNL     1       4.636   0.341  22.254  0.00  0.00    +0.134 C 
ATOM     20  C   UNL     1      -0.020  -0.226  23.247  0.00  0.00    +0.027 A 
ATOM     21  C   UNL     1       2.293  -0.269  22.691  0.00  0.00    +0.122 A 
ATOM     22  C   UNL     1       5.371  -0.891  24.720  0.00  0.00    +0.178 C 
ATOM     23  C   UNL     1       5.868   0.705  23.074  0.00  0.00    +0.178 C 
ATOM     24  C   UNL     1       1.307  -0.226  23.664  0.00  0.00    +0.055 A 
ATOM     27  C   UNL     1      -0.316  -0.268  21.889  0.00  0.00    +0.031 A 
ATOM     28  C   UNL     1       0.742  -0.309  20.996  0.00  0.00    +0.113 A 
ENDBRANCH  17  20
BRANCH  15  10
ATOM      3  N   UNL     1      -4.131   2.533  25.365  0.00  0.00    -0.284 NA
ATOM     10  C   UNL     1      -4.030   1.110  25.746  0.00  0.00    +0.146 C 
ATOM     11  C   UNL     1      -5.322   0.470  25.206  0.00  0.00    +0.030 C 
ATOM     12  C   UNL     1      -6.111   1.618  24.593  0.00  0.00    +0.017 C 
ATOM     13  C   UNL     1      -5.559   2.843  25.292  0.00  0.00    +0.085 C 
BRANCH   3  14
ATOM     14  C   UNL     1      -3.421   3.424  26.274  0.00  0.00    +0.159 C 
BRANCH  14  16
ATOM      6  N   UNL     1      -1.005   3.152  25.671  0.00  0.00    -0.347 N 
ATOM      8  N   UNL     1      -1.926   5.095  25.117  0.00  0.00    -0.239 NA
ATOM     16  C   UNL     1      -2.133   3.924  25.678  0.00  0.00    +0.121 A 
ATOM     25  C   UNL     1      -0.015   3.877  25.069  0.00  0.00    +0.104 A 
ATOM     26  C   UNL     1      -0.608   5.073  24.736  0.00  0.00    +0.130 A 
ATOM     29  H   UNL     1      -0.915   2.215  26.043  0.00  0.00    +0.167 HD
ENDBRANCH  14  16
ENDBRANCH   3  14
ENDBRANCH  15  10
TORSDOF 4
ENDMDL
