MODEL 1
REMARK VINA RESULT:      -2.5      0.000      0.000
REMARK  Name = 7142728
REMARK  5 active torsions:
REMARK  status: ('A' for Active; 'I' for Inactive)
REMARK    1  A    between atoms: O_3  and  C_21
REMARK    2  A    between atoms: O_3  and  C_23
REMARK    3  A    between atoms: N_8  and  C_19
REMARK    4  A    between atoms: C_18  and  C_21
REMARK    5  A    between atoms: C_22  and  C_24
REMARK                            x       y       z     vdW  Elec       q    Type
REMARK                         _______ _______ _______ _____ _____    ______ ____
ROOT
ATOM      1  O   UNL     1       0.072   2.383  26.062  0.00  0.00    -0.266 OA
ATOM      2  O   UNL     1      -4.678  -0.022  26.640  0.00  0.00    -0.272 OA
ATOM      6  N   UNL     1      -4.815   1.717  25.105  0.00  0.00    -0.298 N 
ATOM      7  N   UNL     1      -1.848   2.874  24.823  0.00  0.00    -0.310 N 
ATOM      9  C   UNL     1      -3.936   3.928  25.863  0.00  0.00    +0.027 C 
ATOM     10  C   UNL     1      -3.917   3.364  23.470  0.00  0.00    +0.054 C 
ATOM     11  C   UNL     1      -4.177   4.490  24.467  0.00  0.00    +0.018 C 
ATOM     12  C   UNL     1      -4.884   2.748  26.141  0.00  0.00    +0.113 C 
ATOM     13  C   UNL     1      -2.462   3.524  25.988  0.00  0.00    +0.130 C 
ATOM     14  C   UNL     1      -4.907   2.210  23.722  0.00  0.00    +0.117 C 
ATOM     15  C   UNL     1      -2.492   2.853  23.582  0.00  0.00    +0.027 A 
ATOM     16  C   UNL     1      -1.864   2.356  22.502  0.00  0.00    +0.024 A 
ATOM     17  C   UNL     1      -0.542   2.370  24.994  0.00  0.00    +0.273 A 
ATOM     18  C   UNL     1      -4.755   0.372  25.473  0.00  0.00    +0.253 C 
ATOM     19  C   UNL     1       0.113   1.804  23.773  0.00  0.00    +0.099 A 
ATOM     20  C   UNL     1      -0.536   1.821  22.603  0.00  0.00    +0.030 A 
ENDROOT
BRANCH  19   8
ATOM      4  O   UNL     1       1.358  -0.068  22.013  0.00  0.00    -0.266 OA
ATOM      8  N   UNL     1       1.371   1.293  23.899  0.00  0.00    -0.275 N 
ATOM     22  C   UNL     1       1.921   0.384  23.007  0.00  0.00    +0.284 C 
ATOM     33  H   UNL     1       1.849   1.449  24.784  0.00  0.00    +0.155 HD
BRANCH  22  24
ATOM      5  O   UNL     1       3.460  -1.307  23.684  0.00  0.00    -0.458 OA
ATOM     24  C   UNL     1       3.315  -0.041  23.298  0.00  0.00    +0.189 A 
ATOM     27  C   UNL     1       4.449   0.660  23.230  0.00  0.00    +0.054 A 
ATOM     30  C   UNL     1       5.449  -0.262  23.618  0.00  0.00    +0.042 A 
ATOM     32  C   UNL     1       4.797  -1.444  23.884  0.00  0.00    +0.196 A 
ENDBRANCH  22  24
ENDBRANCH  19   8
BRANCH  18  21
ATOM     21  C   UNL     1      -4.782  -0.637  24.354  0.00  0.00    +0.324 C 
BRANCH  21   3
ATOM      3  O   UNL     1      -4.181  -1.808  24.853  0.00  0.00    -0.483 OA
BRANCH   3  23
ATOM     23  C   UNL     1      -2.805  -1.831  24.927  0.00  0.00    +0.121 A 
ATOM     25  C   UNL     1      -2.096  -2.721  24.134  0.00  0.00    +0.045 A 
ATOM     26  C   UNL     1      -2.155  -0.965  25.792  0.00  0.00    +0.045 A 
ATOM     28  C   UNL     1      -0.703  -2.745  24.209  0.00  0.00    +0.004 A 
ATOM     29  C   UNL     1      -0.763  -0.989  25.867  0.00  0.00    +0.004 A 
ATOM     31  C   UNL     1      -0.037  -1.879  25.075  0.00  0.00    +0.000 A 
ENDBRANCH   3  23
ENDBRANCH  21   3
ENDBRANCH  18  21
TORSDOF 5
ENDMDL
MODEL 2
REMARK VINA RESULT:       1.1     15.039     19.713
REMARK  Name = 7142728
REMARK  5 active torsions:
REMARK  status: ('A' for Active; 'I' for Inactive)
REMARK    1  A    between atoms: O_3  and  C_21
REMARK    2  A    between atoms: O_3  and  C_23
REMARK    3  A    between atoms: N_8  and  C_19
REMARK    4  A    between atoms: C_18  and  C_21
REMARK    5  A    between atoms: C_22  and  C_24
REMARK                            x       y       z     vdW  Elec       q    Type
REMARK                         _______ _______ _______ _____ _____    ______ ____
ROOT
ATOM      1  O   UNL     1      12.218 -10.438  30.503  0.00  0.00    -0.266 OA
ATOM      2  O   UNL     1      17.160 -10.035  32.528  0.00  0.00    -0.272 OA
ATOM      6  N   UNL     1      16.938  -8.721  30.624  0.00  0.00    -0.298 N 
ATOM      7  N   UNL     1      13.888  -9.008  29.709  0.00  0.00    -0.310 N 
ATOM      9  C   UNL     1      16.029  -9.862  28.597  0.00  0.00    +0.027 C 
ATOM     10  C   UNL     1      15.687  -7.445  28.892  0.00  0.00    +0.054 C 
ATOM     11  C   UNL     1      16.015  -8.526  27.864  0.00  0.00    +0.018 C 
ATOM     12  C   UNL     1      17.090  -9.855  29.712  0.00  0.00    +0.113 C 
ATOM     13  C   UNL     1      14.624 -10.145  29.141  0.00  0.00    +0.130 C 
ATOM     14  C   UNL     1      16.784  -7.410  29.974  0.00  0.00    +0.117 C 
ATOM     15  C   UNL     1      14.336  -7.696  29.536  0.00  0.00    +0.027 A 
ATOM     16  C   UNL     1      13.589  -6.663  29.963  0.00  0.00    +0.024 A 
ATOM     17  C   UNL     1      12.663  -9.300  30.343  0.00  0.00    +0.273 A 
ATOM     18  C   UNL     1      17.031  -8.926  32.001  0.00  0.00    +0.253 C 
ATOM     19  C   UNL     1      11.872  -8.124  30.826  0.00  0.00    +0.099 A 
ATOM     20  C   UNL     1      12.333  -6.885  30.622  0.00  0.00    +0.030 A 
ENDROOT
BRANCH  19   8
ATOM      4  O   UNL     1       9.268  -7.609  29.775  0.00  0.00    -0.266 OA
ATOM      8  N   UNL     1      10.687  -8.365  31.457  0.00  0.00    -0.275 N 
ATOM     22  C   UNL     1       9.450  -8.092  30.891  0.00  0.00    +0.284 C 
ATOM     33  H   UNL     1      10.724  -8.580  32.450  0.00  0.00    +0.155 HD
BRANCH  22  24
ATOM      5  O   UNL     1       7.543  -7.415  32.152  0.00  0.00    -0.458 OA
ATOM     24  C   UNL     1       8.269  -8.444  31.722  0.00  0.00    +0.189 A 
ATOM     27  C   UNL     1       7.826  -9.644  32.102  0.00  0.00    +0.054 A 
ATOM     30  C   UNL     1       6.674  -9.359  32.872  0.00  0.00    +0.042 A 
ATOM     32  C   UNL     1       6.544  -7.989  32.873  0.00  0.00    +0.196 A 
ENDBRANCH  22  24
ENDBRANCH  19   8
BRANCH  18  21
ATOM     21  C   UNL     1      16.959  -7.699  32.873  0.00  0.00    +0.324 C 
BRANCH  21   3
ATOM      3  O   UNL     1      17.383  -6.616  32.081  0.00  0.00    -0.483 OA
BRANCH   3  23
ATOM     23  C   UNL     1      16.577  -5.499  32.053  0.00  0.00    +0.121 A 
ATOM     25  C   UNL     1      16.942  -4.416  31.265  0.00  0.00    +0.045 A 
ATOM     26  C   UNL     1      15.418  -5.475  32.812  0.00  0.00    +0.045 A 
ATOM     28  C   UNL     1      16.126  -3.285  31.237  0.00  0.00    +0.004 A 
ATOM     29  C   UNL     1      14.603  -4.345  32.784  0.00  0.00    +0.004 A 
ATOM     31  C   UNL     1      14.957  -3.249  31.996  0.00  0.00    +0.000 A 
ENDBRANCH   3  23
ENDBRANCH  21   3
ENDBRANCH  18  21
TORSDOF 5
ENDMDL
