MODEL 1
REMARK VINA RESULT:      -6.2      0.000      0.000
REMARK  Name = 28961576
REMARK  9 active torsions:
REMARK  status: ('A' for Active; 'I' for Inactive)
REMARK    1  A    between atoms: O_2  and  C_8
REMARK    2  A    between atoms: O_3  and  C_15
REMARK    3  A    between atoms: N_4  and  C_6
REMARK    4  A    between atoms: N_5  and  C_14
REMARK    5  A    between atoms: N_5  and  C_16
REMARK    6  A    between atoms: C_7  and  C_14
REMARK    7  A    between atoms: C_9  and  C_15
REMARK    8  A    between atoms: C_16  and  C_17
REMARK    9  A    between atoms: C_16  and  C_18
REMARK                            x       y       z     vdW  Elec       q    Type
REMARK                         _______ _______ _______ _____ _____    ______ ____
ROOT
ATOM      1  O   UNL     1      -0.286   2.618  25.456  0.00  0.00    -0.366 OA
ATOM      6  C   UNL     1      -1.961   0.933  25.310  0.00  0.00    +0.118 C 
ATOM      7  C   UNL     1      -0.462   1.218  25.146  0.00  0.00    +0.152 C 
ATOM      8  C   UNL     1      -2.598   2.292  25.063  0.00  0.00    +0.165 C 
ATOM      9  C   UNL     1      -1.573   3.206  25.724  0.00  0.00    +0.174 C 
ENDROOT
BRANCH   6   4
ATOM      4  N   UNL     1      -2.500  -0.159  24.513  0.00  0.00    -0.295 NA
ATOM     10  C   UNL     1      -2.090  -1.471  25.014  0.00  0.00    +0.085 C 
ATOM     11  C   UNL     1      -3.962  -0.189  24.522  0.00  0.00    +0.085 C 
ATOM     12  C   UNL     1      -3.049  -2.419  24.310  0.00  0.00    +0.017 C 
ATOM     13  C   UNL     1      -4.278  -1.577  23.983  0.00  0.00    +0.017 C 
ENDBRANCH   6   4
BRANCH   8   2
ATOM      2  O   UNL     1      -2.692   2.578  23.674  0.00  0.00    -0.388 OA
ATOM     19  H   UNL     1      -1.982   2.090  23.224  0.00  0.00    +0.210 HD
ENDBRANCH   8   2
BRANCH   7  14
ATOM     14  C   UNL     1       0.130   0.983  23.761  0.00  0.00    +0.114 C 
BRANCH  14   5
ATOM      5  N   UNL     1       1.534   1.365  23.723  0.00  0.00    -0.311 NA
ATOM     20  H   UNL     1       1.621   2.235  23.199  0.00  0.00    +0.122 HD
BRANCH   5  16
ATOM     16  C   UNL     1       2.341   0.323  23.101  0.00  0.00    +0.048 C 
ATOM     17  C   UNL     1       3.683   0.892  22.649  0.00  0.00    +0.023 C 
ATOM     18  C   UNL     1       1.576  -0.276  21.925  0.00  0.00    +0.023 C 
ENDBRANCH   5  16
ENDBRANCH  14   5
ENDBRANCH   7  14
BRANCH   9  15
ATOM     15  C   UNL     1      -1.576   4.646  25.243  0.00  0.00    +0.190 C 
BRANCH  15   3
ATOM      3  O   UNL     1      -0.434   4.860  24.428  0.00  0.00    -0.392 OA
ATOM     21  H   UNL     1      -0.077   5.733  24.659  0.00  0.00    +0.210 HD
ENDBRANCH  15   3
ENDBRANCH   9  15
TORSDOF 7
ENDMDL
MODEL 2
REMARK VINA RESULT:      -6.0      2.006      4.215
REMARK  Name = 28961576
REMARK  9 active torsions:
REMARK  status: ('A' for Active; 'I' for Inactive)
REMARK    1  A    between atoms: O_2  and  C_8
REMARK    2  A    between atoms: O_3  and  C_15
REMARK    3  A    between atoms: N_4  and  C_6
REMARK    4  A    between atoms: N_5  and  C_14
REMARK    5  A    between atoms: N_5  and  C_16
REMARK    6  A    between atoms: C_7  and  C_14
REMARK    7  A    between atoms: C_9  and  C_15
REMARK    8  A    between atoms: C_16  and  C_17
REMARK    9  A    between atoms: C_16  and  C_18
REMARK                            x       y       z     vdW  Elec       q    Type
REMARK                         _______ _______ _______ _____ _____    ______ ____
ROOT
ATOM      1  O   UNL     1       0.926   1.719  23.596  0.00  0.00    -0.366 OA
ATOM      6  C   UNL     1      -1.113   0.515  23.828  0.00  0.00    +0.118 C 
ATOM      7  C   UNL     1      -0.371   1.797  24.228  0.00  0.00    +0.152 C 
ATOM      8  C   UNL     1       0.017  -0.467  23.555  0.00  0.00    +0.165 C 
ATOM      9  C   UNL     1       1.041   0.459  22.908  0.00  0.00    +0.174 C 
ENDROOT
BRANCH   6   4
ATOM      4  N   UNL     1      -2.132   0.046  24.756  0.00  0.00    -0.295 NA
ATOM     10  C   UNL     1      -3.455   0.590  24.453  0.00  0.00    +0.085 C 
ATOM     11  C   UNL     1      -2.300  -1.407  24.713  0.00  0.00    +0.085 C 
ATOM     12  C   UNL     1      -4.385  -0.307  25.259  0.00  0.00    +0.017 C 
ATOM     13  C   UNL     1      -3.625  -1.617  25.432  0.00  0.00    +0.017 C 
ENDBRANCH   6   4
BRANCH   8   2
ATOM      2  O   UNL     1       0.535  -1.011  24.761  0.00  0.00    -0.388 OA
ATOM     19  H   UNL     1       1.332  -1.521  24.536  0.00  0.00    +0.210 HD
ENDBRANCH   8   2
BRANCH   7  14
ATOM     14  C   UNL     1      -0.136   2.014  25.718  0.00  0.00    +0.114 C 
BRANCH  14   5
ATOM      5  N   UNL     1      -1.094   2.965  26.263  0.00  0.00    -0.311 NA
ATOM     20  H   UNL     1      -1.800   2.451  26.789  0.00  0.00    +0.122 HD
BRANCH   5  16
ATOM     16  C   UNL     1      -1.727   3.735  25.199  0.00  0.00    +0.048 C 
ATOM     17  C   UNL     1      -1.014   5.071  25.018  0.00  0.00    +0.023 C 
ATOM     18  C   UNL     1      -3.202   3.941  25.531  0.00  0.00    +0.023 C 
ENDBRANCH   5  16
ENDBRANCH  14   5
ENDBRANCH   7  14
BRANCH   9  15
ATOM     15  C   UNL     1       2.481  -0.016  22.970  0.00  0.00    +0.190 C 
BRANCH  15   3
ATOM      3  O   UNL     1       3.333   1.113  23.078  0.00  0.00    -0.392 OA
ATOM     21  H   UNL     1       3.000   1.654  23.814  0.00  0.00    +0.210 HD
ENDBRANCH  15   3
ENDBRANCH   9  15
TORSDOF 7
ENDMDL
MODEL 3
REMARK VINA RESULT:      -5.9      2.340      4.272
REMARK  Name = 28961576
REMARK  9 active torsions:
REMARK  status: ('A' for Active; 'I' for Inactive)
REMARK    1  A    between atoms: O_2  and  C_8
REMARK    2  A    between atoms: O_3  and  C_15
REMARK    3  A    between atoms: N_4  and  C_6
REMARK    4  A    between atoms: N_5  and  C_14
REMARK    5  A    between atoms: N_5  and  C_16
REMARK    6  A    between atoms: C_7  and  C_14
REMARK    7  A    between atoms: C_9  and  C_15
REMARK    8  A    between atoms: C_16  and  C_17
REMARK    9  A    between atoms: C_16  and  C_18
REMARK                            x       y       z     vdW  Elec       q    Type
REMARK                         _______ _______ _______ _____ _____    ______ ____
ROOT
ATOM      1  O   UNL     1      -1.467   2.515  23.672  0.00  0.00    -0.366 OA
ATOM      6  C   UNL     1      -1.793   0.179  23.993  0.00  0.00    +0.118 C 
ATOM      7  C   UNL     1      -2.430   1.463  23.443  0.00  0.00    +0.152 C 
ATOM      8  C   UNL     1      -0.832   0.699  25.052  0.00  0.00    +0.165 C 
ATOM      9  C   UNL     1      -0.335   1.972  24.378  0.00  0.00    +0.174 C 
ENDROOT
BRANCH   6   4
ATOM      4  N   UNL     1      -2.714  -0.854  24.443  0.00  0.00    -0.295 NA
ATOM     10  C   UNL     1      -3.797  -1.091  23.490  0.00  0.00    +0.085 C 
ATOM     11  C   UNL     1      -2.060  -2.152  24.606  0.00  0.00    +0.085 C 
ATOM     12  C   UNL     1      -4.374  -2.421  23.953  0.00  0.00    +0.017 C 
ATOM     13  C   UNL     1      -3.235  -3.117  24.690  0.00  0.00    +0.017 C 
ENDBRANCH   6   4
BRANCH   8   2
ATOM      2  O   UNL     1      -1.511   1.012  26.261  0.00  0.00    -0.388 OA
ATOM     19  H   UNL     1      -2.449   0.787  26.139  0.00  0.00    +0.210 HD
ENDBRANCH   8   2
BRANCH   7  14
ATOM     14  C   UNL     1      -3.742   1.902  24.082  0.00  0.00    +0.114 C 
BRANCH  14   5
ATOM      5  N   UNL     1      -3.889   3.350  24.026  0.00  0.00    -0.311 NA
ATOM     20  H   UNL     1      -2.984   3.760  23.797  0.00  0.00    +0.122 HD
BRANCH   5  16
ATOM     16  C   UNL     1      -4.369   3.875  25.298  0.00  0.00    +0.048 C 
ATOM     17  C   UNL     1      -3.201   4.096  26.253  0.00  0.00    +0.023 C 
ATOM     18  C   UNL     1      -5.388   2.907  25.893  0.00  0.00    +0.023 C 
ENDBRANCH   5  16
ENDBRANCH  14   5
ENDBRANCH   7  14
BRANCH   9  15
ATOM     15  C   UNL     1       0.226   3.029  25.312  0.00  0.00    +0.190 C 
BRANCH  15   3
ATOM      3  O   UNL     1       0.810   2.386  26.435  0.00  0.00    -0.392 OA
ATOM     21  H   UNL     1       0.230   2.558  27.196  0.00  0.00    +0.210 HD
ENDBRANCH  15   3
ENDBRANCH   9  15
TORSDOF 7
ENDMDL
MODEL 4
REMARK VINA RESULT:      -5.5      2.738      5.998
REMARK  Name = 28961576
REMARK  9 active torsions:
REMARK  status: ('A' for Active; 'I' for Inactive)
REMARK    1  A    between atoms: O_2  and  C_8
REMARK    2  A    between atoms: O_3  and  C_15
REMARK    3  A    between atoms: N_4  and  C_6
REMARK    4  A    between atoms: N_5  and  C_14
REMARK    5  A    between atoms: N_5  and  C_16
REMARK    6  A    between atoms: C_7  and  C_14
REMARK    7  A    between atoms: C_9  and  C_15
REMARK    8  A    between atoms: C_16  and  C_17
REMARK    9  A    between atoms: C_16  and  C_18
REMARK                            x       y       z     vdW  Elec       q    Type
REMARK                         _______ _______ _______ _____ _____    ______ ____
ROOT
ATOM      1  O   UNL     1      -2.677  -0.600  25.425  0.00  0.00    -0.366 OA
ATOM      6  C   UNL     1      -1.682   1.558  25.546  0.00  0.00    +0.118 C 
ATOM      7  C   UNL     1      -2.999   0.805  25.323  0.00  0.00    +0.152 C 
ATOM      8  C   UNL     1      -0.630   0.548  25.113  0.00  0.00    +0.165 C 
ATOM      9  C   UNL     1      -1.258  -0.744  25.622  0.00  0.00    +0.174 C 
ENDROOT
BRANCH   6   4
ATOM      4  N   UNL     1      -1.576   2.869  24.922  0.00  0.00    -0.295 NA
ATOM     10  C   UNL     1      -2.067   3.941  25.788  0.00  0.00    +0.085 C 
ATOM     11  C   UNL     1      -0.193   3.232  24.616  0.00  0.00    +0.085 C 
ATOM     12  C   UNL     1      -1.514   5.194  25.126  0.00  0.00    +0.017 C 
ATOM     13  C   UNL     1      -0.285   4.729  24.353  0.00  0.00    +0.017 C 
ENDBRANCH   6   4
BRANCH   8   2
ATOM      2  O   UNL     1      -0.496   0.509  23.699  0.00  0.00    -0.388 OA
ATOM     19  H   UNL     1      -0.941   1.295  23.339  0.00  0.00    +0.210 HD
ENDBRANCH   8   2
BRANCH   7  14
ATOM     14  C   UNL     1      -3.687   1.015  23.979  0.00  0.00    +0.114 C 
BRANCH  14   5
ATOM      5  N   UNL     1      -4.471   2.242  23.981  0.00  0.00    -0.311 NA
ATOM     20  H   UNL     1      -3.835   3.035  23.893  0.00  0.00    +0.122 HD
BRANCH   5  16
ATOM     16  C   UNL     1      -5.250   2.361  25.207  0.00  0.00    +0.048 C 
ATOM     17  C   UNL     1      -6.580   1.627  25.061  0.00  0.00    +0.023 C 
ATOM     18  C   UNL     1      -5.471   3.836  25.527  0.00  0.00    +0.023 C 
ENDBRANCH   5  16
ENDBRANCH  14   5
ENDBRANCH   7  14
BRANCH   9  15
ATOM     15  C   UNL     1      -0.784  -2.014  24.938  0.00  0.00    +0.190 C 
BRANCH  15   3
ATOM      3  O   UNL     1      -1.807  -2.478  24.072  0.00  0.00    -0.392 OA
ATOM     21  H   UNL     1      -1.801  -1.905  23.287  0.00  0.00    +0.210 HD
ENDBRANCH  15   3
ENDBRANCH   9  15
TORSDOF 7
ENDMDL
MODEL 5
REMARK VINA RESULT:      -5.3      2.709      4.629
REMARK  Name = 28961576
REMARK  9 active torsions:
REMARK  status: ('A' for Active; 'I' for Inactive)
REMARK    1  A    between atoms: O_2  and  C_8
REMARK    2  A    between atoms: O_3  and  C_15
REMARK    3  A    between atoms: N_4  and  C_6
REMARK    4  A    between atoms: N_5  and  C_14
REMARK    5  A    between atoms: N_5  and  C_16
REMARK    6  A    between atoms: C_7  and  C_14
REMARK    7  A    between atoms: C_9  and  C_15
REMARK    8  A    between atoms: C_16  and  C_17
REMARK    9  A    between atoms: C_16  and  C_18
REMARK                            x       y       z     vdW  Elec       q    Type
REMARK                         _______ _______ _______ _____ _____    ______ ____
ROOT
ATOM      1  O   UNL     1      -0.485  -0.507  23.776  0.00  0.00    -0.366 OA
ATOM      6  C   UNL     1      -2.631   0.485  24.048  0.00  0.00    +0.118 C 
ATOM      7  C   UNL     1      -1.155   0.772  23.743  0.00  0.00    +0.152 C 
ATOM      8  C   UNL     1      -2.571  -0.802  24.857  0.00  0.00    +0.165 C 
ATOM      9  C   UNL     1      -1.434  -1.526  24.146  0.00  0.00    +0.174 C 
ENDROOT
BRANCH   6   4
ATOM      4  N   UNL     1      -3.384   1.569  24.662  0.00  0.00    -0.295 NA
ATOM     10  C   UNL     1      -3.685   2.644  23.717  0.00  0.00    +0.085 C 
ATOM     11  C   UNL     1      -4.685   1.130  25.165  0.00  0.00    +0.085 C 
ATOM     12  C   UNL     1      -4.768   3.436  24.435  0.00  0.00    +0.017 C 
ATOM     13  C   UNL     1      -5.423   2.442  25.389  0.00  0.00    +0.017 C 
ENDBRANCH   6   4
BRANCH   8   2
ATOM      2  O   UNL     1      -2.226  -0.549  26.212  0.00  0.00    -0.388 OA
ATOM     19  H   UNL     1      -2.951  -0.039  26.611  0.00  0.00    +0.210 HD
ENDBRANCH   8   2
BRANCH   7  14
ATOM     14  C   UNL     1      -0.423   1.692  24.713  0.00  0.00    +0.114 C 
BRANCH  14   5
ATOM      5  N   UNL     1      -0.450   3.070  24.246  0.00  0.00    -0.311 NA
ATOM     20  H   UNL     1       0.424   3.267  23.759  0.00  0.00    +0.122 HD
BRANCH   5  16
ATOM     16  C   UNL     1      -0.622   3.995  25.358  0.00  0.00    +0.048 C 
ATOM     17  C   UNL     1      -1.441   3.342  26.467  0.00  0.00    +0.023 C 
ATOM     18  C   UNL     1      -1.295   5.270  24.859  0.00  0.00    +0.023 C 
ENDBRANCH   5  16
ENDBRANCH  14   5
ENDBRANCH   7  14
BRANCH   9  15
ATOM     15  C   UNL     1      -0.729  -2.594  24.963  0.00  0.00    +0.190 C 
BRANCH  15   3
ATOM      3  O   UNL     1       0.259  -1.976  25.773  0.00  0.00    -0.392 OA
ATOM     21  H   UNL     1       0.199  -2.378  26.655  0.00  0.00    +0.210 HD
ENDBRANCH  15   3
ENDBRANCH   9  15
TORSDOF 7
ENDMDL
MODEL 6
REMARK VINA RESULT:      -5.2      2.164      4.465
REMARK  Name = 28961576
REMARK  9 active torsions:
REMARK  status: ('A' for Active; 'I' for Inactive)
REMARK    1  A    between atoms: O_2  and  C_8
REMARK    2  A    between atoms: O_3  and  C_15
REMARK    3  A    between atoms: N_4  and  C_6
REMARK    4  A    between atoms: N_5  and  C_14
REMARK    5  A    between atoms: N_5  and  C_16
REMARK    6  A    between atoms: C_7  and  C_14
REMARK    7  A    between atoms: C_9  and  C_15
REMARK    8  A    between atoms: C_16  and  C_17
REMARK    9  A    between atoms: C_16  and  C_18
REMARK                            x       y       z     vdW  Elec       q    Type
REMARK                         _______ _______ _______ _____ _____    ______ ____
ROOT
ATOM      1  O   UNL     1      -0.784   0.303  25.120  0.00  0.00    -0.366 OA
ATOM      6  C   UNL     1      -2.208   2.209  25.127  0.00  0.00    +0.118 C 
ATOM      7  C   UNL     1      -2.099   0.734  25.533  0.00  0.00    +0.152 C 
ATOM      8  C   UNL     1      -1.235   2.318  23.962  0.00  0.00    +0.165 C 
ATOM      9  C   UNL     1      -0.126   1.387  24.437  0.00  0.00    +0.174 C 
ENDROOT
BRANCH   6   4
ATOM      4  N   UNL     1      -3.550   2.707  24.862  0.00  0.00    -0.295 NA
ATOM     10  C   UNL     1      -4.577   1.689  25.085  0.00  0.00    +0.085 C 
ATOM     11  C   UNL     1      -3.918   3.816  25.741  0.00  0.00    +0.085 C 
ATOM     12  C   UNL     1      -5.860   2.505  25.137  0.00  0.00    +0.017 C 
ATOM     13  C   UNL     1      -5.428   3.903  25.565  0.00  0.00    +0.017 C 
ENDBRANCH   6   4
BRANCH   8   2
ATOM      2  O   UNL     1      -1.809   1.830  22.757  0.00  0.00    -0.388 OA
ATOM     19  H   UNL     1      -1.735   2.533  22.090  0.00  0.00    +0.210 HD
ENDBRANCH   8   2
BRANCH   7  14
ATOM     14  C   UNL     1      -3.106  -0.223  24.906  0.00  0.00    +0.114 C 
BRANCH  14   5
ATOM      5  N   UNL     1      -3.279  -1.411  25.731  0.00  0.00    -0.311 NA
ATOM     20  H   UNL     1      -2.519  -1.450  26.409  0.00  0.00    +0.122 HD
BRANCH   5  16
ATOM     16  C   UNL     1      -3.283  -2.617  24.914  0.00  0.00    +0.048 C 
ATOM     17  C   UNL     1      -1.890  -2.876  24.347  0.00  0.00    +0.023 C 
ATOM     18  C   UNL     1      -4.311  -2.469  23.796  0.00  0.00    +0.023 C 
ENDBRANCH   5  16
ENDBRANCH  14   5
ENDBRANCH   7  14
BRANCH   9  15
ATOM     15  C   UNL     1       0.765   0.824  23.345  0.00  0.00    +0.190 C 
BRANCH  15   3
ATOM      3  O   UNL     1       2.081   1.325  23.522  0.00  0.00    -0.392 OA
ATOM     21  H   UNL     1       2.331   1.773  22.696  0.00  0.00    +0.210 HD
ENDBRANCH  15   3
ENDBRANCH   9  15
TORSDOF 7
ENDMDL
MODEL 7
REMARK VINA RESULT:      -5.0      2.946      4.836
REMARK  Name = 28961576
REMARK  9 active torsions:
REMARK  status: ('A' for Active; 'I' for Inactive)
REMARK    1  A    between atoms: O_2  and  C_8
REMARK    2  A    between atoms: O_3  and  C_15
REMARK    3  A    between atoms: N_4  and  C_6
REMARK    4  A    between atoms: N_5  and  C_14
REMARK    5  A    between atoms: N_5  and  C_16
REMARK    6  A    between atoms: C_7  and  C_14
REMARK    7  A    between atoms: C_9  and  C_15
REMARK    8  A    between atoms: C_16  and  C_17
REMARK    9  A    between atoms: C_16  and  C_18
REMARK                            x       y       z     vdW  Elec       q    Type
REMARK                         _______ _______ _______ _____ _____    ______ ____
ROOT
ATOM      1  O   UNL     1      -2.148  -0.823  23.581  0.00  0.00    -0.366 OA
ATOM      6  C   UNL     1      -3.900   0.662  24.203  0.00  0.00    +0.118 C 
ATOM      7  C   UNL     1      -2.436   0.582  23.752  0.00  0.00    +0.152 C 
ATOM      8  C   UNL     1      -4.129  -0.686  24.871  0.00  0.00    +0.165 C 
ATOM      9  C   UNL     1      -3.306  -1.592  23.963  0.00  0.00    +0.174 C 
ENDROOT
BRANCH   6   4
ATOM      4  N   UNL     1      -4.264   1.821  25.005  0.00  0.00    -0.295 NA
ATOM     10  C   UNL     1      -4.081   3.079  24.282  0.00  0.00    +0.085 C 
ATOM     11  C   UNL     1      -5.674   1.810  25.395  0.00  0.00    +0.085 C 
ATOM     12  C   UNL     1      -4.865   4.074  25.125  0.00  0.00    +0.017 C 
ATOM     13  C   UNL     1      -5.910   3.240  25.859  0.00  0.00    +0.017 C 
ENDBRANCH   6   4
BRANCH   8   2
ATOM      2  O   UNL     1      -3.607  -0.706  26.193  0.00  0.00    -0.388 OA
ATOM     19  H   UNL     1      -4.204  -0.183  26.754  0.00  0.00    +0.210 HD
ENDBRANCH   8   2
BRANCH   7  14
ATOM     14  C   UNL     1      -1.394   1.144  24.711  0.00  0.00    +0.114 C 
BRANCH  14   5
ATOM      5  N   UNL     1      -0.654   2.236  24.095  0.00  0.00    -0.311 NA
ATOM     20  H   UNL     1       0.118   1.842  23.557  0.00  0.00    +0.122 HD
BRANCH   5  16
ATOM     16  C   UNL     1      -0.143   3.155  25.104  0.00  0.00    +0.048 C 
ATOM     17  C   UNL     1      -0.200   2.509  26.485  0.00  0.00    +0.023 C 
ATOM     18  C   UNL     1      -0.954   4.447  25.069  0.00  0.00    +0.023 C 
ENDBRANCH   5  16
ENDBRANCH  14   5
ENDBRANCH   7  14
BRANCH   9  15
ATOM     15  C   UNL     1      -2.855  -2.902  24.581  0.00  0.00    +0.190 C 
BRANCH  15   3
ATOM      3  O   UNL     1      -1.509  -2.769  25.009  0.00  0.00    -0.392 OA
ATOM     21  H   UNL     1      -1.123  -2.025  24.517  0.00  0.00    +0.210 HD
ENDBRANCH  15   3
ENDBRANCH   9  15
TORSDOF 7
ENDMDL
MODEL 8
REMARK VINA RESULT:      -4.2      2.097      4.241
REMARK  Name = 28961576
REMARK  9 active torsions:
REMARK  status: ('A' for Active; 'I' for Inactive)
REMARK    1  A    between atoms: O_2  and  C_8
REMARK    2  A    between atoms: O_3  and  C_15
REMARK    3  A    between atoms: N_4  and  C_6
REMARK    4  A    between atoms: N_5  and  C_14
REMARK    5  A    between atoms: N_5  and  C_16
REMARK    6  A    between atoms: C_7  and  C_14
REMARK    7  A    between atoms: C_9  and  C_15
REMARK    8  A    between atoms: C_16  and  C_17
REMARK    9  A    between atoms: C_16  and  C_18
REMARK                            x       y       z     vdW  Elec       q    Type
REMARK                         _______ _______ _______ _____ _____    ______ ____
ROOT
ATOM      1  O   UNL     1      -0.939  -0.752  23.440  0.00  0.00    -0.366 OA
ATOM      6  C   UNL     1      -1.944   1.250  24.241  0.00  0.00    +0.118 C 
ATOM      7  C   UNL     1      -0.686   0.662  23.589  0.00  0.00    +0.152 C 
ATOM      8  C   UNL     1      -2.530   0.064  24.992  0.00  0.00    +0.165 C 
ATOM      9  C   UNL     1      -2.222  -1.065  24.015  0.00  0.00    +0.174 C 
ENDROOT
BRANCH   6   4
ATOM      4  N   UNL     1      -1.755   2.455  25.035  0.00  0.00    -0.295 NA
ATOM     10  C   UNL     1      -1.074   3.514  24.291  0.00  0.00    +0.085 C 
ATOM     11  C   UNL     1      -3.021   3.047  25.464  0.00  0.00    +0.085 C 
ATOM     12  C   UNL     1      -1.333   4.749  25.140  0.00  0.00    +0.017 C 
ATOM     13  C   UNL     1      -2.611   4.442  25.914  0.00  0.00    +0.017 C 
ENDBRANCH   6   4
BRANCH   8   2
ATOM      2  O   UNL     1      -1.858  -0.154  26.226  0.00  0.00    -0.388 OA
ATOM     19  H   UNL     1      -2.508  -0.507  26.856  0.00  0.00    +0.210 HD
ENDBRANCH   8   2
BRANCH   7  14
ATOM     14  C   UNL     1       0.617   0.809  24.366  0.00  0.00    +0.114 C 
BRANCH  14   5
ATOM      5  N   UNL     1       1.668   1.358  23.520  0.00  0.00    -0.311 NA
ATOM     20  H   UNL     1       1.234   1.855  22.743  0.00  0.00    +0.122 HD
BRANCH   5  16
ATOM     16  C   UNL     1       2.536   0.302  23.016  0.00  0.00    +0.048 C 
ATOM     17  C   UNL     1       3.953   0.831  22.818  0.00  0.00    +0.023 C 
ATOM     18  C   UNL     1       1.967  -0.242  21.709  0.00  0.00    +0.023 C 
ENDBRANCH   5  16
ENDBRANCH  14   5
ENDBRANCH   7  14
BRANCH   9  15
ATOM     15  C   UNL     1      -2.174  -2.456  24.619  0.00  0.00    +0.190 C 
BRANCH  15   3
ATOM      3  O   UNL     1      -3.371  -2.682  25.348  0.00  0.00    -0.392 OA
ATOM     21  H   UNL     1      -3.172  -2.517  26.284  0.00  0.00    +0.210 HD
ENDBRANCH  15   3
ENDBRANCH   9  15
TORSDOF 7
ENDMDL
MODEL 9
REMARK VINA RESULT:      -4.2      2.553      4.554
REMARK  Name = 28961576
REMARK  9 active torsions:
REMARK  status: ('A' for Active; 'I' for Inactive)
REMARK    1  A    between atoms: O_2  and  C_8
REMARK    2  A    between atoms: O_3  and  C_15
REMARK    3  A    between atoms: N_4  and  C_6
REMARK    4  A    between atoms: N_5  and  C_14
REMARK    5  A    between atoms: N_5  and  C_16
REMARK    6  A    between atoms: C_7  and  C_14
REMARK    7  A    between atoms: C_9  and  C_15
REMARK    8  A    between atoms: C_16  and  C_17
REMARK    9  A    between atoms: C_16  and  C_18
REMARK                            x       y       z     vdW  Elec       q    Type
REMARK                         _______ _______ _______ _____ _____    ______ ____
ROOT
ATOM      1  O   UNL     1      -2.405  -0.984  23.697  0.00  0.00    -0.366 OA
ATOM      6  C   UNL     1      -3.829   0.875  24.120  0.00  0.00    +0.118 C 
ATOM      7  C   UNL     1      -2.369   0.439  23.938  0.00  0.00    +0.152 C 
ATOM      8  C   UNL     1      -4.507  -0.395  24.612  0.00  0.00    +0.165 C 
ATOM      9  C   UNL     1      -3.767  -1.444  23.791  0.00  0.00    +0.174 C 
ENDROOT
BRANCH   6   4
ATOM      4  N   UNL     1      -4.050   2.055  24.942  0.00  0.00    -0.295 NA
ATOM     10  C   UNL     1      -3.483   3.265  24.347  0.00  0.00    +0.085 C 
ATOM     11  C   UNL     1      -5.471   2.351  25.123  0.00  0.00    +0.085 C 
ATOM     12  C   UNL     1      -4.152   4.380  25.138  0.00  0.00    +0.017 C 
ATOM     13  C   UNL     1      -5.457   3.779  25.650  0.00  0.00    +0.017 C 
ENDBRANCH   6   4
BRANCH   8   2
ATOM      2  O   UNL     1      -4.280  -0.602  26.000  0.00  0.00    -0.388 OA
ATOM     19  H   UNL     1      -3.376  -0.945  26.102  0.00  0.00    +0.210 HD
ENDBRANCH   8   2
BRANCH   7  14
ATOM     14  C   UNL     1      -1.433   0.676  25.118  0.00  0.00    +0.114 C 
BRANCH  14   5
ATOM      5  N   UNL     1      -0.187  -0.058  24.949  0.00  0.00    -0.311 NA
ATOM     20  H   UNL     1       0.181  -0.292  25.872  0.00  0.00    +0.122 HD
BRANCH   5  16
ATOM     16  C   UNL     1       0.787   0.732  24.208  0.00  0.00    +0.048 C 
ATOM     17  C   UNL     1       0.331   2.184  24.116  0.00  0.00    +0.023 C 
ATOM     18  C   UNL     1       0.978   0.129  22.819  0.00  0.00    +0.023 C 
ENDBRANCH   5  16
ENDBRANCH  14   5
ENDBRANCH   7  14
BRANCH   9  15
ATOM     15  C   UNL     1      -3.782  -2.850  24.362  0.00  0.00    +0.190 C 
BRANCH  15   3
ATOM      3  O   UNL     1      -2.935  -2.894  25.499  0.00  0.00    -0.392 OA
ATOM     21  H   UNL     1      -2.474  -2.040  25.546  0.00  0.00    +0.210 HD
ENDBRANCH  15   3
ENDBRANCH   9  15
TORSDOF 7
ENDMDL
MODEL 10
REMARK VINA RESULT:      -4.0      2.737      5.795
REMARK  Name = 28961576
REMARK  9 active torsions:
REMARK  status: ('A' for Active; 'I' for Inactive)
REMARK    1  A    between atoms: O_2  and  C_8
REMARK    2  A    between atoms: O_3  and  C_15
REMARK    3  A    between atoms: N_4  and  C_6
REMARK    4  A    between atoms: N_5  and  C_14
REMARK    5  A    between atoms: N_5  and  C_16
REMARK    6  A    between atoms: C_7  and  C_14
REMARK    7  A    between atoms: C_9  and  C_15
REMARK    8  A    between atoms: C_16  and  C_17
REMARK    9  A    between atoms: C_16  and  C_18
REMARK                            x       y       z     vdW  Elec       q    Type
REMARK                         _______ _______ _______ _____ _____    ______ ____
ROOT
ATOM      1  O   UNL     1      -4.164  -0.964  25.437  0.00  0.00    -0.366 OA
ATOM      6  C   UNL     1      -2.073   0.170  25.505  0.00  0.00    +0.118 C 
ATOM      7  C   UNL     1      -3.592   0.362  25.409  0.00  0.00    +0.152 C 
ATOM      8  C   UNL     1      -1.866  -1.223  24.931  0.00  0.00    +0.165 C 
ATOM      9  C   UNL     1      -3.101  -1.935  25.471  0.00  0.00    +0.174 C 
ENDROOT
BRANCH   6   4
ATOM      4  N   UNL     1      -1.254   1.215  24.909  0.00  0.00    -0.295 NA
ATOM     10  C   UNL     1      -0.731   2.150  25.904  0.00  0.00    +0.085 C 
ATOM     11  C   UNL     1      -0.072   0.681  24.233  0.00  0.00    +0.085 C 
ATOM     12  C   UNL     1       0.368   2.879  25.144  0.00  0.00    +0.017 C 
ATOM     13  C   UNL     1       0.799   1.915  24.043  0.00  0.00    +0.017 C 
ENDBRANCH   6   4
BRANCH   8   2
ATOM      2  O   UNL     1      -1.885  -1.209  23.510  0.00  0.00    -0.388 OA
ATOM     19  H   UNL     1      -1.123  -1.726  23.199  0.00  0.00    +0.210 HD
ENDBRANCH   8   2
BRANCH   7  14
ATOM     14  C   UNL     1      -4.116   1.055  24.157  0.00  0.00    +0.114 C 
BRANCH  14   5
ATOM      5  N   UNL     1      -3.648   2.432  24.089  0.00  0.00    -0.311 NA
ATOM     20  H   UNL     1      -2.706   2.476  24.477  0.00  0.00    +0.122 HD
BRANCH   5  16
ATOM     16  C   UNL     1      -4.535   3.321  24.829  0.00  0.00    +0.048 C 
ATOM     17  C   UNL     1      -3.792   3.952  26.003  0.00  0.00    +0.023 C 
ATOM     18  C   UNL     1      -5.753   2.537  25.309  0.00  0.00    +0.023 C 
ENDBRANCH   5  16
ENDBRANCH  14   5
ENDBRANCH   7  14
BRANCH   9  15
ATOM     15  C   UNL     1      -3.528  -3.173  24.705  0.00  0.00    +0.190 C 
BRANCH  15   3
ATOM      3  O   UNL     1      -4.366  -2.781  23.628  0.00  0.00    -0.392 OA
ATOM     21  H   UNL     1      -5.259  -2.658  23.991  0.00  0.00    +0.210 HD
ENDBRANCH  15   3
ENDBRANCH   9  15
TORSDOF 7
ENDMDL
