MODEL 1
REMARK VINA RESULT:      14.3      0.000      0.000
REMARK  Name = 71693707
REMARK  7 active torsions:
REMARK  status: ('A' for Active; 'I' for Inactive)
REMARK    1  A    between atoms: O_3  and  C_17
REMARK    2  A    between atoms: N_6  and  C_9
REMARK    3  A    between atoms: N_7  and  C_24
REMARK    4  A    between atoms: C_10  and  C_17
REMARK    5  A    between atoms: C_11  and  C_19
REMARK    6  A    between atoms: C_25  and  C_26
REMARK    7  A    between atoms: C_31  and  C_32
REMARK                            x       y       z     vdW  Elec       q    Type
REMARK                         _______ _______ _______ _____ _____    ______ ____
ROOT
ATOM     19  C   UNL     1      -2.757  -0.037  24.609  0.00  0.00    -0.017 A 
ATOM     20  C   UNL     1      -2.066  -1.212  24.906  0.00  0.00    +0.008 A 
ATOM     21  C   UNL     1      -2.067   1.073  24.120  0.00  0.00    +0.008 A 
ATOM     22  C   UNL     1      -0.685  -1.276  24.716  0.00  0.00    +0.023 A 
ATOM     23  C   UNL     1      -0.687   1.008  23.930  0.00  0.00    +0.023 A 
ATOM     24  C   UNL     1       0.004  -0.166  24.227  0.00  0.00    +0.034 A 
ENDROOT
BRANCH  19  11
ATOM      1  O   UNL     1      -4.513  -0.318  26.178  0.00  0.00    -0.361 OA
ATOM      4  O   UNL     1      -6.067   2.317  27.711  0.00  0.00    -0.273 OA
ATOM      6  N   UNL     1      -5.106   2.256  25.586  0.00  0.00    -0.288 N 
ATOM     10  C   UNL     1      -4.814   1.426  24.412  0.00  0.00    +0.135 C 
ATOM     11  C   UNL     1      -4.258   0.034  24.814  0.00  0.00    +0.171 C 
ATOM     14  C   UNL     1      -5.658   1.693  26.734  0.00  0.00    +0.242 C 
ATOM     18  C   UNL     1      -5.734   0.187  26.678  0.00  0.00    +0.256 C 
BRANCH   6   9
ATOM      2  O   UNL     1      -3.219   5.918  24.876  0.00  0.00    -0.380 OA
ATOM      9  C   UNL     1      -4.932   3.682  25.468  0.00  0.00    +0.081 C 
ATOM     12  C   UNL     1      -3.877   4.192  26.452  0.00  0.00    +0.050 C 
ATOM     13  C   UNL     1      -4.553   4.069  24.038  0.00  0.00    +0.050 C 
ATOM     15  C   UNL     1      -3.606   5.674  26.228  0.00  0.00    +0.161 C 
ATOM     16  C   UNL     1      -4.242   5.558  23.949  0.00  0.00    +0.161 C 
ENDBRANCH   6   9
BRANCH  10  17
ATOM     17  C   UNL     1      -6.056   1.290  23.522  0.00  0.00    +0.181 C 
BRANCH  17   3
ATOM      3  O   UNL     1      -7.184   1.680  24.277  0.00  0.00    -0.393 OA
ATOM     33  H   UNL     1      -7.872   1.006  24.136  0.00  0.00    +0.209 HD
ENDBRANCH  17   3
ENDBRANCH  10  17
ENDBRANCH  19  11
BRANCH  24   7
ATOM      5  O   UNL     1       1.601  -0.453  21.706  0.00  0.00    -0.270 OA
ATOM      7  N   UNL     1       1.385  -0.231  24.037  0.00  0.00    -0.282 N 
ATOM     25  C   UNL     1       2.084  -0.366  22.830  0.00  0.00    +0.248 C 
ATOM     34  H   UNL     1       1.921  -0.123  24.893  0.00  0.00    +0.155 HD
BRANCH  25  26
ATOM     26  C   UNL     1       3.566  -0.376  22.949  0.00  0.00    +0.037 A 
ATOM     27  C   UNL     1       4.207  -1.429  23.601  0.00  0.00    +0.014 A 
ATOM     28  C   UNL     1       4.314   0.667  22.406  0.00  0.00    +0.014 A 
ATOM     29  C   UNL     1       5.597  -1.437  23.711  0.00  0.00    +0.019 A 
ATOM     30  C   UNL     1       5.706   0.659  22.515  0.00  0.00    +0.019 A 
ATOM     31  C   UNL     1       6.346  -0.394  23.168  0.00  0.00    +0.052 A 
BRANCH  31  32
ATOM      8  N   UNL     1       8.928  -0.412  23.373  0.00  0.00    -0.191 NA
ATOM     32  C   UNL     1       7.771  -0.404  23.281  0.00  0.00    +0.099 C 
ENDBRANCH  31  32
ENDBRANCH  25  26
ENDBRANCH  24   7
TORSDOF 7
ENDMDL
MODEL 2
REMARK VINA RESULT:      15.1      1.630      2.306
REMARK  Name = 71693707
REMARK  7 active torsions:
REMARK  status: ('A' for Active; 'I' for Inactive)
REMARK    1  A    between atoms: O_3  and  C_17
REMARK    2  A    between atoms: N_6  and  C_9
REMARK    3  A    between atoms: N_7  and  C_24
REMARK    4  A    between atoms: C_10  and  C_17
REMARK    5  A    between atoms: C_11  and  C_19
REMARK    6  A    between atoms: C_25  and  C_26
REMARK    7  A    between atoms: C_31  and  C_32
REMARK                            x       y       z     vdW  Elec       q    Type
REMARK                         _______ _______ _______ _____ _____    ______ ____
ROOT
ATOM     19  C   UNL     1      -1.344  -1.449  24.597  0.00  0.00    -0.017 A 
ATOM     20  C   UNL     1      -0.415  -2.265  25.242  0.00  0.00    +0.008 A 
ATOM     21  C   UNL     1      -0.908  -0.445  23.731  0.00  0.00    +0.008 A 
ATOM     22  C   UNL     1       0.950  -2.078  25.022  0.00  0.00    +0.023 A 
ATOM     23  C   UNL     1       0.456  -0.258  23.512  0.00  0.00    +0.023 A 
ATOM     24  C   UNL     1       1.385  -1.074  24.157  0.00  0.00    +0.034 A 
ENDROOT
BRANCH  19  11
ATOM      1  O   UNL     1      -3.061  -1.462  26.235  0.00  0.00    -0.361 OA
ATOM      4  O   UNL     1      -5.263   1.127  26.631  0.00  0.00    -0.273 OA
ATOM      6  N   UNL     1      -4.211   0.424  24.670  0.00  0.00    -0.288 N 
ATOM     10  C   UNL     1      -3.674  -0.721  23.927  0.00  0.00    +0.135 C 
ATOM     11  C   UNL     1      -2.829  -1.653  24.835  0.00  0.00    +0.171 C 
ATOM     14  C   UNL     1      -4.672   0.272  25.976  0.00  0.00    +0.242 C 
ATOM     18  C   UNL     1      -4.390  -1.097  26.547  0.00  0.00    +0.256 C 
BRANCH   6   9
ATOM      2  O   UNL     1      -3.349   4.284  23.313  0.00  0.00    -0.380 OA
ATOM      9  C   UNL     1      -4.370   1.674  23.968  0.00  0.00    +0.081 C 
ATOM     12  C   UNL     1      -4.436   2.851  24.944  0.00  0.00    +0.050 C 
ATOM     13  C   UNL     1      -3.238   1.883  22.962  0.00  0.00    +0.050 C 
ATOM     15  C   UNL     1      -4.470   4.173  24.189  0.00  0.00    +0.161 C 
ATOM     16  C   UNL     1      -3.338   3.260  22.319  0.00  0.00    +0.161 C 
ENDBRANCH   6   9
BRANCH  10  17
ATOM     17  C   UNL     1      -4.805  -1.496  23.238  0.00  0.00    +0.181 C 
BRANCH  17   3
ATOM      3  O   UNL     1      -4.632  -2.870  23.518  0.00  0.00    -0.393 OA
ATOM     33  H   UNL     1      -5.449  -3.324  23.250  0.00  0.00    +0.209 HD
ENDBRANCH  17   3
ENDBRANCH  10  17
ENDBRANCH  19  11
BRANCH  24   7
ATOM      5  O   UNL     1       2.863   1.285  23.044  0.00  0.00    -0.270 OA
ATOM      7  N   UNL     1       2.750  -0.887  23.937  0.00  0.00    -0.282 N 
ATOM     25  C   UNL     1       3.393   0.242  23.412  0.00  0.00    +0.248 C 
ATOM     34  H   UNL     1       3.325  -1.667  24.244  0.00  0.00    +0.155 HD
BRANCH  25  26
ATOM     26  C   UNL     1       4.874   0.150  23.324  0.00  0.00    +0.037 A 
ATOM     27  C   UNL     1       5.672   1.045  24.035  0.00  0.00    +0.014 A 
ATOM     28  C   UNL     1       5.464  -0.835  22.533  0.00  0.00    +0.014 A 
ATOM     29  C   UNL     1       7.061   0.958  23.953  0.00  0.00    +0.019 A 
ATOM     30  C   UNL     1       6.855  -0.923  22.451  0.00  0.00    +0.019 A 
ATOM     31  C   UNL     1       7.653  -0.026  23.161  0.00  0.00    +0.052 A 
BRANCH  31  32
ATOM      8  N   UNL     1      10.233  -0.188  23.010  0.00  0.00    -0.191 NA
ATOM     32  C   UNL     1       9.076  -0.116  23.078  0.00  0.00    +0.099 C 
ENDBRANCH  31  32
ENDBRANCH  25  26
ENDBRANCH  24   7
TORSDOF 7
ENDMDL
MODEL 3
REMARK VINA RESULT:      15.5      1.755      2.380
REMARK  Name = 71693707
REMARK  7 active torsions:
REMARK  status: ('A' for Active; 'I' for Inactive)
REMARK    1  A    between atoms: O_3  and  C_17
REMARK    2  A    between atoms: N_6  and  C_9
REMARK    3  A    between atoms: N_7  and  C_24
REMARK    4  A    between atoms: C_10  and  C_17
REMARK    5  A    between atoms: C_11  and  C_19
REMARK    6  A    between atoms: C_25  and  C_26
REMARK    7  A    between atoms: C_31  and  C_32
REMARK                            x       y       z     vdW  Elec       q    Type
REMARK                         _______ _______ _______ _____ _____    ______ ____
ROOT
ATOM     19  C   UNL     1      -1.151   0.397  22.993  0.00  0.00    -0.017 A 
ATOM     20  C   UNL     1      -0.440  -0.512  22.209  0.00  0.00    +0.008 A 
ATOM     21  C   UNL     1      -0.467   1.283  23.826  0.00  0.00    +0.008 A 
ATOM     22  C   UNL     1       0.954  -0.536  22.259  0.00  0.00    +0.023 A 
ATOM     23  C   UNL     1       0.926   1.259  23.875  0.00  0.00    +0.023 A 
ATOM     24  C   UNL     1       1.637   0.350  23.092  0.00  0.00    +0.034 A 
ENDROOT
BRANCH  19  11
ATOM      1  O   UNL     1      -3.134  -0.730  23.644  0.00  0.00    -0.361 OA
ATOM      4  O   UNL     1      -5.080   0.305  26.262  0.00  0.00    -0.273 OA
ATOM      6  N   UNL     1      -3.762   1.612  24.847  0.00  0.00    -0.288 N 
ATOM     10  C   UNL     1      -3.223   1.764  23.491  0.00  0.00    +0.135 C 
ATOM     11  C   UNL     1      -2.667   0.424  22.938  0.00  0.00    +0.171 C 
ATOM     14  C   UNL     1      -4.472   0.469  25.206  0.00  0.00    +0.242 C 
ATOM     18  C   UNL     1      -4.451  -0.601  24.141  0.00  0.00    +0.256 C 
BRANCH   6   9
ATOM      2  O   UNL     1      -3.338   5.566  26.139  0.00  0.00    -0.380 OA
ATOM      9  C   UNL     1      -3.652   2.732  25.749  0.00  0.00    +0.081 C 
ATOM     12  C   UNL     1      -2.304   3.438  25.589  0.00  0.00    +0.050 C 
ATOM     13  C   UNL     1      -4.798   3.721  25.535  0.00  0.00    +0.050 C 
ATOM     15  C   UNL     1      -2.251   4.694  26.449  0.00  0.00    +0.161 C 
ATOM     16  C   UNL     1      -4.604   4.961  26.397  0.00  0.00    +0.161 C 
ENDBRANCH   6   9
BRANCH  10  17
ATOM     17  C   UNL     1      -4.282   2.353  22.550  0.00  0.00    +0.181 C 
BRANCH  17   3
ATOM      3  O   UNL     1      -3.960   3.709  22.318  0.00  0.00    -0.393 OA
ATOM     33  H   UNL     1      -4.797   4.204  22.298  0.00  0.00    +0.209 HD
ENDBRANCH  17   3
ENDBRANCH  10  17
ENDBRANCH  19  11
BRANCH  24   7
ATOM      5  O   UNL     1       3.511  -1.854  23.880  0.00  0.00    -0.270 OA
ATOM      7  N   UNL     1       3.031   0.326  23.142  0.00  0.00    -0.282 N 
ATOM     25  C   UNL     1       3.863  -0.736  23.519  0.00  0.00    +0.248 C 
ATOM     34  H   UNL     1       3.467   1.187  22.821  0.00  0.00    +0.155 HD
BRANCH  25  26
ATOM     26  C   UNL     1       5.322  -0.462  23.442  0.00  0.00    +0.037 A 
ATOM     27  C   UNL     1       5.854   0.669  24.059  0.00  0.00    +0.014 A 
ATOM     28  C   UNL     1       6.159  -1.340  22.752  0.00  0.00    +0.014 A 
ATOM     29  C   UNL     1       7.224   0.924  23.986  0.00  0.00    +0.019 A 
ATOM     30  C   UNL     1       7.529  -1.086  22.679  0.00  0.00    +0.019 A 
ATOM     31  C   UNL     1       8.061   0.046  23.296  0.00  0.00    +0.052 A 
BRANCH  31  32
ATOM      8  N   UNL     1      10.603   0.521  23.162  0.00  0.00    -0.191 NA
ATOM     32  C   UNL     1       9.463   0.308  23.222  0.00  0.00    +0.099 C 
ENDBRANCH  31  32
ENDBRANCH  25  26
ENDBRANCH  24   7
TORSDOF 7
ENDMDL
MODEL 4
REMARK VINA RESULT:      15.9      1.710      3.937
REMARK  Name = 71693707
REMARK  7 active torsions:
REMARK  status: ('A' for Active; 'I' for Inactive)
REMARK    1  A    between atoms: O_3  and  C_17
REMARK    2  A    between atoms: N_6  and  C_9
REMARK    3  A    between atoms: N_7  and  C_24
REMARK    4  A    between atoms: C_10  and  C_17
REMARK    5  A    between atoms: C_11  and  C_19
REMARK    6  A    between atoms: C_25  and  C_26
REMARK    7  A    between atoms: C_31  and  C_32
REMARK                            x       y       z     vdW  Elec       q    Type
REMARK                         _______ _______ _______ _____ _____    ______ ____
ROOT
ATOM     19  C   UNL     1      -1.292   2.906  24.632  0.00  0.00    -0.017 A 
ATOM     20  C   UNL     1      -0.344   3.790  24.116  0.00  0.00    +0.008 A 
ATOM     21  C   UNL     1      -0.932   1.590  24.924  0.00  0.00    +0.008 A 
ATOM     22  C   UNL     1       0.964   3.358  23.892  0.00  0.00    +0.023 A 
ATOM     23  C   UNL     1       0.375   1.159  24.700  0.00  0.00    +0.023 A 
ATOM     24  C   UNL     1       1.323   2.042  24.185  0.00  0.00    +0.034 A 
ENDROOT
BRANCH  19  11
ATOM      1  O   UNL     1      -3.270   3.717  23.602  0.00  0.00    -0.361 OA
ATOM      4  O   UNL     1      -6.010   1.745  23.043  0.00  0.00    -0.273 OA
ATOM      6  N   UNL     1      -4.445   1.574  24.766  0.00  0.00    -0.288 N 
ATOM     10  C   UNL     1      -3.531   2.306  25.649  0.00  0.00    +0.135 C 
ATOM     11  C   UNL     1      -2.714   3.375  24.876  0.00  0.00    +0.171 C 
ATOM     14  C   UNL     1      -5.125   2.232  23.743  0.00  0.00    +0.242 C 
ATOM     18  C   UNL     1      -4.681   3.664  23.562  0.00  0.00    +0.256 C 
BRANCH   6   9
ATOM      2  O   UNL     1      -3.825  -2.544  25.138  0.00  0.00    -0.380 OA
ATOM      9  C   UNL     1      -4.718   0.191  25.069  0.00  0.00    +0.081 C 
ATOM     12  C   UNL     1      -4.633  -0.677  23.812  0.00  0.00    +0.050 C 
ATOM     13  C   UNL     1      -3.762  -0.332  26.140  0.00  0.00    +0.050 C 
ATOM     15  C   UNL     1      -4.792  -2.150  24.165  0.00  0.00    +0.161 C 
ATOM     16  C   UNL     1      -3.968  -1.825  26.362  0.00  0.00    +0.161 C 
ENDBRANCH   6   9
BRANCH  10  17
ATOM     17  C   UNL     1      -4.299   2.936  26.820  0.00  0.00    +0.181 C 
BRANCH  17   3
ATOM      3  O   UNL     1      -5.681   2.798  26.565  0.00  0.00    -0.393 OA
ATOM     33  H   UNL     1      -5.947   3.545  26.002  0.00  0.00    +0.209 HD
ENDBRANCH  17   3
ENDBRANCH  10  17
ENDBRANCH  19  11
BRANCH  24   7
ATOM      5  O   UNL     1       2.363  -0.173  22.453  0.00  0.00    -0.270 OA
ATOM      7  N   UNL     1       2.631   1.611  23.961  0.00  0.00    -0.282 N 
ATOM     25  C   UNL     1       3.065   0.564  23.137  0.00  0.00    +0.248 C 
ATOM     34  H   UNL     1       3.333   2.170  24.437  0.00  0.00    +0.155 HD
BRANCH  25  26
ATOM     26  C   UNL     1       4.537   0.363  23.084  0.00  0.00    +0.037 A 
ATOM     27  C   UNL     1       5.355   0.931  24.059  0.00  0.00    +0.014 A 
ATOM     28  C   UNL     1       5.098  -0.398  22.058  0.00  0.00    +0.014 A 
ATOM     29  C   UNL     1       6.736   0.741  24.007  0.00  0.00    +0.019 A 
ATOM     30  C   UNL     1       6.479  -0.589  22.007  0.00  0.00    +0.019 A 
ATOM     31  C   UNL     1       7.298  -0.020  22.982  0.00  0.00    +0.052 A 
BRANCH  31  32
ATOM      8  N   UNL     1       9.862  -0.373  22.889  0.00  0.00    -0.191 NA
ATOM     32  C   UNL     1       8.712  -0.214  22.931  0.00  0.00    +0.099 C 
ENDBRANCH  31  32
ENDBRANCH  25  26
ENDBRANCH  24   7
TORSDOF 7
ENDMDL
