MODEL 1
REMARK VINA RESULT:      -5.6      0.000      0.000
REMARK  Name = 86769373
REMARK  11 active torsions:
REMARK  status: ('A' for Active; 'I' for Inactive)
REMARK    1  A    between atoms: O_2  and  C_8
REMARK    2  A    between atoms: O_4  and  C_20
REMARK    3  A    between atoms: O_4  and  C_21
REMARK    4  A    between atoms: N_5  and  C_12
REMARK    5  A    between atoms: N_5  and  C_15
REMARK    6  A    between atoms: C_7  and  C_12
REMARK    7  A    between atoms: C_9  and  C_13
REMARK    8  A    between atoms: C_13  and  C_14
REMARK    9  A    between atoms: C_15  and  C_17
REMARK   10  A    between atoms: C_15  and  C_18
REMARK   11  A    between atoms: C_19  and  C_20
REMARK                            x       y       z     vdW  Elec       q    Type
REMARK                         _______ _______ _______ _____ _____    ______ ____
ROOT
ATOM      1  O   UNL     1      -3.063   1.335  25.566  0.00  0.00    -0.369 OA
ATOM      7  C   UNL     1      -4.440   1.014  25.322  0.00  0.00    +0.161 C 
ATOM      8  C   UNL     1      -5.274   2.279  25.082  0.00  0.00    +0.145 C 
ATOM      9  C   UNL     1      -2.433   2.120  24.552  0.00  0.00    +0.125 C 
ATOM     10  C   UNL     1      -4.641   3.206  24.050  0.00  0.00    +0.036 C 
ATOM     11  C   UNL     1      -3.167   3.447  24.363  0.00  0.00    +0.034 C 
ENDROOT
BRANCH   8   2
ATOM      2  O   UNL     1      -5.379   3.001  26.312  0.00  0.00    -0.389 OA
ATOM     23  H   UNL     1      -5.987   3.744  26.166  0.00  0.00    +0.210 HD
ENDBRANCH   8   2
BRANCH   7  12
ATOM     12  C   UNL     1      -4.573  -0.011  24.197  0.00  0.00    +0.115 C 
BRANCH  12   5
ATOM      5  N   UNL     1      -3.309  -0.691  23.960  0.00  0.00    -0.311 NA
ATOM     22  H   UNL     1      -3.179  -0.795  22.954  0.00  0.00    +0.122 HD
BRANCH   5  15
ATOM     15  C   UNL     1      -3.289  -1.997  24.605  0.00  0.00    +0.048 C 
ATOM     17  C   UNL     1      -1.868  -2.554  24.625  0.00  0.00    +0.023 C 
ATOM     18  C   UNL     1      -4.237  -2.940  23.872  0.00  0.00    +0.023 C 
ENDBRANCH   5  15
ENDBRANCH  12   5
ENDBRANCH   7  12
BRANCH   9  13
ATOM     13  C   UNL     1      -0.991   2.355  24.984  0.00  0.00    +0.090 C 
BRANCH  13  14
ATOM      3  O   UNL     1       0.679  -0.276  23.174  0.00  0.00    -0.357 OA
ATOM      6  N   UNL     1      -0.427   0.261  23.821  0.00  0.00    -0.083 NA
ATOM     14  C   UNL     1      -0.032   1.470  24.233  0.00  0.00    +0.086 A 
ATOM     16  C   UNL     1       1.299   1.746  23.878  0.00  0.00    +0.073 A 
ATOM     19  C   UNL     1       1.700   0.617  23.214  0.00  0.00    +0.163 A 
BRANCH  19  20
ATOM     20  C   UNL     1       2.955   0.208  22.572  0.00  0.00    +0.236 C 
BRANCH  20   4
ATOM      4  O   UNL     1       4.033   1.033  23.022  0.00  0.00    -0.375 OA
ATOM     21  C   UNL     1       5.154   0.249  23.400  0.00  0.00    +0.194 C 
ENDBRANCH  20   4
ENDBRANCH  19  20
ENDBRANCH  13  14
ENDBRANCH   9  13
TORSDOF 8
ENDMDL
MODEL 2
REMARK VINA RESULT:      -5.5      2.040      3.742
REMARK  Name = 86769373
REMARK  11 active torsions:
REMARK  status: ('A' for Active; 'I' for Inactive)
REMARK    1  A    between atoms: O_2  and  C_8
REMARK    2  A    between atoms: O_4  and  C_20
REMARK    3  A    between atoms: O_4  and  C_21
REMARK    4  A    between atoms: N_5  and  C_12
REMARK    5  A    between atoms: N_5  and  C_15
REMARK    6  A    between atoms: C_7  and  C_12
REMARK    7  A    between atoms: C_9  and  C_13
REMARK    8  A    between atoms: C_13  and  C_14
REMARK    9  A    between atoms: C_15  and  C_17
REMARK   10  A    between atoms: C_15  and  C_18
REMARK   11  A    between atoms: C_19  and  C_20
REMARK                            x       y       z     vdW  Elec       q    Type
REMARK                         _______ _______ _______ _____ _____    ______ ____
ROOT
ATOM      1  O   UNL     1      -2.401   0.350  23.470  0.00  0.00    -0.369 OA
ATOM      7  C   UNL     1      -3.463   1.036  24.147  0.00  0.00    +0.161 C 
ATOM      8  C   UNL     1      -4.266   0.080  25.039  0.00  0.00    +0.145 C 
ATOM      9  C   UNL     1      -1.497  -0.360  24.319  0.00  0.00    +0.125 C 
ATOM     10  C   UNL     1      -3.370  -0.762  25.942  0.00  0.00    +0.036 C 
ATOM     11  C   UNL     1      -2.242  -1.409  25.144  0.00  0.00    +0.034 C 
ENDROOT
BRANCH   8   2
ATOM      2  O   UNL     1      -5.009  -0.813  24.205  0.00  0.00    -0.389 OA
ATOM     23  H   UNL     1      -4.377  -1.266  23.623  0.00  0.00    +0.210 HD
ENDBRANCH   8   2
BRANCH   7  12
ATOM     12  C   UNL     1      -2.936   2.255  24.902  0.00  0.00    +0.115 C 
BRANCH  12   5
ATOM      5  N   UNL     1      -2.021   3.024  24.073  0.00  0.00    -0.311 NA
ATOM     22  H   UNL     1      -1.574   2.392  23.409  0.00  0.00    +0.122 HD
BRANCH   5  15
ATOM     15  C   UNL     1      -1.011   3.688  24.886  0.00  0.00    +0.048 C 
ATOM     17  C   UNL     1      -0.794   2.924  26.189  0.00  0.00    +0.023 C 
ATOM     18  C   UNL     1      -1.444   5.125  25.160  0.00  0.00    +0.023 C 
ENDBRANCH   5  15
ENDBRANCH  12   5
ENDBRANCH   7  12
BRANCH   9  13
ATOM     13  C   UNL     1      -0.449  -1.015  23.427  0.00  0.00    +0.090 C 
BRANCH  13  14
ATOM      3  O   UNL     1       2.088   1.540  23.574  0.00  0.00    -0.357 OA
ATOM      6  N   UNL     1       0.818   1.051  23.853  0.00  0.00    -0.083 NA
ATOM     14  C   UNL     1       0.793  -0.173  23.315  0.00  0.00    +0.086 A 
ATOM     16  C   UNL     1       2.008  -0.506  22.691  0.00  0.00    +0.073 A 
ATOM     19  C   UNL     1       2.787   0.604  22.883  0.00  0.00    +0.163 A 
BRANCH  19  20
ATOM     20  C   UNL     1       4.160   0.958  22.504  0.00  0.00    +0.236 C 
BRANCH  20   4
ATOM      4  O   UNL     1       5.013   0.937  23.652  0.00  0.00    -0.375 OA
ATOM     21  C   UNL     1       5.481  -0.375  23.918  0.00  0.00    +0.194 C 
ENDBRANCH  20   4
ENDBRANCH  19  20
ENDBRANCH  13  14
ENDBRANCH   9  13
TORSDOF 8
ENDMDL
MODEL 3
REMARK VINA RESULT:      -5.1      1.714      2.296
REMARK  Name = 86769373
REMARK  11 active torsions:
REMARK  status: ('A' for Active; 'I' for Inactive)
REMARK    1  A    between atoms: O_2  and  C_8
REMARK    2  A    between atoms: O_4  and  C_20
REMARK    3  A    between atoms: O_4  and  C_21
REMARK    4  A    between atoms: N_5  and  C_12
REMARK    5  A    between atoms: N_5  and  C_15
REMARK    6  A    between atoms: C_7  and  C_12
REMARK    7  A    between atoms: C_9  and  C_13
REMARK    8  A    between atoms: C_13  and  C_14
REMARK    9  A    between atoms: C_15  and  C_17
REMARK   10  A    between atoms: C_15  and  C_18
REMARK   11  A    between atoms: C_19  and  C_20
REMARK                            x       y       z     vdW  Elec       q    Type
REMARK                         _______ _______ _______ _____ _____    ______ ____
ROOT
ATOM      1  O   UNL     1      -3.664   2.107  25.757  0.00  0.00    -0.369 OA
ATOM      7  C   UNL     1      -4.823   1.324  25.442  0.00  0.00    +0.161 C 
ATOM      8  C   UNL     1      -6.115   2.113  25.694  0.00  0.00    +0.145 C 
ATOM      9  C   UNL     1      -3.578   3.364  25.082  0.00  0.00    +0.125 C 
ATOM     10  C   UNL     1      -6.085   3.497  25.053  0.00  0.00    +0.036 C 
ATOM     11  C   UNL     1      -4.794   4.232  25.401  0.00  0.00    +0.034 C 
ENDROOT
BRANCH   8   2
ATOM      2  O   UNL     1      -6.281   2.288  27.103  0.00  0.00    -0.389 OA
ATOM     23  H   UNL     1      -7.111   1.852  27.358  0.00  0.00    +0.210 HD
ENDBRANCH   8   2
BRANCH   7  12
ATOM     12  C   UNL     1      -4.737   0.758  24.026  0.00  0.00    +0.115 C 
BRANCH  12   5
ATOM      5  N   UNL     1      -3.688  -0.245  23.931  0.00  0.00    -0.311 NA
ATOM     22  H   UNL     1      -3.624  -0.559  22.963  0.00  0.00    +0.122 HD
BRANCH   5  15
ATOM     15  C   UNL     1      -3.966  -1.377  24.804  0.00  0.00    +0.048 C 
ATOM     17  C   UNL     1      -2.986  -1.397  25.974  0.00  0.00    +0.023 C 
ATOM     18  C   UNL     1      -3.886  -2.671  24.001  0.00  0.00    +0.023 C 
ENDBRANCH   5  15
ENDBRANCH  12   5
ENDBRANCH   7  12
BRANCH   9  13
ATOM     13  C   UNL     1      -2.292   4.043  25.539  0.00  0.00    +0.090 C 
BRANCH  13  14
ATOM      3  O   UNL     1       0.762   2.134  25.677  0.00  0.00    -0.357 OA
ATOM      6  N   UNL     1      -0.212   2.940  26.254  0.00  0.00    -0.083 NA
ATOM     14  C   UNL     1      -1.084   3.186  25.271  0.00  0.00    +0.086 A 
ATOM     16  C   UNL     1      -0.716   2.567  24.064  0.00  0.00    +0.073 A 
ATOM     19  C   UNL     1       0.450   1.918  24.373  0.00  0.00    +0.163 A 
BRANCH  19  20
ATOM     20  C   UNL     1       1.379   1.079  23.607  0.00  0.00    +0.236 C 
BRANCH  20   4
ATOM      4  O   UNL     1       0.682  -0.021  23.016  0.00  0.00    -0.375 OA
ATOM     21  C   UNL     1       0.000  -0.783  23.999  0.00  0.00    +0.194 C 
ENDBRANCH  20   4
ENDBRANCH  19  20
ENDBRANCH  13  14
ENDBRANCH   9  13
TORSDOF 8
ENDMDL
MODEL 4
REMARK VINA RESULT:      -5.1      1.817      5.929
REMARK  Name = 86769373
REMARK  11 active torsions:
REMARK  status: ('A' for Active; 'I' for Inactive)
REMARK    1  A    between atoms: O_2  and  C_8
REMARK    2  A    between atoms: O_4  and  C_20
REMARK    3  A    between atoms: O_4  and  C_21
REMARK    4  A    between atoms: N_5  and  C_12
REMARK    5  A    between atoms: N_5  and  C_15
REMARK    6  A    between atoms: C_7  and  C_12
REMARK    7  A    between atoms: C_9  and  C_13
REMARK    8  A    between atoms: C_13  and  C_14
REMARK    9  A    between atoms: C_15  and  C_17
REMARK   10  A    between atoms: C_15  and  C_18
REMARK   11  A    between atoms: C_19  and  C_20
REMARK                            x       y       z     vdW  Elec       q    Type
REMARK                         _______ _______ _______ _____ _____    ______ ____
ROOT
ATOM      1  O   UNL     1      -0.874   1.115  23.565  0.00  0.00    -0.369 OA
ATOM      7  C   UNL     1      -0.494  -0.268  23.562  0.00  0.00    +0.161 C 
ATOM      8  C   UNL     1       0.906  -0.462  22.965  0.00  0.00    +0.145 C 
ATOM      9  C   UNL     1       0.038   1.994  24.229  0.00  0.00    +0.125 C 
ATOM     10  C   UNL     1       1.935   0.482  23.579  0.00  0.00    +0.036 C 
ATOM     11  C   UNL     1       1.423   1.919  23.587  0.00  0.00    +0.034 C 
ENDROOT
BRANCH   8   2
ATOM      2  O   UNL     1       0.849  -0.192  21.562  0.00  0.00    -0.389 OA
ATOM     23  H   UNL     1       0.505   0.709  21.449  0.00  0.00    +0.210 HD
ENDBRANCH   8   2
BRANCH   7  12
ATOM     12  C   UNL     1      -0.640  -0.881  24.953  0.00  0.00    +0.115 C 
BRANCH  12   5
ATOM      5  N   UNL     1      -1.541  -2.022  24.927  0.00  0.00    -0.311 NA
ATOM     22  H   UNL     1      -1.197  -2.694  24.241  0.00  0.00    +0.122 HD
BRANCH   5  15
ATOM     15  C   UNL     1      -2.896  -1.611  24.585  0.00  0.00    +0.048 C 
ATOM     17  C   UNL     1      -3.524  -0.844  25.745  0.00  0.00    +0.023 C 
ATOM     18  C   UNL     1      -3.726  -2.840  24.228  0.00  0.00    +0.023 C 
ENDBRANCH   5  15
ENDBRANCH  12   5
ENDBRANCH   7  12
BRANCH   9  13
ATOM     13  C   UNL     1      -0.531   3.404  24.130  0.00  0.00    +0.090 C 
BRANCH  13  14
ATOM      3  O   UNL     1      -3.188   3.816  26.529  0.00  0.00    -0.357 OA
ATOM      6  N   UNL     1      -1.844   3.754  26.181  0.00  0.00    -0.083 NA
ATOM     14  C   UNL     1      -1.839   3.530  24.864  0.00  0.00    +0.086 A 
ATOM     16  C   UNL     1      -3.138   3.443  24.332  0.00  0.00    +0.073 A 
ATOM     19  C   UNL     1      -3.948   3.631  25.420  0.00  0.00    +0.163 A 
BRANCH  19  20
ATOM     20  C   UNL     1      -5.403   3.667  25.608  0.00  0.00    +0.236 C 
BRANCH  20   4
ATOM      4  O   UNL     1      -5.874   2.400  26.074  0.00  0.00    -0.375 OA
ATOM     21  C   UNL     1      -6.252   1.564  24.992  0.00  0.00    +0.194 C 
ENDBRANCH  20   4
ENDBRANCH  19  20
ENDBRANCH  13  14
ENDBRANCH   9  13
TORSDOF 8
ENDMDL
MODEL 5
REMARK VINA RESULT:      -5.1      2.667      5.714
REMARK  Name = 86769373
REMARK  11 active torsions:
REMARK  status: ('A' for Active; 'I' for Inactive)
REMARK    1  A    between atoms: O_2  and  C_8
REMARK    2  A    between atoms: O_4  and  C_20
REMARK    3  A    between atoms: O_4  and  C_21
REMARK    4  A    between atoms: N_5  and  C_12
REMARK    5  A    between atoms: N_5  and  C_15
REMARK    6  A    between atoms: C_7  and  C_12
REMARK    7  A    between atoms: C_9  and  C_13
REMARK    8  A    between atoms: C_13  and  C_14
REMARK    9  A    between atoms: C_15  and  C_17
REMARK   10  A    between atoms: C_15  and  C_18
REMARK   11  A    between atoms: C_19  and  C_20
REMARK                            x       y       z     vdW  Elec       q    Type
REMARK                         _______ _______ _______ _____ _____    ______ ____
ROOT
ATOM      1  O   UNL     1      -3.337  -0.496  25.600  0.00  0.00    -0.369 OA
ATOM      7  C   UNL     1      -2.168  -1.314  25.453  0.00  0.00    +0.161 C 
ATOM      8  C   UNL     1      -2.522  -2.696  24.887  0.00  0.00    +0.145 C 
ATOM      9  C   UNL     1      -4.114  -0.326  24.413  0.00  0.00    +0.125 C 
ATOM     10  C   UNL     1      -3.402  -2.608  23.644  0.00  0.00    +0.036 C 
ATOM     11  C   UNL     1      -4.587  -1.678  23.879  0.00  0.00    +0.034 C 
ENDROOT
BRANCH   8   2
ATOM      2  O   UNL     1      -3.242  -3.430  25.881  0.00  0.00    -0.389 OA
ATOM     23  H   UNL     1      -3.307  -4.351  25.578  0.00  0.00    +0.210 HD
ENDBRANCH   8   2
BRANCH   7  12
ATOM     12  C   UNL     1      -1.093  -0.595  24.641  0.00  0.00    +0.115 C 
BRANCH  12   5
ATOM      5  N   UNL     1      -0.212   0.170  25.509  0.00  0.00    -0.311 NA
ATOM     22  H   UNL     1      -0.458  -0.026  26.479  0.00  0.00    +0.122 HD
BRANCH   5  15
ATOM     15  C   UNL     1      -0.327   1.598  25.245  0.00  0.00    +0.048 C 
ATOM     17  C   UNL     1       0.520   1.982  24.035  0.00  0.00    +0.023 C 
ATOM     18  C   UNL     1       0.098   2.381  26.483  0.00  0.00    +0.023 C 
ENDBRANCH   5  15
ENDBRANCH  12   5
ENDBRANCH   7  12
BRANCH   9  13
ATOM     13  C   UNL     1      -5.299   0.564  24.764  0.00  0.00    +0.090 C 
BRANCH  13  14
ATOM      3  O   UNL     1      -5.012   4.068  25.558  0.00  0.00    -0.357 OA
ATOM      6  N   UNL     1      -5.680   2.850  25.592  0.00  0.00    -0.083 NA
ATOM     14  C   UNL     1      -4.887   2.003  24.928  0.00  0.00    +0.086 A 
ATOM     16  C   UNL     1      -3.717   2.624  24.458  0.00  0.00    +0.073 A 
ATOM     19  C   UNL     1      -3.844   3.921  24.881  0.00  0.00    +0.163 A 
BRANCH  19  20
ATOM     20  C   UNL     1      -3.007   5.118  24.749  0.00  0.00    +0.236 C 
BRANCH  20   4
ATOM      4  O   UNL     1      -1.791   4.956  25.486  0.00  0.00    -0.375 OA
ATOM     21  C   UNL     1      -0.666   5.323  24.704  0.00  0.00    +0.194 C 
ENDBRANCH  20   4
ENDBRANCH  19  20
ENDBRANCH  13  14
ENDBRANCH   9  13
TORSDOF 8
ENDMDL
MODEL 6
REMARK VINA RESULT:      -4.9      2.181      6.001
REMARK  Name = 86769373
REMARK  11 active torsions:
REMARK  status: ('A' for Active; 'I' for Inactive)
REMARK    1  A    between atoms: O_2  and  C_8
REMARK    2  A    between atoms: O_4  and  C_20
REMARK    3  A    between atoms: O_4  and  C_21
REMARK    4  A    between atoms: N_5  and  C_12
REMARK    5  A    between atoms: N_5  and  C_15
REMARK    6  A    between atoms: C_7  and  C_12
REMARK    7  A    between atoms: C_9  and  C_13
REMARK    8  A    between atoms: C_13  and  C_14
REMARK    9  A    between atoms: C_15  and  C_17
REMARK   10  A    between atoms: C_15  and  C_18
REMARK   11  A    between atoms: C_19  and  C_20
REMARK                            x       y       z     vdW  Elec       q    Type
REMARK                         _______ _______ _______ _____ _____    ______ ____
ROOT
ATOM      1  O   UNL     1      -2.167   0.272  24.845  0.00  0.00    -0.369 OA
ATOM      7  C   UNL     1      -0.758   0.007  24.831  0.00  0.00    +0.161 C 
ATOM      8  C   UNL     1      -0.450  -1.405  25.348  0.00  0.00    +0.145 C 
ATOM      9  C   UNL     1      -2.969  -0.669  24.127  0.00  0.00    +0.125 C 
ATOM     10  C   UNL     1      -1.308  -2.471  24.673  0.00  0.00    +0.036 C 
ATOM     11  C   UNL     1      -2.782  -2.078  24.690  0.00  0.00    +0.034 C 
ENDROOT
BRANCH   8   2
ATOM      2  O   UNL     1      -0.722  -1.451  26.752  0.00  0.00    -0.389 OA
ATOM     23  H   UNL     1      -0.636  -2.375  27.038  0.00  0.00    +0.210 HD
ENDBRANCH   8   2
BRANCH   7  12
ATOM     12  C   UNL     1      -0.160   0.281  23.453  0.00  0.00    +0.115 C 
BRANCH  12   5
ATOM      5  N   UNL     1       1.177   0.841  23.569  0.00  0.00    -0.311 NA
ATOM     22  H   UNL     1       1.170   1.784  23.181  0.00  0.00    +0.122 HD
BRANCH   5  15
ATOM     15  C   UNL     1       2.151   0.019  22.863  0.00  0.00    +0.048 C 
ATOM     17  C   UNL     1       3.449   0.795  22.659  0.00  0.00    +0.023 C 
ATOM     18  C   UNL     1       1.566  -0.430  21.528  0.00  0.00    +0.023 C 
ENDBRANCH   5  15
ENDBRANCH  12   5
ENDBRANCH   7  12
BRANCH   9  13
ATOM     13  C   UNL     1      -4.421  -0.224  24.253  0.00  0.00    +0.090 C 
BRANCH  13  14
ATOM      3  O   UNL     1      -5.330   2.886  25.831  0.00  0.00    -0.357 OA
ATOM      6  N   UNL     1      -5.528   1.536  25.571  0.00  0.00    -0.083 NA
ATOM     14  C   UNL     1      -4.529   1.193  24.751  0.00  0.00    +0.086 A 
ATOM     16  C   UNL     1      -3.679   2.275  24.463  0.00  0.00    +0.073 A 
ATOM     19  C   UNL     1      -4.227   3.315  25.167  0.00  0.00    +0.163 A 
BRANCH  19  20
ATOM     20  C   UNL     1      -3.869   4.728  25.332  0.00  0.00    +0.236 C 
BRANCH  20   4
ATOM      4  O   UNL     1      -2.633   4.848  26.041  0.00  0.00    -0.375 OA
ATOM     21  C   UNL     1      -1.555   5.097  25.153  0.00  0.00    +0.194 C 
ENDBRANCH  20   4
ENDBRANCH  19  20
ENDBRANCH  13  14
ENDBRANCH   9  13
TORSDOF 8
ENDMDL
MODEL 7
REMARK VINA RESULT:      -4.6      2.211      4.023
REMARK  Name = 86769373
REMARK  11 active torsions:
REMARK  status: ('A' for Active; 'I' for Inactive)
REMARK    1  A    between atoms: O_2  and  C_8
REMARK    2  A    between atoms: O_4  and  C_20
REMARK    3  A    between atoms: O_4  and  C_21
REMARK    4  A    between atoms: N_5  and  C_12
REMARK    5  A    between atoms: N_5  and  C_15
REMARK    6  A    between atoms: C_7  and  C_12
REMARK    7  A    between atoms: C_9  and  C_13
REMARK    8  A    between atoms: C_13  and  C_14
REMARK    9  A    between atoms: C_15  and  C_17
REMARK   10  A    between atoms: C_15  and  C_18
REMARK   11  A    between atoms: C_19  and  C_20
REMARK                            x       y       z     vdW  Elec       q    Type
REMARK                         _______ _______ _______ _____ _____    ______ ____
ROOT
ATOM      1  O   UNL     1      -1.883   2.544  25.089  0.00  0.00    -0.369 OA
ATOM      7  C   UNL     1      -3.129   3.253  25.130  0.00  0.00    +0.161 C 
ATOM      8  C   UNL     1      -2.958   4.649  25.742  0.00  0.00    +0.145 C 
ATOM      9  C   UNL     1      -0.822   3.220  24.411  0.00  0.00    +0.125 C 
ATOM     10  C   UNL     1      -1.803   5.422  25.113  0.00  0.00    +0.036 C 
ATOM     11  C   UNL     1      -0.537   4.571  25.065  0.00  0.00    +0.034 C 
ENDROOT
BRANCH   8   2
ATOM      2  O   UNL     1      -2.680   4.509  27.138  0.00  0.00    -0.389 OA
ATOM     23  H   UNL     1      -2.267   5.335  27.440  0.00  0.00    +0.210 HD
ENDBRANCH   8   2
BRANCH   7  12
ATOM     12  C   UNL     1      -3.790   3.282  23.753  0.00  0.00    +0.115 C 
BRANCH  12   5
ATOM      5  N   UNL     1      -4.781   2.224  23.630  0.00  0.00    -0.311 NA
ATOM     22  H   UNL     1      -5.644   2.627  23.267  0.00  0.00    +0.122 HD
BRANCH   5  15
ATOM     15  C   UNL     1      -5.029   1.588  24.916  0.00  0.00    +0.048 C 
ATOM     17  C   UNL     1      -4.592   0.126  24.876  0.00  0.00    +0.023 C 
ATOM     18  C   UNL     1      -6.509   1.707  25.265  0.00  0.00    +0.023 C 
ENDBRANCH   5  15
ENDBRANCH  12   5
ENDBRANCH   7  12
BRANCH   9  13
ATOM     13  C   UNL     1       0.406   2.319  24.470  0.00  0.00    +0.090 C 
BRANCH  13  14
ATOM      3  O   UNL     1      -0.057  -1.127  23.524  0.00  0.00    -0.357 OA
ATOM      6  N   UNL     1       0.449   0.149  23.311  0.00  0.00    -0.083 NA
ATOM     14  C   UNL     1       0.037   0.864  24.362  0.00  0.00    +0.086 A 
ATOM     16  C   UNL     1      -0.725   0.099  25.262  0.00  0.00    +0.073 A 
ATOM     19  C   UNL     1      -0.753  -1.145  24.689  0.00  0.00    +0.163 A 
BRANCH  19  20
ATOM     20  C   UNL     1      -1.360  -2.425  25.071  0.00  0.00    +0.236 C 
BRANCH  20   4
ATOM      4  O   UNL     1      -2.228  -2.892  24.034  0.00  0.00    -0.375 OA
ATOM     21  C   UNL     1      -3.572  -2.955  24.482  0.00  0.00    +0.194 C 
ENDBRANCH  20   4
ENDBRANCH  19  20
ENDBRANCH  13  14
ENDBRANCH   9  13
TORSDOF 8
ENDMDL
MODEL 8
REMARK VINA RESULT:      -4.6      1.824      3.652
REMARK  Name = 86769373
REMARK  11 active torsions:
REMARK  status: ('A' for Active; 'I' for Inactive)
REMARK    1  A    between atoms: O_2  and  C_8
REMARK    2  A    between atoms: O_4  and  C_20
REMARK    3  A    between atoms: O_4  and  C_21
REMARK    4  A    between atoms: N_5  and  C_12
REMARK    5  A    between atoms: N_5  and  C_15
REMARK    6  A    between atoms: C_7  and  C_12
REMARK    7  A    between atoms: C_9  and  C_13
REMARK    8  A    between atoms: C_13  and  C_14
REMARK    9  A    between atoms: C_15  and  C_17
REMARK   10  A    between atoms: C_15  and  C_18
REMARK   11  A    between atoms: C_19  and  C_20
REMARK                            x       y       z     vdW  Elec       q    Type
REMARK                         _______ _______ _______ _____ _____    ______ ____
ROOT
ATOM      1  O   UNL     1      -4.271   1.688  23.866  0.00  0.00    -0.369 OA
ATOM      7  C   UNL     1      -4.913   2.819  24.470  0.00  0.00    +0.161 C 
ATOM      8  C   UNL     1      -6.100   2.388  25.341  0.00  0.00    +0.145 C 
ATOM      9  C   UNL     1      -3.833   0.679  24.779  0.00  0.00    +0.125 C 
ATOM     10  C   UNL     1      -5.734   1.268  26.310  0.00  0.00    +0.036 C 
ATOM     11  C   UNL     1      -5.011   0.136  25.588  0.00  0.00    +0.034 C 
ENDROOT
BRANCH   8   2
ATOM      2  O   UNL     1      -7.144   1.906  24.491  0.00  0.00    -0.389 OA
ATOM     23  H   UNL     1      -6.728   1.415  23.763  0.00  0.00    +0.210 HD
ENDBRANCH   8   2
BRANCH   7  12
ATOM     12  C   UNL     1      -3.906   3.687  25.222  0.00  0.00    +0.115 C 
BRANCH  12   5
ATOM      5  N   UNL     1      -2.578   3.561  24.643  0.00  0.00    -0.311 NA
ATOM     22  H   UNL     1      -2.384   2.573  24.483  0.00  0.00    +0.122 HD
BRANCH   5  15
ATOM     15  C   UNL     1      -1.567   4.132  25.523  0.00  0.00    +0.048 C 
ATOM     17  C   UNL     1      -0.858   5.292  24.831  0.00  0.00    +0.023 C 
ATOM     18  C   UNL     1      -0.574   3.047  25.928  0.00  0.00    +0.023 C 
ENDBRANCH   5  15
ENDBRANCH  12   5
ENDBRANCH   7  12
BRANCH   9  13
ATOM     13  C   UNL     1      -3.181  -0.428  23.959  0.00  0.00    +0.090 C 
BRANCH  13  14
ATOM      3  O   UNL     1       0.383  -0.860  24.272  0.00  0.00    -0.357 OA
ATOM      6  N   UNL     1      -0.927  -1.292  24.437  0.00  0.00    -0.083 NA
ATOM     14  C   UNL     1      -1.681  -0.303  23.946  0.00  0.00    +0.086 A 
ATOM     16  C   UNL     1      -0.909   0.767  23.462  0.00  0.00    +0.073 A 
ATOM     19  C   UNL     1       0.381   0.366  23.690  0.00  0.00    +0.163 A 
BRANCH  19  20
ATOM     20  C   UNL     1       1.692   0.976  23.440  0.00  0.00    +0.236 C 
BRANCH  20   4
ATOM      4  O   UNL     1       2.467   0.146  22.570  0.00  0.00    -0.375 OA
ATOM     21  C   UNL     1       3.826   0.552  22.552  0.00  0.00    +0.194 C 
ENDBRANCH  20   4
ENDBRANCH  19  20
ENDBRANCH  13  14
ENDBRANCH   9  13
TORSDOF 8
ENDMDL
MODEL 9
REMARK VINA RESULT:      -4.2      1.954      6.541
REMARK  Name = 86769373
REMARK  11 active torsions:
REMARK  status: ('A' for Active; 'I' for Inactive)
REMARK    1  A    between atoms: O_2  and  C_8
REMARK    2  A    between atoms: O_4  and  C_20
REMARK    3  A    between atoms: O_4  and  C_21
REMARK    4  A    between atoms: N_5  and  C_12
REMARK    5  A    between atoms: N_5  and  C_15
REMARK    6  A    between atoms: C_7  and  C_12
REMARK    7  A    between atoms: C_9  and  C_13
REMARK    8  A    between atoms: C_13  and  C_14
REMARK    9  A    between atoms: C_15  and  C_17
REMARK   10  A    between atoms: C_15  and  C_18
REMARK   11  A    between atoms: C_19  and  C_20
REMARK                            x       y       z     vdW  Elec       q    Type
REMARK                         _______ _______ _______ _____ _____    ______ ____
ROOT
ATOM      1  O   UNL     1      -0.765   0.143  23.702  0.00  0.00    -0.369 OA
ATOM      7  C   UNL     1       0.260   1.075  23.332  0.00  0.00    +0.161 C 
ATOM      8  C   UNL     1       0.239   2.315  24.235  0.00  0.00    +0.145 C 
ATOM      9  C   UNL     1      -0.740  -0.278  25.067  0.00  0.00    +0.125 C 
ATOM     10  C   UNL     1       0.207   1.955  25.717  0.00  0.00    +0.036 C 
ATOM     11  C   UNL     1      -0.878   0.922  26.004  0.00  0.00    +0.034 C 
ENDROOT
BRANCH   8   2
ATOM      2  O   UNL     1      -0.937   3.076  23.945  0.00  0.00    -0.389 OA
ATOM     23  H   UNL     1      -1.346   3.319  24.792  0.00  0.00    +0.210 HD
ENDBRANCH   8   2
BRANCH   7  12
ATOM     12  C   UNL     1       1.628   0.397  23.282  0.00  0.00    +0.115 C 
BRANCH  12   5
ATOM      5  N   UNL     1       2.697   1.373  23.427  0.00  0.00    -0.311 NA
ATOM     22  H   UNL     1       2.340   2.289  23.158  0.00  0.00    +0.122 HD
BRANCH   5  15
ATOM     15  C   UNL     1       3.842   1.021  22.599  0.00  0.00    +0.048 C 
ATOM     17  C   UNL     1       3.428   0.025  21.519  0.00  0.00    +0.023 C 
ATOM     18  C   UNL     1       4.948   0.446  23.478  0.00  0.00    +0.023 C 
ENDBRANCH   5  15
ENDBRANCH  12   5
ENDBRANCH   7  12
BRANCH   9  13
ATOM     13  C   UNL     1      -1.890  -1.257  25.267  0.00  0.00    +0.090 C 
BRANCH  13  14
ATOM      3  O   UNL     1      -5.222  -0.405  24.189  0.00  0.00    -0.357 OA
ATOM      6  N   UNL     1      -4.130  -1.263  24.248  0.00  0.00    -0.083 NA
ATOM     14  C   UNL     1      -3.223  -0.616  24.987  0.00  0.00    +0.086 A 
ATOM     16  C   UNL     1      -3.683   0.640  25.418  0.00  0.00    +0.073 A 
ATOM     19  C   UNL     1      -4.945   0.723  24.890  0.00  0.00    +0.163 A 
BRANCH  19  20
ATOM     20  C   UNL     1      -5.998   1.744  24.933  0.00  0.00    +0.236 C 
BRANCH  20   4
ATOM      4  O   UNL     1      -5.715   2.706  25.953  0.00  0.00    -0.375 OA
ATOM     21  C   UNL     1      -4.979   3.802  25.435  0.00  0.00    +0.194 C 
ENDBRANCH  20   4
ENDBRANCH  19  20
ENDBRANCH  13  14
ENDBRANCH   9  13
TORSDOF 8
ENDMDL
MODEL 10
REMARK VINA RESULT:      -4.1      2.534      6.279
REMARK  Name = 86769373
REMARK  11 active torsions:
REMARK  status: ('A' for Active; 'I' for Inactive)
REMARK    1  A    between atoms: O_2  and  C_8
REMARK    2  A    between atoms: O_4  and  C_20
REMARK    3  A    between atoms: O_4  and  C_21
REMARK    4  A    between atoms: N_5  and  C_12
REMARK    5  A    between atoms: N_5  and  C_15
REMARK    6  A    between atoms: C_7  and  C_12
REMARK    7  A    between atoms: C_9  and  C_13
REMARK    8  A    between atoms: C_13  and  C_14
REMARK    9  A    between atoms: C_15  and  C_17
REMARK   10  A    between atoms: C_15  and  C_18
REMARK   11  A    between atoms: C_19  and  C_20
REMARK                            x       y       z     vdW  Elec       q    Type
REMARK                         _______ _______ _______ _____ _____    ______ ____
ROOT
ATOM      1  O   UNL     1      -2.025  -0.269  25.266  0.00  0.00    -0.369 OA
ATOM      7  C   UNL     1      -0.619  -0.363  24.998  0.00  0.00    +0.161 C 
ATOM      8  C   UNL     1      -0.157  -1.825  24.949  0.00  0.00    +0.145 C 
ATOM      9  C   UNL     1      -2.866  -0.991  24.363  0.00  0.00    +0.125 C 
ATOM     10  C   UNL     1      -1.038  -2.685  24.049  0.00  0.00    +0.036 C 
ATOM     11  C   UNL     1      -2.515  -2.479  24.372  0.00  0.00    +0.034 C 
ENDROOT
BRANCH   8   2
ATOM      2  O   UNL     1      -0.218  -2.371  26.270  0.00  0.00    -0.389 OA
ATOM     23  H   UNL     1       0.468  -1.933  26.801  0.00  0.00    +0.210 HD
ENDBRANCH   8   2
BRANCH   7  12
ATOM     12  C   UNL     1      -0.245   0.422  23.742  0.00  0.00    +0.115 C 
BRANCH  12   5
ATOM      5  N   UNL     1       0.525   1.609  24.082  0.00  0.00    -0.311 NA
ATOM     22  H   UNL     1       1.323   1.327  24.650  0.00  0.00    +0.122 HD
BRANCH   5  15
ATOM     15  C   UNL     1      -0.290   2.571  24.810  0.00  0.00    +0.048 C 
ATOM     17  C   UNL     1      -0.196   3.947  24.155  0.00  0.00    +0.023 C 
ATOM     18  C   UNL     1       0.164   2.626  26.265  0.00  0.00    +0.023 C 
ENDBRANCH   5  15
ENDBRANCH  12   5
ENDBRANCH   7  12
BRANCH   9  13
ATOM     13  C   UNL     1      -4.308  -0.771  24.804  0.00  0.00    +0.090 C 
BRANCH  13  14
ATOM      3  O   UNL     1      -5.696   2.464  25.572  0.00  0.00    -0.357 OA
ATOM      6  N   UNL     1      -5.684   1.078  25.665  0.00  0.00    -0.083 NA
ATOM     14  C   UNL     1      -4.634   0.693  24.933  0.00  0.00    +0.086 A 
ATOM     16  C   UNL     1      -3.953   1.782  24.361  0.00  0.00    +0.073 A 
ATOM     19  C   UNL     1      -4.661   2.872  24.795  0.00  0.00    +0.163 A 
BRANCH  19  20
ATOM     20  C   UNL     1      -4.523   4.318  24.591  0.00  0.00    +0.236 C 
BRANCH  20   4
ATOM      4  O   UNL     1      -3.248   4.765  25.059  0.00  0.00    -0.375 OA
ATOM     21  C   UNL     1      -3.033   4.380  26.408  0.00  0.00    +0.194 C 
ENDBRANCH  20   4
ENDBRANCH  19  20
ENDBRANCH  13  14
ENDBRANCH   9  13
TORSDOF 8
ENDMDL
