MODEL 1
REMARK VINA RESULT:       9.0      0.000      0.000
REMARK  Name = 51137022
REMARK  6 active torsions:
REMARK  status: ('A' for Active; 'I' for Inactive)
REMARK    1  A    between atoms: O_2  and  C_18
REMARK    2  A    between atoms: O_2  and  C_26
REMARK    3  A    between atoms: O_3  and  C_23
REMARK    4  A    between atoms: O_3  and  C_27
REMARK    5  A    between atoms: N_7  and  C_19
REMARK    6  A    between atoms: C_8  and  C_12
REMARK                            x       y       z     vdW  Elec       q    Type
REMARK                         _______ _______ _______ _____ _____    ______ ____
ROOT
ATOM      1  O   UNL     1      -3.528   0.331  23.170  0.00  0.00    -0.252 OA
ATOM      4  N   UNL     1      -2.011  -0.642  24.592  0.00  0.00    -0.285 N 
ATOM      7  N   UNL     1      -3.366   1.099  25.367  0.00  0.00    -0.269 N 
ATOM      8  C   UNL     1      -0.204  -2.135  24.182  0.00  0.00    +0.074 C 
ATOM      9  C   UNL     1      -0.494  -2.087  25.690  0.00  0.00    +0.032 C 
ATOM     10  C   UNL     1      -1.505  -1.577  23.592  0.00  0.00    +0.120 C 
ATOM     11  C   UNL     1      -1.321  -0.819  25.868  0.00  0.00    +0.110 C 
ATOM     13  C   UNL     1      -3.021   0.279  24.293  0.00  0.00    +0.306 C 
ATOM     29  H   UNL     1      -2.859   0.979  26.238  0.00  0.00    +0.156 HD
ENDROOT
BRANCH   8  12
ATOM      5  N   UNL     1       2.299  -1.874  24.210  0.00  0.00    -0.341 N 
ATOM      6  N   UNL     1       1.172  -0.260  23.176  0.00  0.00    -0.232 NA
ATOM     12  C   UNL     1       1.075  -1.393  23.837  0.00  0.00    +0.113 A 
ATOM     14  C   UNL     1       3.250  -0.994  23.760  0.00  0.00    +0.070 A 
ATOM     15  C   UNL     1       2.522   0.004  23.118  0.00  0.00    +0.089 A 
ATOM     16  C   UNL     1       4.642  -0.986  23.856  0.00  0.00    +0.073 A 
ATOM     17  C   UNL     1       3.207   1.082  22.533  0.00  0.00    +0.033 A 
ATOM     18  C   UNL     1       5.307   0.095  23.268  0.00  0.00    +0.122 A 
ATOM     20  C   UNL     1       4.605   1.112  22.617  0.00  0.00    +0.048 A 
ATOM     28  H   UNL     1       2.474  -2.725  24.727  0.00  0.00    +0.167 HD
BRANCH  18   2
ATOM      2  O   UNL     1       6.668   0.154  23.331  0.00  0.00    -0.495 OA
ATOM     26  C   UNL     1       7.391  -0.904  22.709  0.00  0.00    +0.277 C 
ENDBRANCH  18   2
ENDBRANCH   8  12
BRANCH   7  19
ATOM     19  C   UNL     1      -4.342   2.126  25.398  0.00  0.00    +0.038 A 
ATOM     21  C   UNL     1      -4.060   3.374  24.843  0.00  0.00    +0.069 A 
ATOM     22  C   UNL     1      -5.586   1.890  25.984  0.00  0.00    +0.023 A 
ATOM     23  C   UNL     1      -5.020   4.386  24.874  0.00  0.00    +0.122 A 
ATOM     24  C   UNL     1      -6.546   2.901  26.016  0.00  0.00    +0.005 A 
ATOM     25  C   UNL     1      -6.263   4.149  25.460  0.00  0.00    +0.046 A 
BRANCH  23   3
ATOM      3  O   UNL     1      -4.742   5.604  24.333  0.00  0.00    -0.495 OA
ATOM     27  C   UNL     1      -3.587   5.696  23.501  0.00  0.00    +0.277 C 
ENDBRANCH  23   3
ENDBRANCH   7  19
TORSDOF 4
ENDMDL
MODEL 2
REMARK VINA RESULT:       9.8      1.629      8.980
REMARK  Name = 51137022
REMARK  6 active torsions:
REMARK  status: ('A' for Active; 'I' for Inactive)
REMARK    1  A    between atoms: O_2  and  C_18
REMARK    2  A    between atoms: O_2  and  C_26
REMARK    3  A    between atoms: O_3  and  C_23
REMARK    4  A    between atoms: O_3  and  C_27
REMARK    5  A    between atoms: N_7  and  C_19
REMARK    6  A    between atoms: C_8  and  C_12
REMARK                            x       y       z     vdW  Elec       q    Type
REMARK                         _______ _______ _______ _____ _____    ______ ____
ROOT
ATOM      1  O   UNL     1       0.826  -1.116  25.682  0.00  0.00    -0.252 OA
ATOM      4  N   UNL     1      -1.032  -1.566  24.411  0.00  0.00    -0.285 N 
ATOM      7  N   UNL     1       0.944  -0.881  23.363  0.00  0.00    -0.269 N 
ATOM      8  C   UNL     1      -3.307  -1.911  25.017  0.00  0.00    +0.074 C 
ATOM      9  C   UNL     1      -3.096  -2.346  23.559  0.00  0.00    +0.032 C 
ATOM     10  C   UNL     1      -1.871  -1.904  25.555  0.00  0.00    +0.120 C 
ATOM     11  C   UNL     1      -1.781  -1.686  23.162  0.00  0.00    +0.110 C 
ATOM     13  C   UNL     1       0.304  -1.179  24.567  0.00  0.00    +0.306 C 
ATOM     29  H   UNL     1       0.401  -0.945  22.508  0.00  0.00    +0.156 HD
ENDROOT
BRANCH   8  12
ATOM      5  N   UNL     1      -3.447   0.567  25.434  0.00  0.00    -0.341 N 
ATOM      6  N   UNL     1      -5.358  -0.428  24.884  0.00  0.00    -0.232 NA
ATOM     12  C   UNL     1      -4.073  -0.602  25.103  0.00  0.00    +0.113 A 
ATOM     14  C   UNL     1      -4.391   1.563  25.430  0.00  0.00    +0.070 A 
ATOM     15  C   UNL     1      -5.575   0.917  25.084  0.00  0.00    +0.089 A 
ATOM     16  C   UNL     1      -4.313   2.931  25.691  0.00  0.00    +0.073 A 
ATOM     17  C   UNL     1      -6.760   1.664  24.988  0.00  0.00    +0.033 A 
ATOM     18  C   UNL     1      -5.503   3.660  25.592  0.00  0.00    +0.122 A 
ATOM     20  C   UNL     1      -6.706   3.040  25.246  0.00  0.00    +0.048 A 
ATOM     28  H   UNL     1      -2.465   0.680  25.648  0.00  0.00    +0.167 HD
BRANCH  18   2
ATOM      2  O   UNL     1      -5.486   5.001  25.836  0.00  0.00    -0.495 OA
ATOM     26  C   UNL     1      -6.544   5.774  25.277  0.00  0.00    +0.277 C 
ENDBRANCH  18   2
ENDBRANCH   8  12
BRANCH   7  19
ATOM     19  C   UNL     1       2.284  -0.463  23.172  0.00  0.00    +0.038 A 
ATOM     21  C   UNL     1       3.325  -1.153  23.795  0.00  0.00    +0.069 A 
ATOM     22  C   UNL     1       2.564   0.637  22.362  0.00  0.00    +0.023 A 
ATOM     23  C   UNL     1       4.645  -0.741  23.608  0.00  0.00    +0.122 A 
ATOM     24  C   UNL     1       3.883   1.049  22.175  0.00  0.00    +0.005 A 
ATOM     25  C   UNL     1       4.924   0.359  22.798  0.00  0.00    +0.046 A 
BRANCH  23   3
ATOM      3  O   UNL     1       5.660  -1.413  24.218  0.00  0.00    -0.495 OA
ATOM     27  C   UNL     1       6.975  -0.885  24.060  0.00  0.00    +0.277 C 
ENDBRANCH  23   3
ENDBRANCH   7  19
TORSDOF 4
ENDMDL
MODEL 3
REMARK VINA RESULT:      10.3      1.069      1.863
REMARK  Name = 51137022
REMARK  6 active torsions:
REMARK  status: ('A' for Active; 'I' for Inactive)
REMARK    1  A    between atoms: O_2  and  C_18
REMARK    2  A    between atoms: O_2  and  C_26
REMARK    3  A    between atoms: O_3  and  C_23
REMARK    4  A    between atoms: O_3  and  C_27
REMARK    5  A    between atoms: N_7  and  C_19
REMARK    6  A    between atoms: C_8  and  C_12
REMARK                            x       y       z     vdW  Elec       q    Type
REMARK                         _______ _______ _______ _____ _____    ______ ____
ROOT
ATOM      1  O   UNL     1      -2.902   0.774  22.895  0.00  0.00    -0.252 OA
ATOM      4  N   UNL     1      -1.516  -0.427  24.275  0.00  0.00    -0.285 N 
ATOM      7  N   UNL     1      -2.815   1.301  25.167  0.00  0.00    -0.269 N 
ATOM      8  C   UNL     1       0.228  -1.973  23.794  0.00  0.00    +0.074 C 
ATOM      9  C   UNL     1      -0.137  -2.064  25.282  0.00  0.00    +0.032 C 
ATOM     10  C   UNL     1      -1.008  -1.282  23.206  0.00  0.00    +0.120 C 
ATOM     11  C   UNL     1      -0.904  -0.775  25.556  0.00  0.00    +0.110 C 
ATOM     13  C   UNL     1      -2.458   0.577  24.028  0.00  0.00    +0.306 C 
ATOM     29  H   UNL     1      -2.361   1.062  26.042  0.00  0.00    +0.156 HD
ENDROOT
BRANCH   8  12
ATOM      5  N   UNL     1       2.726  -1.814  24.061  0.00  0.00    -0.341 N 
ATOM      6  N   UNL     1       1.763  -0.131  22.971  0.00  0.00    -0.232 NA
ATOM     12  C   UNL     1       1.561  -1.274  23.589  0.00  0.00    +0.113 A 
ATOM     14  C   UNL     1       3.748  -0.962  23.726  0.00  0.00    +0.070 A 
ATOM     15  C   UNL     1       3.121   0.079  23.046  0.00  0.00    +0.089 A 
ATOM     16  C   UNL     1       5.124  -1.012  23.950  0.00  0.00    +0.073 A 
ATOM     17  C   UNL     1       3.899   1.142  22.556  0.00  0.00    +0.033 A 
ATOM     18  C   UNL     1       5.882   0.054  23.456  0.00  0.00    +0.122 A 
ATOM     20  C   UNL     1       5.282   1.114  22.771  0.00  0.00    +0.048 A 
ATOM     28  H   UNL     1       2.819  -2.683  24.568  0.00  0.00    +0.167 HD
BRANCH  18   2
ATOM      2  O   UNL     1       7.232   0.058  23.647  0.00  0.00    -0.495 OA
ATOM     26  C   UNL     1       8.019  -0.678  22.715  0.00  0.00    +0.277 C 
ENDBRANCH  18   2
ENDBRANCH   8  12
BRANCH   7  19
ATOM     19  C   UNL     1      -3.736   2.374  25.261  0.00  0.00    +0.038 A 
ATOM     21  C   UNL     1      -4.975   2.178  25.872  0.00  0.00    +0.069 A 
ATOM     22  C   UNL     1      -3.404   3.626  24.743  0.00  0.00    +0.023 A 
ATOM     23  C   UNL     1      -5.881   3.234  25.965  0.00  0.00    +0.122 A 
ATOM     24  C   UNL     1      -4.311   4.681  24.835  0.00  0.00    +0.005 A 
ATOM     25  C   UNL     1      -5.550   4.486  25.446  0.00  0.00    +0.046 A 
BRANCH  23   3
ATOM      3  O   UNL     1      -7.091   3.042  26.559  0.00  0.00    -0.495 OA
ATOM     27  C   UNL     1      -7.280   1.815  27.263  0.00  0.00    +0.277 C 
ENDBRANCH  23   3
ENDBRANCH   7  19
TORSDOF 4
ENDMDL
MODEL 4
REMARK VINA RESULT:      11.6      1.720      8.471
REMARK  Name = 51137022
REMARK  6 active torsions:
REMARK  status: ('A' for Active; 'I' for Inactive)
REMARK    1  A    between atoms: O_2  and  C_18
REMARK    2  A    between atoms: O_2  and  C_26
REMARK    3  A    between atoms: O_3  and  C_23
REMARK    4  A    between atoms: O_3  and  C_27
REMARK    5  A    between atoms: N_7  and  C_19
REMARK    6  A    between atoms: C_8  and  C_12
REMARK                            x       y       z     vdW  Elec       q    Type
REMARK                         _______ _______ _______ _____ _____    ______ ____
ROOT
ATOM      1  O   UNL     1       0.800  -1.758  25.951  0.00  0.00    -0.252 OA
ATOM      4  N   UNL     1      -0.990  -1.872  24.517  0.00  0.00    -0.285 N 
ATOM      7  N   UNL     1       1.132  -1.361  23.675  0.00  0.00    -0.269 N 
ATOM      8  C   UNL     1      -3.331  -1.975  24.929  0.00  0.00    +0.074 C 
ATOM      9  C   UNL     1      -3.056  -2.319  23.458  0.00  0.00    +0.032 C 
ATOM     10  C   UNL     1      -1.953  -2.190  25.566  0.00  0.00    +0.120 C 
ATOM     11  C   UNL     1      -1.644  -1.800  23.213  0.00  0.00    +0.110 C 
ATOM     13  C   UNL     1       0.366  -1.669  24.800  0.00  0.00    +0.306 C 
ATOM     29  H   UNL     1       0.655  -1.290  22.782  0.00  0.00    +0.156 HD
ENDROOT
BRANCH   8  12
ATOM      5  N   UNL     1      -3.156   0.519  25.224  0.00  0.00    -0.341 N 
ATOM      6  N   UNL     1      -5.221  -0.292  25.073  0.00  0.00    -0.232 NA
ATOM     12  C   UNL     1      -3.941  -0.591  25.073  0.00  0.00    +0.113 A 
ATOM     14  C   UNL     1      -3.985   1.606  25.329  0.00  0.00    +0.070 A 
ATOM     15  C   UNL     1      -5.268   1.074  25.231  0.00  0.00    +0.089 A 
ATOM     16  C   UNL     1      -3.731   2.968  25.495  0.00  0.00    +0.073 A 
ATOM     17  C   UNL     1      -6.374   1.937  25.302  0.00  0.00    +0.033 A 
ATOM     18  C   UNL     1      -4.844   3.812  25.564  0.00  0.00    +0.122 A 
ATOM     20  C   UNL     1      -6.143   3.309  25.469  0.00  0.00    +0.048 A 
ATOM     28  H   UNL     1      -2.146   0.536  25.256  0.00  0.00    +0.167 HD
BRANCH  18   2
ATOM      2  O   UNL     1      -4.655   5.153  25.726  0.00  0.00    -0.495 OA
ATOM     26  C   UNL     1      -3.322   5.593  25.971  0.00  0.00    +0.277 C 
ENDBRANCH  18   2
ENDBRANCH   8  12
BRANCH   7  19
ATOM     19  C   UNL     1       2.523  -1.101  23.617  0.00  0.00    +0.038 A 
ATOM     21  C   UNL     1       2.984   0.130  23.149  0.00  0.00    +0.069 A 
ATOM     22  C   UNL     1       3.434  -2.075  24.026  0.00  0.00    +0.023 A 
ATOM     23  C   UNL     1       4.353   0.387  23.090  0.00  0.00    +0.122 A 
ATOM     24  C   UNL     1       4.803  -1.819  23.967  0.00  0.00    +0.005 A 
ATOM     25  C   UNL     1       5.263  -0.588  23.499  0.00  0.00    +0.046 A 
BRANCH  23   3
ATOM      3  O   UNL     1       4.801   1.587  22.631  0.00  0.00    -0.495 OA
ATOM     27  C   UNL     1       3.816   2.528  22.207  0.00  0.00    +0.277 C 
ENDBRANCH  23   3
ENDBRANCH   7  19
TORSDOF 4
ENDMDL
