MODEL 1
REMARK VINA RESULT:      10.0      0.000      0.000
REMARK  Name = 7662574
REMARK  12 active torsions:
REMARK  status: ('A' for Active; 'I' for Inactive)
REMARK    1  A    between atoms: O_5  and  C_27
REMARK    2  A    between atoms: O_5  and  C_34
REMARK    3  A    between atoms: N_6  and  C_18
REMARK    4  A    between atoms: N_10  and  C_33
REMARK    5  A    between atoms: N_10  and  C_35
REMARK    6  A    between atoms: N_10  and  C_36
REMARK    7  A    between atoms: C_11  and  C_14
REMARK    8  A    between atoms: C_14  and  C_18
REMARK    9  A    between atoms: C_18  and  C_24
REMARK   10  A    between atoms: C_19  and  C_21
REMARK   11  A    between atoms: C_25  and  C_27
REMARK   12  A    between atoms: C_26  and  C_28
REMARK                            x       y       z     vdW  Elec       q    Type
REMARK                         _______ _______ _______ _____ _____    ______ ____
ROOT
ATOM      3  O   UNL     1      -4.154   4.662  24.143  0.00  0.00    -0.273 OA
ATOM      4  O   UNL     1      -0.462  -0.247  21.124  0.00  0.00    -0.270 OA
ATOM      7  N   UNL     1      -2.244   3.346  23.956  0.00  0.00    -0.285 N 
ATOM      8  N   UNL     1      -0.531   1.740  22.351  0.00  0.00    -0.294 N 
ATOM     19  C   UNL     1      -2.812   2.537  22.868  0.00  0.00    +0.179 C 
ATOM     20  C   UNL     1      -1.798   2.188  21.779  0.00  0.00    +0.140 C 
ATOM     22  C   UNL     1      -0.915   2.941  24.452  0.00  0.00    +0.127 C 
ATOM     23  C   UNL     1       0.057   2.679  23.309  0.00  0.00    +0.127 C 
ATOM     25  C   UNL     1      -3.043   4.323  24.560  0.00  0.00    +0.242 C 
ATOM     26  C   UNL     1       0.037   0.536  21.929  0.00  0.00    +0.247 C 
ENDROOT
BRANCH  26  28
ATOM     28  C   UNL     1       1.333   0.147  22.498  0.00  0.00    +0.037 A 
ATOM     29  C   UNL     1       1.427  -0.982  23.312  0.00  0.00    +0.015 A 
ATOM     30  C   UNL     1       2.471   0.905  22.224  0.00  0.00    +0.015 A 
ATOM     31  C   UNL     1       2.659  -1.352  23.852  0.00  0.00    +0.024 A 
ATOM     32  C   UNL     1       3.704   0.536  22.763  0.00  0.00    +0.024 A 
ATOM     33  C   UNL     1       3.797  -0.593  23.578  0.00  0.00    +0.029 A 
BRANCH  33  10
ATOM     10  N   UNL     1       5.043  -0.968  24.122  0.00  0.00    -0.336 N 
ATOM     35  C   UNL     1       5.420  -2.366  24.196  0.00  0.00    +0.129 C 
ATOM     36  C   UNL     1       5.968   0.040  24.601  0.00  0.00    +0.129 C 
ENDBRANCH  33  10
ENDBRANCH  26  28
BRANCH  19  21
ATOM      1  O   UNL     1      -3.113   0.178  23.099  0.00  0.00    -0.274 OA
ATOM      6  N   UNL     1      -4.231   1.604  24.560  0.00  0.00    -0.302 N 
ATOM     21  C   UNL     1      -3.382   1.304  23.509  0.00  0.00    +0.236 C 
ATOM     37  H   UNL     1      -4.433   2.576  24.772  0.00  0.00    +0.150 HD
BRANCH   6  18
ATOM     18  C   UNL     1      -4.925   0.595  25.329  0.00  0.00    +0.159 C 
BRANCH  18  24
ATOM      2  O   UNL     1      -6.547   1.202  27.033  0.00  0.00    -0.274 OA
ATOM      9  N   UNL     1      -7.033   1.677  24.838  0.00  0.00    -0.328 N 
ATOM     24  C   UNL     1      -6.229   1.187  25.846  0.00  0.00    +0.231 C 
ATOM     38  H   UNL     1      -7.935   2.092  25.049  0.00  0.00    +0.145 HD
ATOM     39  H   UNL     1      -6.767   1.641  23.860  0.00  0.00    +0.145 HD
ENDBRANCH  18  24
BRANCH  18  14
ATOM     14  C   UNL     1      -4.052   0.015  26.446  0.00  0.00    +0.035 C 
BRANCH  14  11
ATOM     11  C   UNL     1      -3.266  -1.232  26.044  0.00  0.00    -0.009 C 
ATOM     12  C   UNL     1      -1.809  -0.874  25.723  0.00  0.00    +0.003 C 
ATOM     13  C   UNL     1      -3.932  -1.933  24.854  0.00  0.00    +0.003 C 
ATOM     15  C   UNL     1      -1.015  -2.096  25.268  0.00  0.00    +0.000 C 
ATOM     16  C   UNL     1      -3.135  -3.153  24.400  0.00  0.00    +0.000 C 
ATOM     17  C   UNL     1      -1.685  -2.795  24.089  0.00  0.00    +0.000 C 
ENDBRANCH  14  11
ENDBRANCH  18  14
ENDBRANCH   6  18
ENDBRANCH  19  21
BRANCH  25  27
ATOM     27  C   UNL     1      -2.482   4.990  25.790  0.00  0.00    +0.255 C 
BRANCH  27   5
ATOM      5  O   UNL     1      -2.773   4.142  26.875  0.00  0.00    -0.374 OA
ATOM     34  C   UNL     1      -4.169   3.873  26.986  0.00  0.00    +0.194 C 
ENDBRANCH  27   5
ENDBRANCH  25  27
TORSDOF 9
ENDMDL
MODEL 2
REMARK VINA RESULT:      11.3      3.518      5.767
REMARK  Name = 7662574
REMARK  12 active torsions:
REMARK  status: ('A' for Active; 'I' for Inactive)
REMARK    1  A    between atoms: O_5  and  C_27
REMARK    2  A    between atoms: O_5  and  C_34
REMARK    3  A    between atoms: N_6  and  C_18
REMARK    4  A    between atoms: N_10  and  C_33
REMARK    5  A    between atoms: N_10  and  C_35
REMARK    6  A    between atoms: N_10  and  C_36
REMARK    7  A    between atoms: C_11  and  C_14
REMARK    8  A    between atoms: C_14  and  C_18
REMARK    9  A    between atoms: C_18  and  C_24
REMARK   10  A    between atoms: C_19  and  C_21
REMARK   11  A    between atoms: C_25  and  C_27
REMARK   12  A    between atoms: C_26  and  C_28
REMARK                            x       y       z     vdW  Elec       q    Type
REMARK                         _______ _______ _______ _____ _____    ______ ____
ROOT
ATOM      3  O   UNL     1      -4.665   3.462  22.649  0.00  0.00    -0.273 OA
ATOM      4  O   UNL     1       1.596   2.392  25.199  0.00  0.00    -0.270 OA
ATOM      7  N   UNL     1      -3.188   3.181  24.425  0.00  0.00    -0.285 N 
ATOM      8  N   UNL     1      -0.536   3.319  25.442  0.00  0.00    -0.294 N 
ATOM     19  C   UNL     1      -2.052   2.894  23.538  0.00  0.00    +0.179 C 
ATOM     20  C   UNL     1      -0.740   3.520  24.010  0.00  0.00    +0.140 C 
ATOM     22  C   UNL     1      -2.935   3.073  25.874  0.00  0.00    +0.127 C 
ATOM     23  C   UNL     1      -1.648   3.781  26.275  0.00  0.00    +0.127 C 
ATOM     25  C   UNL     1      -4.454   3.371  23.861  0.00  0.00    +0.242 C 
ATOM     26  C   UNL     1       0.665   2.778  25.905  0.00  0.00    +0.247 C 
ENDROOT
BRANCH  26  28
ATOM     28  C   UNL     1       0.846   2.634  27.355  0.00  0.00    +0.037 A 
ATOM     29  C   UNL     1      -0.257   2.393  28.175  0.00  0.00    +0.015 A 
ATOM     30  C   UNL     1       2.120   2.737  27.913  0.00  0.00    +0.015 A 
ATOM     31  C   UNL     1      -0.085   2.256  29.552  0.00  0.00    +0.024 A 
ATOM     32  C   UNL     1       2.293   2.600  29.290  0.00  0.00    +0.024 A 
ATOM     33  C   UNL     1       1.189   2.359  30.110  0.00  0.00    +0.029 A 
BRANCH  33  10
ATOM     10  N   UNL     1       1.364   2.218  31.502  0.00  0.00    -0.336 N 
ATOM     35  C   UNL     1       2.567   1.607  32.032  0.00  0.00    +0.129 C 
ATOM     36  C   UNL     1       0.350   2.696  32.422  0.00  0.00    +0.129 C 
ENDBRANCH  33  10
ENDBRANCH  26  28
BRANCH  19  21
ATOM      1  O   UNL     1      -2.945   0.680  23.438  0.00  0.00    -0.274 OA
ATOM      6  N   UNL     1      -0.636   0.964  23.411  0.00  0.00    -0.302 N 
ATOM     21  C   UNL     1      -1.949   1.398  23.450  0.00  0.00    +0.236 C 
ATOM     37  H   UNL     1       0.114   1.644  23.493  0.00  0.00    +0.150 HD
BRANCH   6  18
ATOM     18  C   UNL     1      -0.265  -0.432  23.348  0.00  0.00    +0.159 C 
BRANCH  18  24
ATOM      2  O   UNL     1       0.290  -2.088  25.037  0.00  0.00    -0.274 OA
ATOM      9  N   UNL     1      -0.569  -0.071  25.721  0.00  0.00    -0.328 N 
ATOM     24  C   UNL     1      -0.133  -0.966  24.768  0.00  0.00    +0.231 C 
ATOM     38  H   UNL     1      -0.541  -0.307  26.708  0.00  0.00    +0.145 HD
ATOM     39  H   UNL     1      -0.934   0.846  25.484  0.00  0.00    +0.145 HD
ENDBRANCH  18  24
BRANCH  18  14
ATOM     14  C   UNL     1       0.995  -0.660  22.509  0.00  0.00    +0.035 C 
BRANCH  14  11
ATOM     11  C   UNL     1       2.292  -0.232  23.196  0.00  0.00    -0.009 C 
ATOM     12  C   UNL     1       3.015   0.839  22.369  0.00  0.00    +0.003 C 
ATOM     13  C   UNL     1       3.201  -1.443  23.438  0.00  0.00    +0.003 C 
ATOM     15  C   UNL     1       4.341   1.244  23.009  0.00  0.00    +0.000 C 
ATOM     16  C   UNL     1       4.527  -1.034  24.076  0.00  0.00    +0.000 C 
ATOM     17  C   UNL     1       5.239   0.037  23.256  0.00  0.00    +0.000 C 
ENDBRANCH  14  11
ENDBRANCH  18  14
ENDBRANCH   6  18
ENDBRANCH  19  21
BRANCH  25  27
ATOM     27  C   UNL     1      -5.613   3.471  24.820  0.00  0.00    +0.255 C 
BRANCH  27   5
ATOM      5  O   UNL     1      -6.170   2.182  24.915  0.00  0.00    -0.374 OA
ATOM     34  C   UNL     1      -6.222   1.718  26.262  0.00  0.00    +0.194 C 
ENDBRANCH  27   5
ENDBRANCH  25  27
TORSDOF 9
ENDMDL
MODEL 3
REMARK VINA RESULT:      11.7      1.644      3.189
REMARK  Name = 7662574
REMARK  12 active torsions:
REMARK  status: ('A' for Active; 'I' for Inactive)
REMARK    1  A    between atoms: O_5  and  C_27
REMARK    2  A    between atoms: O_5  and  C_34
REMARK    3  A    between atoms: N_6  and  C_18
REMARK    4  A    between atoms: N_10  and  C_33
REMARK    5  A    between atoms: N_10  and  C_35
REMARK    6  A    between atoms: N_10  and  C_36
REMARK    7  A    between atoms: C_11  and  C_14
REMARK    8  A    between atoms: C_14  and  C_18
REMARK    9  A    between atoms: C_18  and  C_24
REMARK   10  A    between atoms: C_19  and  C_21
REMARK   11  A    between atoms: C_25  and  C_27
REMARK   12  A    between atoms: C_26  and  C_28
REMARK                            x       y       z     vdW  Elec       q    Type
REMARK                         _______ _______ _______ _____ _____    ______ ____
ROOT
ATOM      3  O   UNL     1      -3.766   3.754  24.237  0.00  0.00    -0.273 OA
ATOM      4  O   UNL     1       0.535  -0.584  21.151  0.00  0.00    -0.270 OA
ATOM      7  N   UNL     1      -1.701   2.702  24.033  0.00  0.00    -0.285 N 
ATOM      8  N   UNL     1       0.207   1.359  22.408  0.00  0.00    -0.294 N 
ATOM     19  C   UNL     1      -2.159   1.842  22.932  0.00  0.00    +0.179 C 
ATOM     20  C   UNL     1      -1.108   1.645  21.840  0.00  0.00    +0.140 C 
ATOM     22  C   UNL     1      -0.331   2.467  24.526  0.00  0.00    +0.127 C 
ATOM     23  C   UNL     1       0.667   2.351  23.381  0.00  0.00    +0.127 C 
ATOM     25  C   UNL     1      -2.621   3.558  24.650  0.00  0.00    +0.242 C 
ATOM     26  C   UNL     1       0.927   0.246  21.969  0.00  0.00    +0.247 C 
ENDROOT
BRANCH  26  28
ATOM     28  C   UNL     1       2.264   0.020  22.535  0.00  0.00    +0.037 A 
ATOM     29  C   UNL     1       2.528  -1.142  23.259  0.00  0.00    +0.015 A 
ATOM     30  C   UNL     1       3.269   0.969  22.348  0.00  0.00    +0.015 A 
ATOM     31  C   UNL     1       3.797  -1.356  23.796  0.00  0.00    +0.024 A 
ATOM     32  C   UNL     1       4.539   0.755  22.884  0.00  0.00    +0.024 A 
ATOM     33  C   UNL     1       4.803  -0.408  23.609  0.00  0.00    +0.029 A 
BRANCH  33  10
ATOM     10  N   UNL     1       6.087  -0.624  24.149  0.00  0.00    -0.336 N 
ATOM     35  C   UNL     1       6.240  -1.265  25.441  0.00  0.00    +0.129 C 
ATOM     36  C   UNL     1       7.271  -0.222  23.415  0.00  0.00    +0.129 C 
ENDBRANCH  33  10
ENDBRANCH  26  28
BRANCH  19  21
ATOM      1  O   UNL     1      -3.125  -0.342  22.906  0.00  0.00    -0.274 OA
ATOM      6  N   UNL     1      -2.247   0.476  24.899  0.00  0.00    -0.302 N 
ATOM     21  C   UNL     1      -2.562   0.536  23.553  0.00  0.00    +0.236 C 
ATOM     37  H   UNL     1      -1.839   1.290  25.350  0.00  0.00    +0.150 HD
BRANCH   6  18
ATOM     18  C   UNL     1      -2.550  -0.666  25.733  0.00  0.00    +0.159 C 
BRANCH  18  24
ATOM      2  O   UNL     1      -1.824  -2.869  25.009  0.00  0.00    -0.274 OA
ATOM      9  N   UNL     1      -0.242  -1.391  25.777  0.00  0.00    -0.328 N 
ATOM     24  C   UNL     1      -1.530  -1.761  25.451  0.00  0.00    +0.231 C 
ATOM     38  H   UNL     1       0.532  -2.033  25.644  0.00  0.00    +0.145 HD
ATOM     39  H   UNL     1      -0.015  -0.479  26.160  0.00  0.00    +0.145 HD
ENDBRANCH  18  24
BRANCH  18  14
ATOM     14  C   UNL     1      -3.995  -1.143  25.557  0.00  0.00    +0.035 C 
BRANCH  14  11
ATOM     11  C   UNL     1      -5.045  -0.051  25.763  0.00  0.00    -0.009 C 
ATOM     12  C   UNL     1      -5.734   0.295  24.436  0.00  0.00    +0.003 C 
ATOM     13  C   UNL     1      -4.413   1.196  26.393  0.00  0.00    +0.003 C 
ATOM     15  C   UNL     1      -6.750   1.421  24.606  0.00  0.00    +0.000 C 
ATOM     16  C   UNL     1      -5.432   2.321  26.559  0.00  0.00    +0.000 C 
ATOM     17  C   UNL     1      -6.121   2.657  25.240  0.00  0.00    +0.000 C 
ENDBRANCH  14  11
ENDBRANCH  18  14
ENDBRANCH   6  18
ENDBRANCH  19  21
BRANCH  25  27
ATOM     27  C   UNL     1      -2.152   4.273  25.891  0.00  0.00    +0.255 C 
BRANCH  27   5
ATOM      5  O   UNL     1      -1.885   5.602  25.513  0.00  0.00    -0.374 OA
ATOM     34  C   UNL     1      -0.693   5.711  24.739  0.00  0.00    +0.194 C 
ENDBRANCH  27   5
ENDBRANCH  25  27
TORSDOF 9
ENDMDL
MODEL 4
REMARK VINA RESULT:      12.2      3.414      5.449
REMARK  Name = 7662574
REMARK  12 active torsions:
REMARK  status: ('A' for Active; 'I' for Inactive)
REMARK    1  A    between atoms: O_5  and  C_27
REMARK    2  A    between atoms: O_5  and  C_34
REMARK    3  A    between atoms: N_6  and  C_18
REMARK    4  A    between atoms: N_10  and  C_33
REMARK    5  A    between atoms: N_10  and  C_35
REMARK    6  A    between atoms: N_10  and  C_36
REMARK    7  A    between atoms: C_11  and  C_14
REMARK    8  A    between atoms: C_14  and  C_18
REMARK    9  A    between atoms: C_18  and  C_24
REMARK   10  A    between atoms: C_19  and  C_21
REMARK   11  A    between atoms: C_25  and  C_27
REMARK   12  A    between atoms: C_26  and  C_28
REMARK                            x       y       z     vdW  Elec       q    Type
REMARK                         _______ _______ _______ _____ _____    ______ ____
ROOT
ATOM      3  O   UNL     1      -4.476   3.319  22.417  0.00  0.00    -0.273 OA
ATOM      4  O   UNL     1       1.787   2.881  25.142  0.00  0.00    -0.270 OA
ATOM      7  N   UNL     1      -3.033   3.077  24.226  0.00  0.00    -0.285 N 
ATOM      8  N   UNL     1      -0.461   3.480  25.370  0.00  0.00    -0.294 N 
ATOM     19  C   UNL     1      -1.840   3.033  23.369  0.00  0.00    +0.179 C 
ATOM     20  C   UNL     1      -0.645   3.786  23.954  0.00  0.00    +0.140 C 
ATOM     22  C   UNL     1      -2.814   2.868  25.670  0.00  0.00    +0.127 C 
ATOM     23  C   UNL     1      -1.653   3.705  26.190  0.00  0.00    +0.127 C 
ATOM     25  C   UNL     1      -4.295   3.144  23.625  0.00  0.00    +0.242 C 
ATOM     26  C   UNL     1       0.789   3.068  25.837  0.00  0.00    +0.247 C 
ENDROOT
BRANCH  26  28
ATOM     28  C   UNL     1       0.941   2.814  27.275  0.00  0.00    +0.037 A 
ATOM     29  C   UNL     1       2.166   3.045  27.899  0.00  0.00    +0.015 A 
ATOM     30  C   UNL     1      -0.142   2.341  28.017  0.00  0.00    +0.015 A 
ATOM     31  C   UNL     1       2.310   2.804  29.265  0.00  0.00    +0.024 A 
ATOM     32  C   UNL     1       0.001   2.100  29.384  0.00  0.00    +0.024 A 
ATOM     33  C   UNL     1       1.228   2.331  30.008  0.00  0.00    +0.029 A 
BRANCH  33  10
ATOM     10  N   UNL     1       1.372   2.089  31.390  0.00  0.00    -0.336 N 
ATOM     35  C   UNL     1       0.307   2.437  32.310  0.00  0.00    +0.129 C 
ATOM     36  C   UNL     1       2.580   1.476  31.906  0.00  0.00    +0.129 C 
ENDBRANCH  33  10
ENDBRANCH  26  28
BRANCH  19  21
ATOM      1  O   UNL     1      -2.349   0.803  22.678  0.00  0.00    -0.274 OA
ATOM      6  N   UNL     1      -0.246   1.253  23.569  0.00  0.00    -0.302 N 
ATOM     21  C   UNL     1      -1.525   1.580  23.153  0.00  0.00    +0.236 C 
ATOM     37  H   UNL     1       0.329   1.965  24.010  0.00  0.00    +0.150 HD
BRANCH   6  18
ATOM     18  C   UNL     1       0.293  -0.086  23.490  0.00  0.00    +0.159 C 
BRANCH  18  24
ATOM      2  O   UNL     1       1.333  -0.634  21.364  0.00  0.00    -0.274 OA
ATOM      9  N   UNL     1       2.564   0.526  22.918  0.00  0.00    -0.328 N 
ATOM     24  C   UNL     1       1.420  -0.099  22.466  0.00  0.00    +0.231 C 
ATOM     38  H   UNL     1       3.392   0.580  22.334  0.00  0.00    +0.145 HD
ATOM     39  H   UNL     1       2.629   0.947  23.839  0.00  0.00    +0.145 HD
ENDBRANCH  18  24
BRANCH  18  14
ATOM     14  C   UNL     1      -0.789  -1.129  23.195  0.00  0.00    +0.035 C 
BRANCH  14  11
ATOM     11  C   UNL     1      -1.456  -1.710  24.441  0.00  0.00    -0.009 C 
ATOM     12  C   UNL     1      -2.900  -2.129  24.137  0.00  0.00    +0.003 C 
ATOM     13  C   UNL     1      -1.411  -0.705  25.599  0.00  0.00    +0.003 C 
ATOM     15  C   UNL     1      -3.606  -2.664  25.380  0.00  0.00    +0.000 C 
ATOM     16  C   UNL     1      -2.120  -1.242  26.840  0.00  0.00    +0.000 C 
ATOM     17  C   UNL     1      -3.552  -1.666  26.532  0.00  0.00    +0.000 C 
ENDBRANCH  14  11
ENDBRANCH  18  14
ENDBRANCH   6  18
ENDBRANCH  19  21
BRANCH  25  27
ATOM     27  C   UNL     1      -5.487   2.993  24.536  0.00  0.00    +0.255 C 
BRANCH  27   5
ATOM      5  O   UNL     1      -5.668   1.612  24.736  0.00  0.00    -0.374 OA
ATOM     34  C   UNL     1      -6.185   1.322  26.033  0.00  0.00    +0.194 C 
ENDBRANCH  27   5
ENDBRANCH  25  27
TORSDOF 9
ENDMDL
MODEL 5
REMARK VINA RESULT:      13.1      2.924      4.698
REMARK  Name = 7662574
REMARK  12 active torsions:
REMARK  status: ('A' for Active; 'I' for Inactive)
REMARK    1  A    between atoms: O_5  and  C_27
REMARK    2  A    between atoms: O_5  and  C_34
REMARK    3  A    between atoms: N_6  and  C_18
REMARK    4  A    between atoms: N_10  and  C_33
REMARK    5  A    between atoms: N_10  and  C_35
REMARK    6  A    between atoms: N_10  and  C_36
REMARK    7  A    between atoms: C_11  and  C_14
REMARK    8  A    between atoms: C_14  and  C_18
REMARK    9  A    between atoms: C_18  and  C_24
REMARK   10  A    between atoms: C_19  and  C_21
REMARK   11  A    between atoms: C_25  and  C_27
REMARK   12  A    between atoms: C_26  and  C_28
REMARK                            x       y       z     vdW  Elec       q    Type
REMARK                         _______ _______ _______ _____ _____    ______ ____
ROOT
ATOM      3  O   UNL     1      -6.890   1.824  23.873  0.00  0.00    -0.273 OA
ATOM      4  O   UNL     1      -0.055   2.097  23.648  0.00  0.00    -0.270 OA
ATOM      7  N   UNL     1      -4.806   2.025  24.887  0.00  0.00    -0.285 N 
ATOM      8  N   UNL     1      -2.052   2.709  24.697  0.00  0.00    -0.294 N 
ATOM     19  C   UNL     1      -4.083   1.794  23.628  0.00  0.00    +0.179 C 
ATOM     20  C   UNL     1      -2.844   2.675  23.470  0.00  0.00    +0.140 C 
ATOM     22  C   UNL     1      -3.982   2.160  26.103  0.00  0.00    +0.127 C 
ATOM     23  C   UNL     1      -2.809   3.107  25.886  0.00  0.00    +0.127 C 
ATOM     25  C   UNL     1      -6.202   1.937  24.891  0.00  0.00    +0.242 C 
ATOM     26  C   UNL     1      -0.685   2.430  24.651  0.00  0.00    +0.247 C 
ENDROOT
BRANCH  26  28
ATOM     28  C   UNL     1       0.081   2.519  25.900  0.00  0.00    +0.037 A 
ATOM     29  C   UNL     1       1.202   3.345  25.974  0.00  0.00    +0.015 A 
ATOM     30  C   UNL     1      -0.312   1.776  27.014  0.00  0.00    +0.015 A 
ATOM     31  C   UNL     1       1.930   3.430  27.161  0.00  0.00    +0.024 A 
ATOM     32  C   UNL     1       0.415   1.861  28.202  0.00  0.00    +0.024 A 
ATOM     33  C   UNL     1       1.536   2.688  28.275  0.00  0.00    +0.029 A 
BRANCH  33  10
ATOM     10  N   UNL     1       2.270   2.774  29.476  0.00  0.00    -0.336 N 
ATOM     35  C   UNL     1       3.405   3.670  29.579  0.00  0.00    +0.129 C 
ATOM     36  C   UNL     1       1.891   1.979  30.628  0.00  0.00    +0.129 C 
ENDBRANCH  33  10
ENDBRANCH  26  28
BRANCH  19  21
ATOM      1  O   UNL     1      -4.495  -0.508  23.139  0.00  0.00    -0.274 OA
ATOM      6  N   UNL     1      -2.493   0.084  24.167  0.00  0.00    -0.302 N 
ATOM     21  C   UNL     1      -3.731   0.335  23.601  0.00  0.00    +0.236 C 
ATOM     37  H   UNL     1      -1.972   0.852  24.580  0.00  0.00    +0.150 HD
BRANCH   6  18
ATOM     18  C   UNL     1      -1.931  -1.243  24.284  0.00  0.00    +0.159 C 
BRANCH  18  24
ATOM      2  O   UNL     1      -3.304  -3.188  24.770  0.00  0.00    -0.274 OA
ATOM      9  N   UNL     1      -3.204  -1.502  26.326  0.00  0.00    -0.328 N 
ATOM     24  C   UNL     1      -2.868  -2.097  25.129  0.00  0.00    +0.231 C 
ATOM     38  H   UNL     1      -3.829  -1.964  26.979  0.00  0.00    +0.145 HD
ATOM     39  H   UNL     1      -2.852  -0.591  26.602  0.00  0.00    +0.145 HD
ENDBRANCH  18  24
BRANCH  18  14
ATOM     14  C   UNL     1      -0.499  -1.219  24.827  0.00  0.00    +0.035 C 
BRANCH  14  11
ATOM     11  C   UNL     1       0.581  -1.247  23.747  0.00  0.00    -0.009 C 
ATOM     12  C   UNL     1       1.842  -0.512  24.223  0.00  0.00    +0.003 C 
ATOM     13  C   UNL     1       0.056  -0.641  22.440  0.00  0.00    +0.003 C 
ATOM     15  C   UNL     1       2.918  -0.480  23.141  0.00  0.00    +0.000 C 
ATOM     16  C   UNL     1       1.135  -0.608  21.360  0.00  0.00    +0.000 C 
ATOM     17  C   UNL     1       2.390   0.115  21.840  0.00  0.00    +0.000 C 
ENDBRANCH  14  11
ENDBRANCH  18  14
ENDBRANCH   6  18
ENDBRANCH  19  21
BRANCH  25  27
ATOM     27  C   UNL     1      -6.880   1.991  26.237  0.00  0.00    +0.255 C 
BRANCH  27   5
ATOM      5  O   UNL     1      -6.624   3.270  26.765  0.00  0.00    -0.374 OA
ATOM     34  C   UNL     1      -6.331   4.222  25.745  0.00  0.00    +0.194 C 
ENDBRANCH  27   5
ENDBRANCH  25  27
TORSDOF 9
ENDMDL
