MODEL 1
REMARK VINA RESULT:       5.1      0.000      0.000
REMARK  Name = 9391198
REMARK  6 active torsions:
REMARK  status: ('A' for Active; 'I' for Inactive)
REMARK    1  A    between atoms: S_1  and  N_9
REMARK    2  A    between atoms: S_1  and  C_24
REMARK    3  A    between atoms: O_6  and  C_33
REMARK    4  A    between atoms: O_6  and  C_35
REMARK    5  A    between atoms: N_9  and  C_18
REMARK    6  A    between atoms: N_10  and  C_23
REMARK                            x       y       z     vdW  Elec       q    Type
REMARK                         _______ _______ _______ _____ _____    ______ ____
ROOT
ATOM      2  O   UNL     1       0.646   2.408  27.414  0.00  0.00    -0.268 OA
ATOM      3  O   UNL     1       0.974  -0.070  22.046  0.00  0.00    -0.252 OA
ATOM      7  N   UNL     1      -0.827   1.400  25.895  0.00  0.00    -0.310 N 
ATOM      8  N   UNL     1      -0.299  -0.950  23.767  0.00  0.00    -0.284 N 
ATOM     10  N   UNL     1       2.035  -1.290  23.711  0.00  0.00    -0.269 N 
ATOM     11  C   UNL     1      -1.402  -1.090  26.016  0.00  0.00    +0.027 C 
ATOM     12  C   UNL     1      -2.394   0.306  24.258  0.00  0.00    +0.055 C 
ATOM     13  C   UNL     1      -2.717  -0.675  25.382  0.00  0.00    +0.018 C 
ATOM     14  C   UNL     1      -0.765   0.146  26.654  0.00  0.00    +0.130 C 
ATOM     15  C   UNL     1      -0.468  -1.756  24.987  0.00  0.00    +0.114 C 
ATOM     16  C   UNL     1      -1.541  -0.412  23.198  0.00  0.00    +0.119 C 
ATOM     17  C   UNL     1      -1.658   1.544  24.765  0.00  0.00    +0.049 A 
ATOM     18  C   UNL     1      -1.737   2.756  24.177  0.00  0.00    +0.068 A 
ATOM     19  C   UNL     1      -0.082   2.473  26.422  0.00  0.00    +0.252 A 
ATOM     20  C   UNL     1       0.923  -0.715  23.097  0.00  0.00    +0.306 C 
ATOM     21  C   UNL     1      -1.010   3.891  24.667  0.00  0.00    +0.031 A 
ATOM     22  C   UNL     1      -0.207   3.780  25.727  0.00  0.00    +0.072 A 
ATOM     37  H   UNL     1       1.897  -2.126  24.267  0.00  0.00    +0.156 HD
ENDROOT
BRANCH  10  23
ATOM     23  C   UNL     1       3.384  -0.869  23.610  0.00  0.00    +0.035 A 
ATOM     25  C   UNL     1       4.408  -1.720  24.016  0.00  0.00    +0.027 A 
ATOM     26  C   UNL     1       3.678   0.396  23.107  0.00  0.00    +0.027 A 
ATOM     29  C   UNL     1       5.736  -1.303  23.918  0.00  0.00    +0.047 A 
ATOM     30  C   UNL     1       5.006   0.812  23.009  0.00  0.00    +0.047 A 
ATOM     33  C   UNL     1       6.035  -0.038  23.414  0.00  0.00    +0.120 A 
BRANCH  33   6
ATOM      6  O   UNL     1       7.330   0.367  23.317  0.00  0.00    -0.495 OA
ATOM     35  C   UNL     1       8.270  -0.579  22.808  0.00  0.00    +0.277 C 
ENDBRANCH  33   6
ENDBRANCH  10  23
BRANCH  18   9
ATOM      9  N   UNL     1      -2.542   2.918  23.024  0.00  0.00    -0.215 N 
ATOM     36  H   UNL     1      -2.683   2.065  22.471  0.00  0.00    +0.174 HD
BRANCH   9   1
ATOM      1  S   UNL     1      -3.892   3.920  23.172  0.00  0.00    +0.072 S 
ATOM      4  O   UNL     1      -3.499   5.192  23.749  0.00  0.00    -0.150 OA
ATOM      5  O   UNL     1      -4.669   3.882  21.947  0.00  0.00    -0.150 OA
BRANCH   1  24
ATOM     24  C   UNL     1      -4.809   3.043  24.405  0.00  0.00    +0.108 A 
ATOM     27  C   UNL     1      -5.035   3.643  25.631  0.00  0.00    +0.029 A 
ATOM     28  C   UNL     1      -5.282   1.775  24.119  0.00  0.00    +0.029 A 
ATOM     31  C   UNL     1      -5.758   2.951  26.603  0.00  0.00    +0.002 A 
ATOM     32  C   UNL     1      -6.004   1.084  25.091  0.00  0.00    +0.002 A 
ATOM     34  C   UNL     1      -6.242   1.672  26.333  0.00  0.00    +0.000 A 
ENDBRANCH   1  24
ENDBRANCH   9   1
ENDBRANCH  18   9
TORSDOF 5
ENDMDL
