MODEL 1
REMARK VINA RESULT:      -3.2      0.000      0.000
REMARK  Name = 75537125
REMARK  2 active torsions:
REMARK  status: ('A' for Active; 'I' for Inactive)
REMARK    1  A    between atoms: N_4  and  C_9
REMARK    2  A    between atoms: N_5  and  C_11
REMARK                            x       y       z     vdW  Elec       q    Type
REMARK                         _______ _______ _______ _____ _____    ______ ____
ROOT
ATOM      2  O   UNL     1      10.859  -6.200  32.864  0.00  0.00    -0.252 OA
ATOM      3  N   UNL     1      12.707  -7.317  31.940  0.00  0.00    -0.278 N 
ATOM      4  N   UNL     1      10.831  -8.493  32.314  0.00  0.00    -0.281 N 
ATOM      5  N   UNL     1      14.926  -7.791  30.278  0.00  0.00    -0.296 NA
ATOM      6  C   UNL     1      13.063  -8.683  31.618  0.00  0.00    +0.109 C 
ATOM      7  C   UNL     1      11.729  -9.425  31.654  0.00  0.00    +0.133 C 
ATOM      8  C   UNL     1      13.794  -8.739  30.275  0.00  0.00    +0.108 C 
ATOM     10  C   UNL     1      13.709  -6.277  31.830  0.00  0.00    +0.125 C 
ATOM     12  C   UNL     1      14.454  -6.409  30.499  0.00  0.00    +0.104 C 
ATOM     13  C   UNL     1      11.399  -7.209  32.432  0.00  0.00    +0.305 C 
ENDROOT
BRANCH   5  11
ATOM      1  O   UNL     1      15.633  -8.121  26.153  0.00  0.00    -0.380 OA
ATOM     11  C   UNL     1      15.666  -7.881  29.022  0.00  0.00    +0.061 C 
ATOM     18  C   UNL     1      15.338  -6.701  28.102  0.00  0.00    +0.047 C 
ATOM     19  C   UNL     1      15.351  -9.201  28.312  0.00  0.00    +0.047 C 
ATOM     21  C   UNL     1      16.013  -6.881  26.747  0.00  0.00    +0.161 C 
ATOM     22  C   UNL     1      16.026  -9.242  26.945  0.00  0.00    +0.161 C 
ENDBRANCH   5  11
BRANCH   4   9
ATOM      9  C   UNL     1       9.473  -8.848  32.651  0.00  0.00    +0.078 C 
ATOM     14  C   UNL     1       9.280 -10.365  32.573  0.00  0.00    +0.022 C 
ATOM     15  C   UNL     1       8.479  -8.113  31.748  0.00  0.00    +0.022 C 
ATOM     16  C   UNL     1       7.838 -10.766  32.873  0.00  0.00    +0.002 C 
ATOM     17  C   UNL     1       7.038  -8.516  32.051  0.00  0.00    +0.002 C 
ATOM     20  C   UNL     1       6.850 -10.028  31.974  0.00  0.00    +0.000 C 
ENDBRANCH   4   9
TORSDOF 2
ENDMDL
MODEL 2
REMARK VINA RESULT:      -1.8     15.329     17.322
REMARK  Name = 75537125
REMARK  2 active torsions:
REMARK  status: ('A' for Active; 'I' for Inactive)
REMARK    1  A    between atoms: N_4  and  C_9
REMARK    2  A    between atoms: N_5  and  C_11
REMARK                            x       y       z     vdW  Elec       q    Type
REMARK                         _______ _______ _______ _____ _____    ______ ____
ROOT
ATOM      2  O   UNL     1      -2.780  -0.729  26.019  0.00  0.00    -0.252 OA
ATOM      3  N   UNL     1      -1.202  -0.422  24.306  0.00  0.00    -0.278 N 
ATOM      4  N   UNL     1      -2.543   1.299  24.838  0.00  0.00    -0.281 N 
ATOM      5  N   UNL     1       1.262  -0.542  22.954  0.00  0.00    -0.296 NA
ATOM      6  C   UNL     1      -0.887   0.600  23.329  0.00  0.00    +0.109 C 
ATOM      7  C   UNL     1      -1.631   1.832  23.841  0.00  0.00    +0.133 C 
ATOM      8  C   UNL     1       0.628   0.768  23.207  0.00  0.00    +0.108 C 
ATOM     10  C   UNL     1      -0.523  -1.700  24.240  0.00  0.00    +0.125 C 
ATOM     12  C   UNL     1       0.982  -1.483  24.057  0.00  0.00    +0.104 C 
ATOM     13  C   UNL     1      -2.245  -0.040  25.160  0.00  0.00    +0.305 C 
ENDROOT
BRANCH   5  11
ATOM      1  O   UNL     1       5.246   0.427  23.854  0.00  0.00    -0.380 OA
ATOM     11  C   UNL     1       2.703  -0.382  22.775  0.00  0.00    +0.061 C 
ATOM     18  C   UNL     1       3.482  -1.241  23.776  0.00  0.00    +0.047 C 
ATOM     19  C   UNL     1       3.099   1.090  22.929  0.00  0.00    +0.047 C 
ATOM     21  C   UNL     1       4.976  -0.961  23.665  0.00  0.00    +0.161 C 
ATOM     22  C   UNL     1       4.615   1.240  22.865  0.00  0.00    +0.161 C 
ENDBRANCH   5  11
BRANCH   4   9
ATOM      9  C   UNL     1      -3.521   2.128  25.500  0.00  0.00    +0.078 C 
ATOM     14  C   UNL     1      -4.938   1.701  25.110  0.00  0.00    +0.022 C 
ATOM     15  C   UNL     1      -3.279   3.607  25.188  0.00  0.00    +0.022 C 
ATOM     16  C   UNL     1      -5.993   2.596  25.756  0.00  0.00    +0.002 C 
ATOM     17  C   UNL     1      -4.335   4.499  25.835  0.00  0.00    +0.002 C 
ATOM     20  C   UNL     1      -5.747   4.070  25.447  0.00  0.00    +0.000 C 
ENDBRANCH   4   9
TORSDOF 2
ENDMDL
MODEL 3
REMARK VINA RESULT:      -1.2      3.245      5.447
REMARK  Name = 75537125
REMARK  2 active torsions:
REMARK  status: ('A' for Active; 'I' for Inactive)
REMARK    1  A    between atoms: N_4  and  C_9
REMARK    2  A    between atoms: N_5  and  C_11
REMARK                            x       y       z     vdW  Elec       q    Type
REMARK                         _______ _______ _______ _____ _____    ______ ____
ROOT
ATOM      2  O   UNL     1      14.766  -5.777  30.955  0.00  0.00    -0.252 OA
ATOM      3  N   UNL     1      16.203  -5.667  29.100  0.00  0.00    -0.278 N 
ATOM      4  N   UNL     1      15.276  -7.647  29.612  0.00  0.00    -0.281 N 
ATOM      5  N   UNL     1      17.362  -4.687  26.732  0.00  0.00    -0.296 NA
ATOM      6  C   UNL     1      16.810  -6.603  28.176  0.00  0.00    +0.109 C 
ATOM      7  C   UNL     1      16.008  -7.886  28.380  0.00  0.00    +0.133 C 
ATOM      8  C   UNL     1      16.776  -6.042  26.754  0.00  0.00    +0.108 C 
ATOM     10  C   UNL     1      16.598  -4.274  29.061  0.00  0.00    +0.125 C 
ATOM     12  C   UNL     1      16.608  -3.774  27.615  0.00  0.00    +0.104 C 
ATOM     13  C   UNL     1      15.345  -6.298  30.011  0.00  0.00    +0.305 C 
ENDROOT
BRANCH   5  11
ATOM      1  O   UNL     1      16.014  -3.687  22.884  0.00  0.00    -0.380 OA
ATOM     11  C   UNL     1      17.390  -4.167  25.367  0.00  0.00    +0.061 C 
ATOM     18  C   UNL     1      16.386  -3.023  25.191  0.00  0.00    +0.047 C 
ATOM     19  C   UNL     1      17.088  -5.287  24.366  0.00  0.00    +0.047 C 
ATOM     21  C   UNL     1      16.332  -2.585  23.732  0.00  0.00    +0.161 C 
ATOM     22  C   UNL     1      16.995  -4.722  22.952  0.00  0.00    +0.161 C 
ENDBRANCH   5  11
BRANCH   4   9
ATOM      9  C   UNL     1      14.465  -8.669  30.229  0.00  0.00    +0.078 C 
ATOM     14  C   UNL     1      13.107  -8.098  30.645  0.00  0.00    +0.022 C 
ATOM     15  C   UNL     1      15.194  -9.294  31.421  0.00  0.00    +0.022 C 
ATOM     16  C   UNL     1      12.247  -9.145  31.348  0.00  0.00    +0.002 C 
ATOM     17  C   UNL     1      14.333 -10.341  32.123  0.00  0.00    +0.002 C 
ATOM     20  C   UNL     1      12.978  -9.770  32.534  0.00  0.00    +0.000 C 
ENDBRANCH   4   9
TORSDOF 2
ENDMDL
MODEL 4
REMARK VINA RESULT:      -0.6      5.127      7.824
REMARK  Name = 75537125
REMARK  2 active torsions:
REMARK  status: ('A' for Active; 'I' for Inactive)
REMARK    1  A    between atoms: N_4  and  C_9
REMARK    2  A    between atoms: N_5  and  C_11
REMARK                            x       y       z     vdW  Elec       q    Type
REMARK                         _______ _______ _______ _____ _____    ______ ____
ROOT
ATOM      2  O   UNL     1      16.516  -6.115  28.819  0.00  0.00    -0.252 OA
ATOM      3  N   UNL     1      17.133  -5.459  26.649  0.00  0.00    -0.278 N 
ATOM      4  N   UNL     1      16.583  -7.609  26.995  0.00  0.00    -0.281 N 
ATOM      5  N   UNL     1      17.252  -3.899  24.312  0.00  0.00    -0.296 NA
ATOM      6  C   UNL     1      17.398  -6.111  25.383  0.00  0.00    +0.109 C 
ATOM      7  C   UNL     1      16.806  -7.508  25.563  0.00  0.00    +0.133 C 
ATOM      8  C   UNL     1      16.796  -5.302  24.233  0.00  0.00    +0.108 C 
ATOM     10  C   UNL     1      17.405  -4.044  26.788  0.00  0.00    +0.125 C 
ATOM     12  C   UNL     1      16.838  -3.282  25.588  0.00  0.00    +0.104 C 
ATOM     13  C   UNL     1      16.722  -6.363  27.638  0.00  0.00    +0.305 C 
ENDROOT
BRANCH   5  11
ATOM      1  O   UNL     1      15.016  -1.035  22.210  0.00  0.00    -0.380 OA
ATOM     11  C   UNL     1      16.731  -3.132  23.183  0.00  0.00    +0.061 C 
ATOM     18  C   UNL     1      17.094  -1.650  23.309  0.00  0.00    +0.047 C 
ATOM     19  C   UNL     1      15.211  -3.293  23.087  0.00  0.00    +0.047 C 
ATOM     21  C   UNL     1      16.430  -0.845  22.197  0.00  0.00    +0.161 C 
ATOM     22  C   UNL     1      14.651  -2.397  21.987  0.00  0.00    +0.161 C 
ENDBRANCH   5  11
BRANCH   4   9
ATOM      9  C   UNL     1      16.126  -8.831  27.613  0.00  0.00    +0.078 C 
ATOM     14  C   UNL     1      14.679  -8.683  28.089  0.00  0.00    +0.022 C 
ATOM     15  C   UNL     1      17.052  -9.237  28.763  0.00  0.00    +0.022 C 
ATOM     16  C   UNL     1      14.186  -9.944  28.794  0.00  0.00    +0.002 C 
ATOM     17  C   UNL     1      16.557 -10.498  29.466  0.00  0.00    +0.002 C 
ATOM     20  C   UNL     1      15.113 -10.349  29.937  0.00  0.00    +0.000 C 
ENDBRANCH   4   9
TORSDOF 2
ENDMDL
MODEL 5
REMARK VINA RESULT:       0.0     15.744     18.909
REMARK  Name = 75537125
REMARK  2 active torsions:
REMARK  status: ('A' for Active; 'I' for Inactive)
REMARK    1  A    between atoms: N_4  and  C_9
REMARK    2  A    between atoms: N_5  and  C_11
REMARK                            x       y       z     vdW  Elec       q    Type
REMARK                         _______ _______ _______ _____ _____    ______ ____
ROOT
ATOM      2  O   UNL     1      -0.012  -2.070  23.243  0.00  0.00    -0.252 OA
ATOM      3  N   UNL     1      -1.171  -0.369  24.375  0.00  0.00    -0.278 N 
ATOM      4  N   UNL     1       0.945   0.027  23.736  0.00  0.00    -0.281 N 
ATOM      5  N   UNL     1      -3.282   1.354  25.072  0.00  0.00    -0.296 NA
ATOM      6  C   UNL     1      -0.861   0.931  24.932  0.00  0.00    +0.109 C 
ATOM      7  C   UNL     1       0.485   1.285  24.301  0.00  0.00    +0.133 C 
ATOM      8  C   UNL     1      -1.989   1.919  24.635  0.00  0.00    +0.108 C 
ATOM     10  C   UNL     1      -2.474  -0.953  24.619  0.00  0.00    +0.125 C 
ATOM     12  C   UNL     1      -3.568   0.088  24.367  0.00  0.00    +0.104 C 
ATOM     13  C   UNL     1      -0.071  -0.948  23.727  0.00  0.00    +0.305 C 
ENDROOT
BRANCH   5  11
ATOM      1  O   UNL     1      -6.130   4.323  25.906  0.00  0.00    -0.380 OA
ATOM     11  C   UNL     1      -4.358   2.316  24.848  0.00  0.00    +0.061 C 
ATOM     18  C   UNL     1      -3.894   3.744  25.152  0.00  0.00    +0.047 C 
ATOM     19  C   UNL     1      -5.574   1.965  25.711  0.00  0.00    +0.047 C 
ATOM     21  C   UNL     1      -5.064   4.716  25.043  0.00  0.00    +0.161 C 
ATOM     22  C   UNL     1      -6.650   3.036  25.571  0.00  0.00    +0.161 C 
ENDBRANCH   5  11
BRANCH   4   9
ATOM      9  C   UNL     1       2.248  -0.106  23.131  0.00  0.00    +0.078 C 
ATOM     14  C   UNL     1       3.114  -1.083  23.931  0.00  0.00    +0.022 C 
ATOM     15  C   UNL     1       2.927   1.259  22.997  0.00  0.00    +0.022 C 
ATOM     16  C   UNL     1       4.517  -1.203  23.343  0.00  0.00    +0.002 C 
ATOM     17  C   UNL     1       4.330   1.135  22.408  0.00  0.00    +0.002 C 
ATOM     20  C   UNL     1       5.190   0.160  23.206  0.00  0.00    +0.000 C 
ENDBRANCH   4   9
TORSDOF 2
ENDMDL
