MODEL 1
REMARK VINA RESULT:       4.2      0.000      0.000
REMARK  Name = 11867600
REMARK  11 active torsions:
REMARK  status: ('A' for Active; 'I' for Inactive)
REMARK    1  A    between atoms: O_5  and  C_23
REMARK    2  A    between atoms: O_5  and  C_35
REMARK    3  A    between atoms: N_9  and  C_19
REMARK    4  A    between atoms: N_10  and  C_20
REMARK    5  A    between atoms: C_12  and  C_16
REMARK    6  A    between atoms: C_18  and  C_21
REMARK    7  A    between atoms: C_19  and  C_22
REMARK    8  A    between atoms: C_19  and  C_23
REMARK    9  A    between atoms: C_20  and  C_25
REMARK   10  A    between atoms: C_20  and  C_26
REMARK   11  A    between atoms: C_22  and  C_24
REMARK                            x       y       z     vdW  Elec       q    Type
REMARK                         _______ _______ _______ _____ _____    ______ ____
ROOT
ATOM      3  O   UNL     1      -1.164   4.976  25.528  0.00  0.00    -0.253 OA
ATOM      4  O   UNL     1       1.217  -0.648  21.457  0.00  0.00    -0.270 OA
ATOM      7  N   UNL     1      -0.901   3.035  24.278  0.00  0.00    -0.271 N 
ATOM      8  N   UNL     1       0.828   1.063  23.002  0.00  0.00    -0.294 N 
ATOM     10  N   UNL     1      -3.041   3.781  24.953  0.00  0.00    -0.297 N 
ATOM     12  C   UNL     1      -1.461   1.954  23.451  0.00  0.00    +0.181 C 
ATOM     13  C   UNL     1      -0.467   1.418  22.419  0.00  0.00    +0.140 C 
ATOM     14  C   UNL     1       0.555   3.198  24.245  0.00  0.00    +0.129 C 
ATOM     15  C   UNL     1       1.285   1.866  24.142  0.00  0.00    +0.127 C 
ATOM     17  C   UNL     1      -1.668   4.002  24.959  0.00  0.00    +0.303 C 
ATOM     18  C   UNL     1       1.579   0.039  22.412  0.00  0.00    +0.247 C 
ATOM     38  H   UNL     1      -3.414   2.914  24.585  0.00  0.00    +0.150 HD
ENDROOT
BRANCH  18  21
ATOM      1  F   UNL     1       6.075   1.422  23.596  0.00  0.00    -0.205 F 
ATOM     21  C   UNL     1       2.908  -0.255  22.969  0.00  0.00    +0.040 A 
ATOM     27  C   UNL     1       3.881   0.744  23.019  0.00  0.00    +0.051 A 
ATOM     28  C   UNL     1       3.196  -1.534  23.447  0.00  0.00    +0.013 A 
ATOM     29  C   UNL     1       5.141   0.464  23.547  0.00  0.00    +0.124 A 
ATOM     30  C   UNL     1       4.456  -1.814  23.976  0.00  0.00    +0.004 A 
ATOM     33  C   UNL     1       5.429  -0.815  24.026  0.00  0.00    +0.038 A 
ENDBRANCH  18  21
BRANCH  12  16
ATOM      2  O   UNL     1      -1.546   0.820  25.552  0.00  0.00    -0.274 OA
ATOM      9  N   UNL     1      -2.655  -0.105  23.728  0.00  0.00    -0.301 N 
ATOM     16  C   UNL     1      -1.885   0.847  24.372  0.00  0.00    +0.236 C 
ATOM     37  H   UNL     1      -2.940   0.060  22.766  0.00  0.00    +0.150 HD
BRANCH   9  19
ATOM     19  C   UNL     1      -3.169  -1.284  24.386  0.00  0.00    +0.186 C 
BRANCH  19  23
ATOM      6  O   UNL     1      -2.032  -3.338  23.815  0.00  0.00    -0.249 OA
ATOM     23  C   UNL     1      -2.103  -2.359  24.551  0.00  0.00    +0.328 C 
BRANCH  23   5
ATOM      5  O   UNL     1      -1.276  -2.106  25.604  0.00  0.00    -0.467 OA
ATOM     35  C   UNL     1       0.125  -2.175  25.324  0.00  0.00    +0.280 C 
ENDBRANCH  23   5
ENDBRANCH  19  23
BRANCH  19  22
ATOM     22  C   UNL     1      -3.853  -0.943  25.719  0.00  0.00    +0.070 C 
BRANCH  22  24
ATOM     11  N   UNL     1      -6.259   1.792  26.770  0.00  0.00    -0.263 NA
ATOM     24  C   UNL     1      -4.884   0.159  25.636  0.00  0.00    -0.027 A 
ATOM     31  C   UNL     1      -5.408   0.560  24.411  0.00  0.00    +0.006 A 
ATOM     32  C   UNL     1      -5.339   0.801  26.776  0.00  0.00    +0.114 A 
ATOM     34  C   UNL     1      -6.356   1.575  24.365  0.00  0.00    +0.020 A 
ATOM     36  C   UNL     1      -6.744   2.154  25.562  0.00  0.00    +0.111 A 
ENDBRANCH  22  24
ENDBRANCH  19  22
ENDBRANCH   9  19
ENDBRANCH  12  16
BRANCH  10  20
ATOM     20  C   UNL     1      -3.970   4.673  25.609  0.00  0.00    +0.068 C 
ATOM     25  C   UNL     1      -4.071   4.337  27.091  0.00  0.00    +0.027 C 
ATOM     26  C   UNL     1      -5.335   4.614  24.935  0.00  0.00    +0.027 C 
ENDBRANCH  10  20
TORSDOF 8
ENDMDL
MODEL 2
REMARK VINA RESULT:       6.4      2.975      7.127
REMARK  Name = 11867600
REMARK  11 active torsions:
REMARK  status: ('A' for Active; 'I' for Inactive)
REMARK    1  A    between atoms: O_5  and  C_23
REMARK    2  A    between atoms: O_5  and  C_35
REMARK    3  A    between atoms: N_9  and  C_19
REMARK    4  A    between atoms: N_10  and  C_20
REMARK    5  A    between atoms: C_12  and  C_16
REMARK    6  A    between atoms: C_18  and  C_21
REMARK    7  A    between atoms: C_19  and  C_22
REMARK    8  A    between atoms: C_19  and  C_23
REMARK    9  A    between atoms: C_20  and  C_25
REMARK   10  A    between atoms: C_20  and  C_26
REMARK   11  A    between atoms: C_22  and  C_24
REMARK                            x       y       z     vdW  Elec       q    Type
REMARK                         _______ _______ _______ _____ _____    ______ ____
ROOT
ATOM      3  O   UNL     1       1.001  -0.647  22.176  0.00  0.00    -0.253 OA
ATOM      4  O   UNL     1      -3.052   4.936  24.683  0.00  0.00    -0.270 OA
ATOM      7  N   UNL     1       0.161   1.264  23.198  0.00  0.00    -0.271 N 
ATOM      8  N   UNL     1      -2.108   2.902  24.022  0.00  0.00    -0.294 N 
ATOM     10  N   UNL     1       2.477   0.791  23.197  0.00  0.00    -0.297 N 
ATOM     12  C   UNL     1       0.360   2.589  23.806  0.00  0.00    +0.181 C 
ATOM     13  C   UNL     1      -0.842   3.517  23.619  0.00  0.00    +0.140 C 
ATOM     14  C   UNL     1      -1.214   0.912  22.831  0.00  0.00    +0.129 C 
ATOM     15  C   UNL     1      -2.236   1.454  23.821  0.00  0.00    +0.127 C 
ATOM     17  C   UNL     1       1.201   0.395  22.810  0.00  0.00    +0.303 C 
ATOM     18  C   UNL     1      -3.135   3.721  24.506  0.00  0.00    +0.247 C 
ATOM     38  H   UNL     1       2.598   1.582  23.817  0.00  0.00    +0.150 HD
ENDROOT
BRANCH  18  21
ATOM      1  F   UNL     1      -6.173  -0.057  24.340  0.00  0.00    -0.205 F 
ATOM     21  C   UNL     1      -4.423   3.094  24.838  0.00  0.00    +0.040 A 
ATOM     27  C   UNL     1      -4.692   1.789  24.423  0.00  0.00    +0.051 A 
ATOM     28  C   UNL     1      -5.377   3.804  25.569  0.00  0.00    +0.013 A 
ATOM     29  C   UNL     1      -5.914   1.195  24.738  0.00  0.00    +0.124 A 
ATOM     30  C   UNL     1      -6.598   3.209  25.885  0.00  0.00    +0.004 A 
ATOM     33  C   UNL     1      -6.868   1.905  25.469  0.00  0.00    +0.038 A 
ENDBRANCH  18  21
BRANCH  12  16
ATOM      2  O   UNL     1       1.330   3.155  25.915  0.00  0.00    -0.274 OA
ATOM      9  N   UNL     1       0.006   1.248  25.760  0.00  0.00    -0.301 N 
ATOM     16  C   UNL     1       0.623   2.385  25.271  0.00  0.00    +0.236 C 
ATOM     37  H   UNL     1      -0.620   0.727  25.152  0.00  0.00    +0.150 HD
BRANCH   9  19
ATOM     19  C   UNL     1       0.122   0.814  27.133  0.00  0.00    +0.186 C 
BRANCH  19  23
ATOM      6  O   UNL     1      -0.767   2.784  28.215  0.00  0.00    -0.249 OA
ATOM     23  C   UNL     1       0.160   1.988  28.104  0.00  0.00    +0.328 C 
BRANCH  23   5
ATOM      5  O   UNL     1       1.332   2.044  28.796  0.00  0.00    -0.467 OA
ATOM     35  C   UNL     1       1.227   2.461  30.162  0.00  0.00    +0.280 C 
ENDBRANCH  23   5
ENDBRANCH  19  23
BRANCH  19  22
ATOM     22  C   UNL     1      -0.966  -0.204  27.506  0.00  0.00    +0.070 C 
BRANCH  22  24
ATOM     11  N   UNL     1      -1.188  -2.293  24.350  0.00  0.00    -0.263 NA
ATOM     24  C   UNL     1      -1.549  -0.962  26.336  0.00  0.00    -0.027 A 
ATOM     31  C   UNL     1      -2.924  -1.039  26.145  0.00  0.00    +0.006 A 
ATOM     32  C   UNL     1      -0.731  -1.600  25.417  0.00  0.00    +0.114 A 
ATOM     34  C   UNL     1      -3.433  -1.742  25.058  0.00  0.00    +0.020 A 
ATOM     36  C   UNL     1      -2.531  -2.345  24.198  0.00  0.00    +0.111 A 
ENDBRANCH  22  24
ENDBRANCH  19  22
ENDBRANCH   9  19
ENDBRANCH  12  16
BRANCH  10  20
ATOM     20  C   UNL     1       3.654   0.012  22.884  0.00  0.00    +0.068 C 
ATOM     25  C   UNL     1       3.666  -1.279  23.692  0.00  0.00    +0.027 C 
ATOM     26  C   UNL     1       4.917   0.829  23.130  0.00  0.00    +0.027 C 
ENDBRANCH  10  20
TORSDOF 8
ENDMDL
MODEL 3
REMARK VINA RESULT:       7.8      3.408      7.807
REMARK  Name = 11867600
REMARK  11 active torsions:
REMARK  status: ('A' for Active; 'I' for Inactive)
REMARK    1  A    between atoms: O_5  and  C_23
REMARK    2  A    between atoms: O_5  and  C_35
REMARK    3  A    between atoms: N_9  and  C_19
REMARK    4  A    between atoms: N_10  and  C_20
REMARK    5  A    between atoms: C_12  and  C_16
REMARK    6  A    between atoms: C_18  and  C_21
REMARK    7  A    between atoms: C_19  and  C_22
REMARK    8  A    between atoms: C_19  and  C_23
REMARK    9  A    between atoms: C_20  and  C_25
REMARK   10  A    between atoms: C_20  and  C_26
REMARK   11  A    between atoms: C_22  and  C_24
REMARK                            x       y       z     vdW  Elec       q    Type
REMARK                         _______ _______ _______ _____ _____    ______ ____
ROOT
ATOM      3  O   UNL     1       1.841  -2.384  24.880  0.00  0.00    -0.253 OA
ATOM      4  O   UNL     1      -3.157   2.208  22.086  0.00  0.00    -0.270 OA
ATOM      7  N   UNL     1       0.673  -0.638  23.887  0.00  0.00    -0.271 N 
ATOM      8  N   UNL     1      -1.844   0.728  23.331  0.00  0.00    -0.294 N 
ATOM     10  N   UNL     1       3.034  -0.733  23.814  0.00  0.00    -0.297 N 
ATOM     12  C   UNL     1       0.621   0.527  22.989  0.00  0.00    +0.181 C 
ATOM     13  C   UNL     1      -0.755   0.728  22.353  0.00  0.00    +0.140 C 
ATOM     14  C   UNL     1      -0.615  -1.201  24.303  0.00  0.00    +0.129 C 
ATOM     15  C   UNL     1      -1.677  -0.131  24.510  0.00  0.00    +0.127 C 
ATOM     17  C   UNL     1       1.850  -1.328  24.238  0.00  0.00    +0.303 C 
ATOM     18  C   UNL     1      -2.994   1.481  23.066  0.00  0.00    +0.247 C 
ATOM     38  H   UNL     1       3.018   0.190  23.397  0.00  0.00    +0.150 HD
ENDROOT
BRANCH  18  21
ATOM      1  F   UNL     1      -6.431   3.633  25.727  0.00  0.00    -0.205 F 
ATOM     21  C   UNL     1      -4.105   1.412  24.027  0.00  0.00    +0.040 A 
ATOM     27  C   UNL     1      -4.754   2.580  24.429  0.00  0.00    +0.051 A 
ATOM     28  C   UNL     1      -4.510   0.177  24.536  0.00  0.00    +0.013 A 
ATOM     29  C   UNL     1      -5.808   2.513  25.341  0.00  0.00    +0.124 A 
ATOM     30  C   UNL     1      -5.565   0.111  25.447  0.00  0.00    +0.004 A 
ATOM     33  C   UNL     1      -6.213   1.278  25.850  0.00  0.00    +0.038 A 
ENDBRANCH  18  21
BRANCH  12  16
ATOM      2  O   UNL     1       2.095   2.272  23.690  0.00  0.00    -0.274 OA
ATOM      9  N   UNL     1      -0.024   2.138  24.642  0.00  0.00    -0.301 N 
ATOM     16  C   UNL     1       0.994   1.740  23.793  0.00  0.00    +0.236 C 
ATOM     37  H   UNL     1      -0.924   1.669  24.586  0.00  0.00    +0.150 HD
BRANCH   9  19
ATOM     19  C   UNL     1       0.090   3.264  25.539  0.00  0.00    +0.186 C 
BRANCH  19  23
ATOM      6  O   UNL     1      -0.034   5.542  24.740  0.00  0.00    -0.249 OA
ATOM     23  C   UNL     1      -0.624   4.499  25.004  0.00  0.00    +0.328 C 
BRANCH  23   5
ATOM      5  O   UNL     1      -1.967   4.302  24.878  0.00  0.00    -0.467 OA
ATOM     35  C   UNL     1      -2.754   4.637  26.026  0.00  0.00    +0.280 C 
ENDBRANCH  23   5
ENDBRANCH  19  23
BRANCH  19  22
ATOM     22  C   UNL     1      -0.364   2.910  26.964  0.00  0.00    +0.070 C 
BRANCH  22  24
ATOM     11  N   UNL     1       3.119   2.913  28.461  0.00  0.00    -0.263 NA
ATOM     24  C   UNL     1       0.760   2.748  27.962  0.00  0.00    -0.027 A 
ATOM     31  C   UNL     1       0.511   2.300  29.255  0.00  0.00    +0.006 A 
ATOM     32  C   UNL     1       2.070   3.038  27.618  0.00  0.00    +0.114 A 
ATOM     34  C   UNL     1       1.564   2.159  30.151  0.00  0.00    +0.020 A 
ATOM     36  C   UNL     1       2.838   2.476  29.709  0.00  0.00    +0.111 A 
ENDBRANCH  22  24
ENDBRANCH  19  22
ENDBRANCH   9  19
ENDBRANCH  12  16
BRANCH  10  20
ATOM     20  C   UNL     1       4.331  -1.307  24.094  0.00  0.00    +0.068 C 
ATOM     25  C   UNL     1       5.412  -0.237  24.021  0.00  0.00    +0.027 C 
ATOM     26  C   UNL     1       4.625  -2.456  23.138  0.00  0.00    +0.027 C 
ENDBRANCH  10  20
TORSDOF 8
ENDMDL
