MODEL 1
REMARK VINA RESULT:      -0.8      0.000      0.000
REMARK  Name = 28961736
REMARK  10 active torsions:
REMARK  status: ('A' for Active; 'I' for Inactive)
REMARK    1  A    between atoms: S_1  and  N_9
REMARK    2  A    between atoms: S_1  and  C_25
REMARK    3  A    between atoms: O_3  and  C_12
REMARK    4  A    between atoms: O_4  and  C_18
REMARK    5  A    between atoms: O_7  and  C_30
REMARK    6  A    between atoms: O_7  and  C_31
REMARK    7  A    between atoms: N_8  and  C_10
REMARK    8  A    between atoms: N_9  and  C_15
REMARK    9  A    between atoms: C_11  and  C_15
REMARK   10  A    between atoms: C_13  and  C_18
REMARK                            x       y       z     vdW  Elec       q    Type
REMARK                         _______ _______ _______ _____ _____    ______ ____
ROOT
ATOM      2  O   UNL     1       3.029   1.719  23.146  0.00  0.00    -0.366 OA
ATOM     10  C   UNL     1       1.360   0.104  22.625  0.00  0.00    +0.118 C 
ATOM     11  C   UNL     1       1.626   1.432  23.343  0.00  0.00    +0.154 C 
ATOM     12  C   UNL     1       2.723  -0.573  22.640  0.00  0.00    +0.165 C 
ATOM     13  C   UNL     1       3.636   0.628  22.426  0.00  0.00    +0.174 C 
ENDROOT
BRANCH  10   8
ATOM      8  N   UNL     1       0.258  -0.703  23.147  0.00  0.00    -0.290 NA
ATOM     14  C   UNL     1       0.539  -1.145  24.518  0.00  0.00    +0.090 C 
ATOM     16  C   UNL     1      -1.002   0.060  23.107  0.00  0.00    +0.120 C 
ATOM     17  C   UNL     1      -0.522  -2.154  24.969  0.00  0.00    +0.051 C 
ATOM     19  C   UNL     1      -2.160  -0.659  23.759  0.00  0.00    -0.030 A 
ATOM     20  C   UNL     1      -1.928  -1.691  24.685  0.00  0.00    -0.042 A 
ATOM     21  C   UNL     1      -3.474  -0.256  23.490  0.00  0.00    +0.005 A 
ATOM     22  C   UNL     1      -3.013  -2.328  25.300  0.00  0.00    +0.004 A 
ATOM     23  C   UNL     1      -4.549  -0.890  24.114  0.00  0.00    +0.000 A 
ATOM     24  C   UNL     1      -4.318  -1.928  25.015  0.00  0.00    +0.000 A 
ENDBRANCH  10   8
BRANCH  12   3
ATOM      3  O   UNL     1       2.990  -1.180  23.897  0.00  0.00    -0.388 OA
ATOM     32  H   UNL     1       2.319  -0.904  24.539  0.00  0.00    +0.210 HD
ENDBRANCH  12   3
BRANCH  11  15
ATOM     15  C   UNL     1       1.366   1.462  24.845  0.00  0.00    +0.139 C 
BRANCH  15   9
ATOM      9  N   UNL     1      -0.015   1.914  25.093  0.00  0.00    -0.187 NA
ATOM     33  H   UNL     1      -0.713   1.170  25.222  0.00  0.00    +0.148 HD
BRANCH   9   1
ATOM      1  S   UNL     1      -0.537   3.425  24.511  0.00  0.00    +0.058 S 
ATOM      5  O   UNL     1      -0.408   3.453  23.067  0.00  0.00    -0.153 OA
ATOM      6  O   UNL     1       0.059   4.475  25.316  0.00  0.00    -0.153 OA
BRANCH   1  25
ATOM     25  C   UNL     1      -2.260   3.389  24.904  0.00  0.00    +0.105 A 
ATOM     26  C   UNL     1      -2.694   3.772  26.173  0.00  0.00    +0.032 A 
ATOM     27  C   UNL     1      -3.186   2.976  23.945  0.00  0.00    +0.032 A 
ATOM     28  C   UNL     1      -4.053   3.741  26.484  0.00  0.00    +0.047 A 
ATOM     29  C   UNL     1      -4.545   2.945  24.257  0.00  0.00    +0.047 A 
ATOM     30  C   UNL     1      -4.979   3.328  25.526  0.00  0.00    +0.120 A 
BRANCH  30   7
ATOM      7  O   UNL     1      -6.305   3.298  25.830  0.00  0.00    -0.495 OA
ATOM     31  C   UNL     1      -6.799   2.121  26.468  0.00  0.00    +0.277 C 
ENDBRANCH  30   7
ENDBRANCH   1  25
ENDBRANCH   9   1
ENDBRANCH  15   9
ENDBRANCH  11  15
BRANCH  13  18
ATOM     18  C   UNL     1       5.067   0.453  22.896  0.00  0.00    +0.190 C 
BRANCH  18   4
ATOM      4  O   UNL     1       5.101   0.548  24.310  0.00  0.00    -0.392 OA
ATOM     34  H   UNL     1       5.048   1.492  24.536  0.00  0.00    +0.210 HD
ENDBRANCH  18   4
ENDBRANCH  13  18
TORSDOF 9
ENDMDL
MODEL 2
REMARK VINA RESULT:      -0.2      2.066      6.937
REMARK  Name = 28961736
REMARK  10 active torsions:
REMARK  status: ('A' for Active; 'I' for Inactive)
REMARK    1  A    between atoms: S_1  and  N_9
REMARK    2  A    between atoms: S_1  and  C_25
REMARK    3  A    between atoms: O_3  and  C_12
REMARK    4  A    between atoms: O_4  and  C_18
REMARK    5  A    between atoms: O_7  and  C_30
REMARK    6  A    between atoms: O_7  and  C_31
REMARK    7  A    between atoms: N_8  and  C_10
REMARK    8  A    between atoms: N_9  and  C_15
REMARK    9  A    between atoms: C_11  and  C_15
REMARK   10  A    between atoms: C_13  and  C_18
REMARK                            x       y       z     vdW  Elec       q    Type
REMARK                         _______ _______ _______ _____ _____    ______ ____
ROOT
ATOM      2  O   UNL     1       0.026   3.705  24.786  0.00  0.00    -0.366 OA
ATOM     10  C   UNL     1      -1.652   2.310  25.735  0.00  0.00    +0.118 C 
ATOM     11  C   UNL     1      -0.376   2.321  24.885  0.00  0.00    +0.154 C 
ATOM     12  C   UNL     1      -2.228   3.699  25.507  0.00  0.00    +0.165 C 
ATOM     13  C   UNL     1      -0.951   4.528  25.453  0.00  0.00    +0.174 C 
ENDROOT
BRANCH  10   8
ATOM      8  N   UNL     1      -2.578   1.204  25.496  0.00  0.00    -0.290 NA
ATOM     14  C   UNL     1      -3.538   1.547  24.440  0.00  0.00    +0.090 C 
ATOM     16  C   UNL     1      -1.838  -0.017  25.133  0.00  0.00    +0.120 C 
ATOM     17  C   UNL     1      -4.622   0.468  24.350  0.00  0.00    +0.051 C 
ATOM     19  C   UNL     1      -2.736  -1.167  24.736  0.00  0.00    -0.030 A 
ATOM     20  C   UNL     1      -4.056  -0.929  24.318  0.00  0.00    -0.042 A 
ATOM     21  C   UNL     1      -2.233  -2.474  24.722  0.00  0.00    +0.005 A 
ATOM     22  C   UNL     1      -4.865  -2.003  23.928  0.00  0.00    +0.004 A 
ATOM     23  C   UNL     1      -3.042  -3.537  24.323  0.00  0.00    +0.000 A 
ATOM     24  C   UNL     1      -4.358  -3.303  23.929  0.00  0.00    +0.000 A 
ENDBRANCH  10   8
BRANCH  12   3
ATOM      3  O   UNL     1      -2.923   3.779  24.269  0.00  0.00    -0.388 OA
ATOM     32  H   UNL     1      -3.384   4.628  24.211  0.00  0.00    +0.210 HD
ENDBRANCH  12   3
BRANCH  11  15
ATOM     15  C   UNL     1      -0.497   1.783  23.463  0.00  0.00    +0.139 C 
BRANCH  15   9
ATOM      9  N   UNL     1       0.843   1.439  22.955  0.00  0.00    -0.187 NA
ATOM     33  H   UNL     1       1.316   2.170  22.408  0.00  0.00    +0.148 HD
BRANCH   9   1
ATOM      1  S   UNL     1       1.254  -0.186  22.662  0.00  0.00    +0.058 S 
ATOM      5  O   UNL     1       1.114  -0.469  21.246  0.00  0.00    -0.153 OA
ATOM      6  O   UNL     1       0.591  -1.026  23.642  0.00  0.00    -0.153 OA
BRANCH   1  25
ATOM     25  C   UNL     1       2.977  -0.199  23.053  0.00  0.00    +0.105 A 
ATOM     26  C   UNL     1       3.564  -1.350  23.580  0.00  0.00    +0.032 A 
ATOM     27  C   UNL     1       3.751   0.942  22.835  0.00  0.00    +0.032 A 
ATOM     28  C   UNL     1       4.924  -1.360  23.891  0.00  0.00    +0.047 A 
ATOM     29  C   UNL     1       5.111   0.931  23.146  0.00  0.00    +0.047 A 
ATOM     30  C   UNL     1       5.698  -0.219  23.674  0.00  0.00    +0.120 A 
BRANCH  30   7
ATOM      7  O   UNL     1       7.024  -0.229  23.977  0.00  0.00    -0.495 OA
ATOM     31  C   UNL     1       7.931  -0.541  22.920  0.00  0.00    +0.277 C 
ENDBRANCH  30   7
ENDBRANCH   1  25
ENDBRANCH   9   1
ENDBRANCH  15   9
ENDBRANCH  11  15
BRANCH  13  18
ATOM     18  C   UNL     1      -1.064   5.857  24.729  0.00  0.00    +0.190 C 
BRANCH  18   4
ATOM      4  O   UNL     1      -2.303   6.459  25.066  0.00  0.00    -0.392 OA
ATOM     34  H   UNL     1      -2.858   5.768  25.469  0.00  0.00    +0.210 HD
ENDBRANCH  18   4
ENDBRANCH  13  18
TORSDOF 9
ENDMDL
MODEL 3
REMARK VINA RESULT:      -0.1      2.452      5.496
REMARK  Name = 28961736
REMARK  10 active torsions:
REMARK  status: ('A' for Active; 'I' for Inactive)
REMARK    1  A    between atoms: S_1  and  N_9
REMARK    2  A    between atoms: S_1  and  C_25
REMARK    3  A    between atoms: O_3  and  C_12
REMARK    4  A    between atoms: O_4  and  C_18
REMARK    5  A    between atoms: O_7  and  C_30
REMARK    6  A    between atoms: O_7  and  C_31
REMARK    7  A    between atoms: N_8  and  C_10
REMARK    8  A    between atoms: N_9  and  C_15
REMARK    9  A    between atoms: C_11  and  C_15
REMARK   10  A    between atoms: C_13  and  C_18
REMARK                            x       y       z     vdW  Elec       q    Type
REMARK                         _______ _______ _______ _____ _____    ______ ____
ROOT
ATOM      2  O   UNL     1      -2.085   2.676  24.102  0.00  0.00    -0.366 OA
ATOM     10  C   UNL     1       0.147   2.029  23.588  0.00  0.00    +0.118 C 
ATOM     11  C   UNL     1      -1.292   1.522  23.745  0.00  0.00    +0.154 C 
ATOM     12  C   UNL     1       0.177   3.259  24.483  0.00  0.00    +0.165 C 
ATOM     13  C   UNL     1      -1.218   3.819  24.239  0.00  0.00    +0.174 C 
ENDROOT
BRANCH  10   8
ATOM      8  N   UNL     1       1.206   1.052  23.835  0.00  0.00    -0.290 NA
ATOM     14  C   UNL     1       0.891  -0.231  23.196  0.00  0.00    +0.090 C 
ATOM     16  C   UNL     1       2.499   1.561  23.342  0.00  0.00    +0.120 C 
ATOM     17  C   UNL     1       1.901  -1.295  23.637  0.00  0.00    +0.051 C 
ATOM     19  C   UNL     1       3.617   0.548  23.437  0.00  0.00    -0.030 A 
ATOM     20  C   UNL     1       3.330  -0.825  23.533  0.00  0.00    -0.042 A 
ATOM     21  C   UNL     1       4.951   0.970  23.364  0.00  0.00    +0.005 A 
ATOM     22  C   UNL     1       4.379  -1.751  23.593  0.00  0.00    +0.004 A 
ATOM     23  C   UNL     1       5.989   0.040  23.414  0.00  0.00    +0.000 A 
ATOM     24  C   UNL     1       5.703  -1.319  23.532  0.00  0.00    +0.000 A 
ENDBRANCH  10   8
BRANCH  12   3
ATOM      3  O   UNL     1       0.335   2.903  25.851  0.00  0.00    -0.388 OA
ATOM     32  H   UNL     1       0.712   3.651  26.338  0.00  0.00    +0.210 HD
ENDBRANCH  12   3
BRANCH  11  15
ATOM     15  C   UNL     1      -1.531   0.462  24.814  0.00  0.00    +0.139 C 
BRANCH  15   9
ATOM      9  N   UNL     1      -2.140  -0.728  24.195  0.00  0.00    -0.187 NA
ATOM     33  H   UNL     1      -1.829  -0.945  23.240  0.00  0.00    +0.148 HD
BRANCH   9   1
ATOM      1  S   UNL     1      -3.685  -1.248  24.683  0.00  0.00    +0.058 S 
ATOM      5  O   UNL     1      -3.577  -1.965  25.939  0.00  0.00    -0.153 OA
ATOM      6  O   UNL     1      -4.359  -1.858  23.552  0.00  0.00    -0.153 OA
BRANCH   1  25
ATOM     25  C   UNL     1      -4.500   0.288  25.002  0.00  0.00    +0.105 A 
ATOM     26  C   UNL     1      -5.146   0.495  26.220  0.00  0.00    +0.032 A 
ATOM     27  C   UNL     1      -4.497   1.293  24.033  0.00  0.00    +0.032 A 
ATOM     28  C   UNL     1      -5.790   1.706  26.471  0.00  0.00    +0.047 A 
ATOM     29  C   UNL     1      -5.142   2.504  24.285  0.00  0.00    +0.047 A 
ATOM     30  C   UNL     1      -5.788   2.711  25.503  0.00  0.00    +0.120 A 
BRANCH  30   7
ATOM      7  O   UNL     1      -6.417   3.893  25.748  0.00  0.00    -0.495 OA
ATOM     31  C   UNL     1      -5.716   5.086  25.403  0.00  0.00    +0.277 C 
ENDBRANCH  30   7
ENDBRANCH   1  25
ENDBRANCH   9   1
ENDBRANCH  15   9
ENDBRANCH  11  15
BRANCH  13  18
ATOM     18  C   UNL     1      -1.757   4.729  25.327  0.00  0.00    +0.190 C 
BRANCH  18   4
ATOM      4  O   UNL     1      -2.502   3.950  26.249  0.00  0.00    -0.392 OA
ATOM     34  H   UNL     1      -3.364   4.385  26.362  0.00  0.00    +0.210 HD
ENDBRANCH  18   4
ENDBRANCH  13  18
TORSDOF 9
ENDMDL
MODEL 4
REMARK VINA RESULT:       0.3      2.668      5.930
REMARK  Name = 28961736
REMARK  10 active torsions:
REMARK  status: ('A' for Active; 'I' for Inactive)
REMARK    1  A    between atoms: S_1  and  N_9
REMARK    2  A    between atoms: S_1  and  C_25
REMARK    3  A    between atoms: O_3  and  C_12
REMARK    4  A    between atoms: O_4  and  C_18
REMARK    5  A    between atoms: O_7  and  C_30
REMARK    6  A    between atoms: O_7  and  C_31
REMARK    7  A    between atoms: N_8  and  C_10
REMARK    8  A    between atoms: N_9  and  C_15
REMARK    9  A    between atoms: C_11  and  C_15
REMARK   10  A    between atoms: C_13  and  C_18
REMARK                            x       y       z     vdW  Elec       q    Type
REMARK                         _______ _______ _______ _____ _____    ______ ____
ROOT
ATOM      2  O   UNL     1      -3.965  -1.685  25.604  0.00  0.00    -0.366 OA
ATOM     10  C   UNL     1      -1.691  -1.063  25.280  0.00  0.00    +0.118 C 
ATOM     11  C   UNL     1      -3.112  -0.524  25.488  0.00  0.00    +0.154 C 
ATOM     12  C   UNL     1      -1.930  -2.428  24.653  0.00  0.00    +0.165 C 
ATOM     13  C   UNL     1      -3.174  -2.873  25.412  0.00  0.00    +0.174 C 
ENDROOT
BRANCH  10   8
ATOM      8  N   UNL     1      -0.771  -0.193  24.549  0.00  0.00    -0.290 NA
ATOM     14  C   UNL     1      -0.431   0.993  25.345  0.00  0.00    +0.090 C 
ATOM     16  C   UNL     1       0.453  -0.929  24.186  0.00  0.00    +0.120 C 
ATOM     17  C   UNL     1       0.360   1.986  24.489  0.00  0.00    +0.051 C 
ATOM     19  C   UNL     1       1.511  -0.057  23.550  0.00  0.00    -0.030 A 
ATOM     20  C   UNL     1       1.491   1.337  23.732  0.00  0.00    -0.042 A 
ATOM     21  C   UNL     1       2.557  -0.643  22.825  0.00  0.00    +0.005 A 
ATOM     22  C   UNL     1       2.494   2.126  23.157  0.00  0.00    +0.004 A 
ATOM     23  C   UNL     1       3.557   0.150  22.264  0.00  0.00    +0.000 A 
ATOM     24  C   UNL     1       3.524   1.534  22.427  0.00  0.00    +0.000 A 
ENDBRANCH  10   8
BRANCH  12   3
ATOM      3  O   UNL     1      -2.210  -2.321  23.263  0.00  0.00    -0.388 OA
ATOM     32  H   UNL     1      -1.799  -3.060  22.792  0.00  0.00    +0.210 HD
ENDBRANCH  12   3
BRANCH  11  15
ATOM     15  C   UNL     1      -3.682   0.346  24.374  0.00  0.00    +0.139 C 
BRANCH  15   9
ATOM      9  N   UNL     1      -5.147   0.429  24.519  0.00  0.00    -0.187 NA
ATOM     33  H   UNL     1      -5.695  -0.123  23.847  0.00  0.00    +0.148 HD
BRANCH   9   1
ATOM      1  S   UNL     1      -5.860   1.812  25.207  0.00  0.00    +0.058 S 
ATOM      5  O   UNL     1      -6.209   1.537  26.587  0.00  0.00    -0.153 OA
ATOM      6  O   UNL     1      -6.859   2.334  24.293  0.00  0.00    -0.153 OA
BRANCH   1  25
ATOM     25  C   UNL     1      -4.511   2.955  25.203  0.00  0.00    +0.105 A 
ATOM     26  C   UNL     1      -4.017   3.445  23.994  0.00  0.00    +0.032 A 
ATOM     27  C   UNL     1      -3.940   3.364  26.408  0.00  0.00    +0.032 A 
ATOM     28  C   UNL     1      -2.951   4.345  23.990  0.00  0.00    +0.047 A 
ATOM     29  C   UNL     1      -2.875   4.264  26.404  0.00  0.00    +0.047 A 
ATOM     30  C   UNL     1      -2.380   4.755  25.196  0.00  0.00    +0.120 A 
BRANCH  30   7
ATOM      7  O   UNL     1      -1.340   5.633  25.192  0.00  0.00    -0.495 OA
ATOM     31  C   UNL     1      -0.208   5.294  24.392  0.00  0.00    +0.277 C 
ENDBRANCH  30   7
ENDBRANCH   1  25
ENDBRANCH   9   1
ENDBRANCH  15   9
ENDBRANCH  11  15
BRANCH  13  18
ATOM     18  C   UNL     1      -4.016  -3.930  24.723  0.00  0.00    +0.190 C 
BRANCH  18   4
ATOM      4  O   UNL     1      -4.692  -3.336  23.627  0.00  0.00    -0.392 OA
ATOM     34  H   UNL     1      -5.408  -3.941  23.368  0.00  0.00    +0.210 HD
ENDBRANCH  18   4
ENDBRANCH  13  18
TORSDOF 9
ENDMDL
MODEL 5
REMARK VINA RESULT:       0.6      2.506      7.558
REMARK  Name = 28961736
REMARK  10 active torsions:
REMARK  status: ('A' for Active; 'I' for Inactive)
REMARK    1  A    between atoms: S_1  and  N_9
REMARK    2  A    between atoms: S_1  and  C_25
REMARK    3  A    between atoms: O_3  and  C_12
REMARK    4  A    between atoms: O_4  and  C_18
REMARK    5  A    between atoms: O_7  and  C_30
REMARK    6  A    between atoms: O_7  and  C_31
REMARK    7  A    between atoms: N_8  and  C_10
REMARK    8  A    between atoms: N_9  and  C_15
REMARK    9  A    between atoms: C_11  and  C_15
REMARK   10  A    between atoms: C_13  and  C_18
REMARK                            x       y       z     vdW  Elec       q    Type
REMARK                         _______ _______ _______ _____ _____    ______ ____
ROOT
ATOM      2  O   UNL     1      -2.186  -2.394  23.891  0.00  0.00    -0.366 OA
ATOM     10  C   UNL     1      -3.307  -0.343  23.436  0.00  0.00    +0.118 C 
ATOM     11  C   UNL     1      -1.932  -1.019  23.524  0.00  0.00    +0.154 C 
ATOM     12  C   UNL     1      -4.161  -1.183  24.374  0.00  0.00    +0.165 C 
ATOM     13  C   UNL     1      -3.601  -2.573  24.098  0.00  0.00    +0.174 C 
ENDROOT
BRANCH  10   8
ATOM      8  N   UNL     1      -3.336   1.096  23.688  0.00  0.00    -0.290 NA
ATOM     14  C   UNL     1      -4.326   1.426  24.720  0.00  0.00    +0.090 C 
ATOM     16  C   UNL     1      -2.002   1.575  24.092  0.00  0.00    +0.120 C 
ATOM     17  C   UNL     1      -4.490   2.945  24.819  0.00  0.00    +0.051 C 
ATOM     19  C   UNL     1      -1.986   3.029  24.503  0.00  0.00    -0.030 A 
ATOM     20  C   UNL     1      -3.172   3.673  24.894  0.00  0.00    -0.042 A 
ATOM     21  C   UNL     1      -0.772   3.727  24.557  0.00  0.00    +0.005 A 
ATOM     22  C   UNL     1      -3.134   5.014  25.298  0.00  0.00    +0.004 A 
ATOM     23  C   UNL     1      -0.742   5.059  24.969  0.00  0.00    +0.000 A 
ATOM     24  C   UNL     1      -1.922   5.703  25.336  0.00  0.00    +0.000 A 
ENDBRANCH  10   8
BRANCH  12   3
ATOM      3  O   UNL     1      -3.950  -0.824  25.734  0.00  0.00    -0.388 OA
ATOM     32  H   UNL     1      -3.670  -1.605  26.234  0.00  0.00    +0.210 HD
ENDBRANCH  12   3
BRANCH  11  15
ATOM     15  C   UNL     1      -0.955  -0.451  24.547  0.00  0.00    +0.139 C 
BRANCH  15   9
ATOM      9  N   UNL     1       0.425  -0.745  24.121  0.00  0.00    -0.187 NA
ATOM     33  H   UNL     1       1.048  -1.117  24.849  0.00  0.00    +0.148 HD
BRANCH   9   1
ATOM      1  S   UNL     1       1.115   0.102  22.816  0.00  0.00    +0.058 S 
ATOM      5  O   UNL     1       0.772   1.507  22.921  0.00  0.00    -0.153 OA
ATOM      6  O   UNL     1       0.850  -0.623  21.588  0.00  0.00    -0.153 OA
BRANCH   1  25
ATOM     25  C   UNL     1       2.842  -0.064  23.150  0.00  0.00    +0.105 A 
ATOM     26  C   UNL     1       3.347  -1.273  23.630  0.00  0.00    +0.032 A 
ATOM     27  C   UNL     1       3.702   1.014  22.936  0.00  0.00    +0.032 A 
ATOM     28  C   UNL     1       4.709  -1.404  23.896  0.00  0.00    +0.047 A 
ATOM     29  C   UNL     1       5.064   0.883  23.202  0.00  0.00    +0.047 A 
ATOM     30  C   UNL     1       5.569  -0.326  23.681  0.00  0.00    +0.120 A 
BRANCH  30   7
ATOM      7  O   UNL     1       6.899  -0.454  23.941  0.00  0.00    -0.495 OA
ATOM     31  C   UNL     1       7.768  -0.609  22.821  0.00  0.00    +0.277 C 
ENDBRANCH  30   7
ENDBRANCH   1  25
ENDBRANCH   9   1
ENDBRANCH  15   9
ENDBRANCH  11  15
BRANCH  13  18
ATOM     18  C   UNL     1      -3.821  -3.596  25.197  0.00  0.00    +0.190 C 
BRANCH  18   4
ATOM      4  O   UNL     1      -2.982  -3.277  26.295  0.00  0.00    -0.392 OA
ATOM     34  H   UNL     1      -3.495  -3.440  27.105  0.00  0.00    +0.210 HD
ENDBRANCH  18   4
ENDBRANCH  13  18
TORSDOF 9
ENDMDL
MODEL 6
REMARK VINA RESULT:       0.9      2.687      6.303
REMARK  Name = 28961736
REMARK  10 active torsions:
REMARK  status: ('A' for Active; 'I' for Inactive)
REMARK    1  A    between atoms: S_1  and  N_9
REMARK    2  A    between atoms: S_1  and  C_25
REMARK    3  A    between atoms: O_3  and  C_12
REMARK    4  A    between atoms: O_4  and  C_18
REMARK    5  A    between atoms: O_7  and  C_30
REMARK    6  A    between atoms: O_7  and  C_31
REMARK    7  A    between atoms: N_8  and  C_10
REMARK    8  A    between atoms: N_9  and  C_15
REMARK    9  A    between atoms: C_11  and  C_15
REMARK   10  A    between atoms: C_13  and  C_18
REMARK                            x       y       z     vdW  Elec       q    Type
REMARK                         _______ _______ _______ _____ _____    ______ ____
ROOT
ATOM      2  O   UNL     1      -3.250   4.372  24.330  0.00  0.00    -0.366 OA
ATOM     10  C   UNL     1      -1.054   3.458  24.245  0.00  0.00    +0.118 C 
ATOM     11  C   UNL     1      -2.429   3.462  23.565  0.00  0.00    +0.154 C 
ATOM     12  C   UNL     1      -1.380   3.842  25.680  0.00  0.00    +0.165 C 
ATOM     13  C   UNL     1      -2.491   4.859  25.455  0.00  0.00    +0.174 C 
ENDROOT
BRANCH  10   8
ATOM      8  N   UNL     1      -0.259   2.241  24.090  0.00  0.00    -0.290 NA
ATOM     14  C   UNL     1      -0.895   1.321  23.140  0.00  0.00    +0.090 C 
ATOM     16  C   UNL     1       1.105   2.571  23.641  0.00  0.00    +0.120 C 
ATOM     17  C   UNL     1      -0.165  -0.026  23.149  0.00  0.00    +0.051 C 
ATOM     19  C   UNL     1       1.943   1.354  23.325  0.00  0.00    -0.030 A 
ATOM     20  C   UNL     1       1.332   0.120  23.046  0.00  0.00    -0.042 A 
ATOM     21  C   UNL     1       3.338   1.467  23.246  0.00  0.00    +0.005 A 
ATOM     22  C   UNL     1       2.124  -0.991  22.728  0.00  0.00    +0.004 A 
ATOM     23  C   UNL     1       4.118   0.358  22.920  0.00  0.00    +0.000 A 
ATOM     24  C   UNL     1       3.512  -0.871  22.665  0.00  0.00    +0.000 A 
ENDBRANCH  10   8
BRANCH  12   3
ATOM      3  O   UNL     1      -1.869   2.730  26.419  0.00  0.00    -0.388 OA
ATOM     32  H   UNL     1      -2.454   2.201  25.857  0.00  0.00    +0.210 HD
ENDBRANCH  12   3
BRANCH  11  15
ATOM     15  C   UNL     1      -3.166   2.128  23.508  0.00  0.00    +0.139 C 
BRANCH  15   9
ATOM      9  N   UNL     1      -4.558   2.320  23.952  0.00  0.00    -0.187 NA
ATOM     33  H   UNL     1      -4.872   3.295  24.035  0.00  0.00    +0.148 HD
BRANCH   9   1
ATOM      1  S   UNL     1      -5.318   1.139  24.913  0.00  0.00    +0.058 S 
ATOM      5  O   UNL     1      -6.477   0.622  24.212  0.00  0.00    -0.153 OA
ATOM      6  O   UNL     1      -5.450   1.643  26.267  0.00  0.00    -0.153 OA
BRANCH   1  25
ATOM     25  C   UNL     1      -4.094  -0.136  24.955  0.00  0.00    +0.105 A 
ATOM     26  C   UNL     1      -4.220  -1.251  24.127  0.00  0.00    +0.032 A 
ATOM     27  C   UNL     1      -3.002  -0.027  25.818  0.00  0.00    +0.032 A 
ATOM     28  C   UNL     1      -3.256  -2.258  24.160  0.00  0.00    +0.047 A 
ATOM     29  C   UNL     1      -2.038  -1.034  25.851  0.00  0.00    +0.047 A 
ATOM     30  C   UNL     1      -2.164  -2.149  25.023  0.00  0.00    +0.120 A 
BRANCH  30   7
ATOM      7  O   UNL     1      -1.223  -3.133  25.056  0.00  0.00    -0.495 OA
ATOM     31  C   UNL     1       0.090  -2.761  25.472  0.00  0.00    +0.277 C 
ENDBRANCH  30   7
ENDBRANCH   1  25
ENDBRANCH   9   1
ENDBRANCH  15   9
ENDBRANCH  11  15
BRANCH  13  18
ATOM     18  C   UNL     1      -3.425   5.079  26.631  0.00  0.00    +0.190 C 
BRANCH  18   4
ATOM      4  O   UNL     1      -4.498   4.156  26.543  0.00  0.00    -0.392 OA
ATOM     34  H   UNL     1      -4.202   3.330  26.963  0.00  0.00    +0.210 HD
ENDBRANCH  18   4
ENDBRANCH  13  18
TORSDOF 9
ENDMDL
MODEL 7
REMARK VINA RESULT:       1.1      2.572      4.589
REMARK  Name = 28961736
REMARK  10 active torsions:
REMARK  status: ('A' for Active; 'I' for Inactive)
REMARK    1  A    between atoms: S_1  and  N_9
REMARK    2  A    between atoms: S_1  and  C_25
REMARK    3  A    between atoms: O_3  and  C_12
REMARK    4  A    between atoms: O_4  and  C_18
REMARK    5  A    between atoms: O_7  and  C_30
REMARK    6  A    between atoms: O_7  and  C_31
REMARK    7  A    between atoms: N_8  and  C_10
REMARK    8  A    between atoms: N_9  and  C_15
REMARK    9  A    between atoms: C_11  and  C_15
REMARK   10  A    between atoms: C_13  and  C_18
REMARK                            x       y       z     vdW  Elec       q    Type
REMARK                         _______ _______ _______ _____ _____    ______ ____
ROOT
ATOM      2  O   UNL     1       1.577  -1.189  23.306  0.00  0.00    -0.366 OA
ATOM     10  C   UNL     1       0.908   0.790  24.448  0.00  0.00    +0.118 C 
ATOM     11  C   UNL     1       0.636  -0.712  24.294  0.00  0.00    +0.154 C 
ATOM     12  C   UNL     1       1.511   1.168  23.103  0.00  0.00    +0.165 C 
ATOM     13  C   UNL     1       2.342  -0.074  22.807  0.00  0.00    +0.174 C 
ENDROOT
BRANCH  10   8
ATOM      8  N   UNL     1      -0.223   1.610  24.877  0.00  0.00    -0.290 NA
ATOM     14  C   UNL     1      -0.447   1.475  26.321  0.00  0.00    +0.090 C 
ATOM     16  C   UNL     1       0.006   3.024  24.528  0.00  0.00    +0.120 C 
ATOM     17  C   UNL     1      -1.754   2.171  26.713  0.00  0.00    +0.051 C 
ATOM     19  C   UNL     1      -1.058   3.954  25.065  0.00  0.00    -0.030 A 
ATOM     20  C   UNL     1      -1.871   3.561  26.141  0.00  0.00    -0.042 A 
ATOM     21  C   UNL     1      -1.195   5.241  24.530  0.00  0.00    +0.005 A 
ATOM     22  C   UNL     1      -2.834   4.446  26.642  0.00  0.00    +0.004 A 
ATOM     23  C   UNL     1      -2.150   6.120  25.041  0.00  0.00    +0.000 A 
ATOM     24  C   UNL     1      -2.971   5.721  26.094  0.00  0.00    +0.000 A 
ENDBRANCH  10   8
BRANCH  12   3
ATOM      3  O   UNL     1       0.507   1.340  22.111  0.00  0.00    -0.388 OA
ATOM     32  H   UNL     1       0.421   2.281  21.898  0.00  0.00    +0.210 HD
ENDBRANCH  12   3
BRANCH  11  15
ATOM     15  C   UNL     1      -0.757  -1.109  23.819  0.00  0.00    +0.139 C 
BRANCH  15   9
ATOM      9  N   UNL     1      -1.468  -1.796  24.912  0.00  0.00    -0.187 NA
ATOM     33  H   UNL     1      -0.912  -2.468  25.456  0.00  0.00    +0.148 HD
BRANCH   9   1
ATOM      1  S   UNL     1      -3.153  -2.019  24.827  0.00  0.00    +0.058 S 
ATOM      5  O   UNL     1      -3.633  -2.545  26.091  0.00  0.00    -0.153 OA
ATOM      6  O   UNL     1      -3.480  -2.695  23.585  0.00  0.00    -0.153 OA
BRANCH   1  25
ATOM     25  C   UNL     1      -3.731  -0.355  24.675  0.00  0.00    +0.105 A 
ATOM     26  C   UNL     1      -3.208   0.477  23.685  0.00  0.00    +0.032 A 
ATOM     27  C   UNL     1      -4.709   0.126  25.546  0.00  0.00    +0.032 A 
ATOM     28  C   UNL     1      -3.661   1.790  23.566  0.00  0.00    +0.047 A 
ATOM     29  C   UNL     1      -5.163   1.440  25.427  0.00  0.00    +0.047 A 
ATOM     30  C   UNL     1      -4.640   2.272  24.437  0.00  0.00    +0.120 A 
BRANCH  30   7
ATOM      7  O   UNL     1      -5.082   3.554  24.321  0.00  0.00    -0.495 OA
ATOM     31  C   UNL     1      -5.890   4.061  25.382  0.00  0.00    +0.277 C 
ENDBRANCH  30   7
ENDBRANCH   1  25
ENDBRANCH   9   1
ENDBRANCH  15   9
ENDBRANCH  11  15
BRANCH  13  18
ATOM     18  C   UNL     1       2.671  -0.307  21.345  0.00  0.00    +0.190 C 
BRANCH  18   4
ATOM      4  O   UNL     1       1.486  -0.683  20.662  0.00  0.00    -0.392 OA
ATOM     34  H   UNL     1       1.148  -1.487  21.094  0.00  0.00    +0.210 HD
ENDBRANCH  18   4
ENDBRANCH  13  18
TORSDOF 9
ENDMDL
MODEL 8
REMARK VINA RESULT:       1.2      2.568      5.542
REMARK  Name = 28961736
REMARK  10 active torsions:
REMARK  status: ('A' for Active; 'I' for Inactive)
REMARK    1  A    between atoms: S_1  and  N_9
REMARK    2  A    between atoms: S_1  and  C_25
REMARK    3  A    between atoms: O_3  and  C_12
REMARK    4  A    between atoms: O_4  and  C_18
REMARK    5  A    between atoms: O_7  and  C_30
REMARK    6  A    between atoms: O_7  and  C_31
REMARK    7  A    between atoms: N_8  and  C_10
REMARK    8  A    between atoms: N_9  and  C_15
REMARK    9  A    between atoms: C_11  and  C_15
REMARK   10  A    between atoms: C_13  and  C_18
REMARK                            x       y       z     vdW  Elec       q    Type
REMARK                         _______ _______ _______ _____ _____    ______ ____
ROOT
ATOM      2  O   UNL     1      -1.859  -2.923  24.212  0.00  0.00    -0.366 OA
ATOM     10  C   UNL     1      -3.014  -0.933  23.603  0.00  0.00    +0.118 C 
ATOM     11  C   UNL     1      -1.632  -1.533  23.890  0.00  0.00    +0.154 C 
ATOM     12  C   UNL     1      -3.949  -1.829  24.402  0.00  0.00    +0.165 C 
ATOM     13  C   UNL     1      -3.277  -3.182  24.208  0.00  0.00    +0.174 C 
ENDROOT
BRANCH  10   8
ATOM      8  N   UNL     1      -3.161   0.500  23.852  0.00  0.00    -0.290 NA
ATOM     14  C   UNL     1      -3.183   1.249  22.589  0.00  0.00    +0.090 C 
ATOM     16  C   UNL     1      -4.390   0.765  24.621  0.00  0.00    +0.120 C 
ATOM     17  C   UNL     1      -3.127   2.752  22.873  0.00  0.00    +0.051 C 
ATOM     19  C   UNL     1      -4.681   2.238  24.796  0.00  0.00    -0.030 A 
ATOM     20  C   UNL     1      -4.110   3.186  23.930  0.00  0.00    -0.042 A 
ATOM     21  C   UNL     1      -5.576   2.660  25.788  0.00  0.00    +0.005 A 
ATOM     22  C   UNL     1      -4.413   4.544  24.091  0.00  0.00    +0.004 A 
ATOM     23  C   UNL     1      -5.879   4.014  25.935  0.00  0.00    +0.000 A 
ATOM     24  C   UNL     1      -5.296   4.955  25.089  0.00  0.00    +0.000 A 
ENDBRANCH  10   8
BRANCH  12   3
ATOM      3  O   UNL     1      -3.961  -1.475  25.779  0.00  0.00    -0.388 OA
ATOM     32  H   UNL     1      -4.817  -1.708  26.166  0.00  0.00    +0.210 HD
ENDBRANCH  12   3
BRANCH  11  15
ATOM     15  C   UNL     1      -0.850  -0.923  25.048  0.00  0.00    +0.139 C 
BRANCH  15   9
ATOM      9  N   UNL     1       0.570  -0.808  24.672  0.00  0.00    -0.187 NA
ATOM     33  H   UNL     1       1.247  -1.163  25.359  0.00  0.00    +0.148 HD
BRANCH   9   1
ATOM      1  S   UNL     1       1.072   0.412  23.596  0.00  0.00    +0.058 S 
ATOM      5  O   UNL     1       0.525   0.146  22.280  0.00  0.00    -0.153 OA
ATOM      6  O   UNL     1       2.496   0.634  23.762  0.00  0.00    -0.153 OA
BRANCH   1  25
ATOM     25  C   UNL     1       0.249   1.833  24.251  0.00  0.00    +0.105 A 
ATOM     26  C   UNL     1       0.217   3.019  23.519  0.00  0.00    +0.032 A 
ATOM     27  C   UNL     1      -0.366   1.768  25.502  0.00  0.00    +0.032 A 
ATOM     28  C   UNL     1      -0.430   4.141  24.036  0.00  0.00    +0.047 A 
ATOM     29  C   UNL     1      -1.013   2.890  26.019  0.00  0.00    +0.047 A 
ATOM     30  C   UNL     1      -1.046   4.076  25.287  0.00  0.00    +0.120 A 
BRANCH  30   7
ATOM      7  O   UNL     1      -1.677   5.171  25.792  0.00  0.00    -0.495 OA
ATOM     31  C   UNL     1      -1.675   6.351  24.989  0.00  0.00    +0.277 C 
ENDBRANCH  30   7
ENDBRANCH   1  25
ENDBRANCH   9   1
ENDBRANCH  15   9
ENDBRANCH  11  15
BRANCH  13  18
ATOM     18  C   UNL     1      -3.598  -4.228  25.259  0.00  0.00    +0.190 C 
BRANCH  18   4
ATOM      4  O   UNL     1      -3.167  -3.755  26.524  0.00  0.00    -0.392 OA
ATOM     34  H   UNL     1      -2.202  -3.641  26.475  0.00  0.00    +0.210 HD
ENDBRANCH  18   4
ENDBRANCH  13  18
TORSDOF 9
ENDMDL
MODEL 9
REMARK VINA RESULT:       1.6      1.098      1.658
REMARK  Name = 28961736
REMARK  10 active torsions:
REMARK  status: ('A' for Active; 'I' for Inactive)
REMARK    1  A    between atoms: S_1  and  N_9
REMARK    2  A    between atoms: S_1  and  C_25
REMARK    3  A    between atoms: O_3  and  C_12
REMARK    4  A    between atoms: O_4  and  C_18
REMARK    5  A    between atoms: O_7  and  C_30
REMARK    6  A    between atoms: O_7  and  C_31
REMARK    7  A    between atoms: N_8  and  C_10
REMARK    8  A    between atoms: N_9  and  C_15
REMARK    9  A    between atoms: C_11  and  C_15
REMARK   10  A    between atoms: C_13  and  C_18
REMARK                            x       y       z     vdW  Elec       q    Type
REMARK                         _______ _______ _______ _____ _____    ______ ____
ROOT
ATOM      2  O   UNL     1       3.144   1.391  22.988  0.00  0.00    -0.366 OA
ATOM     10  C   UNL     1       1.092   0.224  22.685  0.00  0.00    +0.118 C 
ATOM     11  C   UNL     1       1.714   1.597  22.965  0.00  0.00    +0.154 C 
ATOM     12  C   UNL     1       2.143  -0.743  23.210  0.00  0.00    +0.165 C 
ATOM     13  C   UNL     1       3.420  -0.013  22.813  0.00  0.00    +0.174 C 
ENDROOT
BRANCH  10   8
ATOM      8  N   UNL     1      -0.261   0.011  23.196  0.00  0.00    -0.290 NA
ATOM     14  C   UNL     1      -1.263   0.496  22.238  0.00  0.00    +0.090 C 
ATOM     16  C   UNL     1      -0.484  -1.417  23.484  0.00  0.00    +0.120 C 
ATOM     17  C   UNL     1      -2.655   0.457  22.875  0.00  0.00    +0.051 C 
ATOM     19  C   UNL     1      -1.906  -1.734  23.884  0.00  0.00    -0.030 A 
ATOM     20  C   UNL     1      -2.953  -0.856  23.552  0.00  0.00    -0.042 A 
ATOM     21  C   UNL     1      -2.198  -2.940  24.534  0.00  0.00    +0.005 A 
ATOM     22  C   UNL     1      -4.268  -1.179  23.908  0.00  0.00    +0.004 A 
ATOM     23  C   UNL     1      -3.512  -3.258  24.876  0.00  0.00    +0.000 A 
ATOM     24  C   UNL     1      -4.546  -2.377  24.566  0.00  0.00    +0.000 A 
ENDBRANCH  10   8
BRANCH  12   3
ATOM      3  O   UNL     1       2.068  -0.875  24.624  0.00  0.00    -0.388 OA
ATOM     32  H   UNL     1       2.075   0.003  25.033  0.00  0.00    +0.210 HD
ENDBRANCH  12   3
BRANCH  11  15
ATOM     15  C   UNL     1       1.333   2.264  24.282  0.00  0.00    +0.139 C 
BRANCH  15   9
ATOM      9  N   UNL     1       0.002   2.883  24.150  0.00  0.00    -0.187 NA
ATOM     33  H   UNL     1      -0.351   2.986  23.190  0.00  0.00    +0.148 HD
BRANCH   9   1
ATOM      1  S   UNL     1      -0.561   3.961  25.340  0.00  0.00    +0.058 S 
ATOM      5  O   UNL     1      -0.366   5.324  24.884  0.00  0.00    -0.153 OA
ATOM      6  O   UNL     1      -0.052   3.546  26.634  0.00  0.00    -0.153 OA
BRANCH   1  25
ATOM     25  C   UNL     1      -2.296   3.629  25.338  0.00  0.00    +0.105 A 
ATOM     26  C   UNL     1      -3.086   4.037  26.412  0.00  0.00    +0.032 A 
ATOM     27  C   UNL     1      -2.877   2.956  24.261  0.00  0.00    +0.032 A 
ATOM     28  C   UNL     1      -4.456   3.773  26.412  0.00  0.00    +0.047 A 
ATOM     29  C   UNL     1      -4.246   2.692  24.261  0.00  0.00    +0.047 A 
ATOM     30  C   UNL     1      -5.036   3.101  25.336  0.00  0.00    +0.120 A 
BRANCH  30   7
ATOM      7  O   UNL     1      -6.373   2.843  25.336  0.00  0.00    -0.495 OA
ATOM     31  C   UNL     1      -6.799   1.623  24.730  0.00  0.00    +0.277 C 
ENDBRANCH  30   7
ENDBRANCH   1  25
ENDBRANCH   9   1
ENDBRANCH  15   9
ENDBRANCH  11  15
BRANCH  13  18
ATOM     18  C   UNL     1       4.658  -0.383  23.607  0.00  0.00    +0.190 C 
BRANCH  18   4
ATOM      4  O   UNL     1       4.551  -1.735  24.020  0.00  0.00    -0.392 OA
ATOM     34  H   UNL     1       3.770  -1.799  24.596  0.00  0.00    +0.210 HD
ENDBRANCH  18   4
ENDBRANCH  13  18
TORSDOF 9
ENDMDL
MODEL 10
REMARK VINA RESULT:       1.7     16.006     18.730
REMARK  Name = 28961736
REMARK  10 active torsions:
REMARK  status: ('A' for Active; 'I' for Inactive)
REMARK    1  A    between atoms: S_1  and  N_9
REMARK    2  A    between atoms: S_1  and  C_25
REMARK    3  A    between atoms: O_3  and  C_12
REMARK    4  A    between atoms: O_4  and  C_18
REMARK    5  A    between atoms: O_7  and  C_30
REMARK    6  A    between atoms: O_7  and  C_31
REMARK    7  A    between atoms: N_8  and  C_10
REMARK    8  A    between atoms: N_9  and  C_15
REMARK    9  A    between atoms: C_11  and  C_15
REMARK   10  A    between atoms: C_13  and  C_18
REMARK                            x       y       z     vdW  Elec       q    Type
REMARK                         _______ _______ _______ _____ _____    ______ ____
ROOT
ATOM      2  O   UNL     1      13.178  -4.430  32.202  0.00  0.00    -0.366 OA
ATOM     10  C   UNL     1      13.928  -6.653  31.797  0.00  0.00    +0.118 C 
ATOM     11  C   UNL     1      14.290  -5.170  31.651  0.00  0.00    +0.154 C 
ATOM     12  C   UNL     1      12.407  -6.634  31.812  0.00  0.00    +0.165 C 
ATOM     13  C   UNL     1      12.148  -5.357  32.601  0.00  0.00    +0.174 C 
ENDROOT
BRANCH  10   8
ATOM      8  N   UNL     1      14.530  -7.565  30.826  0.00  0.00    -0.290 NA
ATOM     14  C   UNL     1      13.786  -8.829  30.766  0.00  0.00    +0.090 C 
ATOM     16  C   UNL     1      14.576  -6.938  29.493  0.00  0.00    +0.120 C 
ATOM     17  C   UNL     1      14.547  -9.841  29.905  0.00  0.00    +0.051 C 
ATOM     19  C   UNL     1      15.058  -7.873  28.408  0.00  0.00    -0.030 A 
ATOM     20  C   UNL     1      15.003  -9.266  28.589  0.00  0.00    -0.042 A 
ATOM     21  C   UNL     1      15.506  -7.354  27.186  0.00  0.00    +0.005 A 
ATOM     22  C   UNL     1      15.430 -10.116  27.562  0.00  0.00    +0.004 A 
ATOM     23  C   UNL     1      15.920  -8.209  26.165  0.00  0.00    +0.000 A 
ATOM     24  C   UNL     1      15.886  -9.589  26.354  0.00  0.00    +0.000 A 
ENDBRANCH  10   8
BRANCH  12   3
ATOM      3  O   UNL     1      11.874  -6.521  30.499  0.00  0.00    -0.388 OA
ATOM     32  H   UNL     1      11.006  -6.949  30.463  0.00  0.00    +0.210 HD
ENDBRANCH  12   3
BRANCH  11  15
ATOM     15  C   UNL     1      14.515  -4.658  30.232  0.00  0.00    +0.139 C 
BRANCH  15   9
ATOM      9  N   UNL     1      15.900  -4.171  30.102  0.00  0.00    -0.187 NA
ATOM     33  H   UNL     1      16.608  -4.685  30.642  0.00  0.00    +0.148 HD
BRANCH   9   1
ATOM      1  S   UNL     1      16.199  -2.541  29.715  0.00  0.00    +0.058 S 
ATOM      5  O   UNL     1      17.405  -2.101  30.390  0.00  0.00    -0.153 OA
ATOM      6  O   UNL     1      14.968  -1.787  29.858  0.00  0.00    -0.153 OA
BRANCH   1  25
ATOM     25  C   UNL     1      16.547  -2.637  27.985  0.00  0.00    +0.105 A 
ATOM     26  C   UNL     1      17.106  -3.798  27.450  0.00  0.00    +0.032 A 
ATOM     27  C   UNL     1      16.263  -1.552  27.155  0.00  0.00    +0.032 A 
ATOM     28  C   UNL     1      17.383  -3.874  26.085  0.00  0.00    +0.047 A 
ATOM     29  C   UNL     1      16.540  -1.629  25.790  0.00  0.00    +0.047 A 
ATOM     30  C   UNL     1      17.099  -2.789  25.255  0.00  0.00    +0.120 A 
BRANCH  30   7
ATOM      7  O   UNL     1      17.370  -2.863  23.923  0.00  0.00    -0.495 OA
ATOM     31  C   UNL     1      16.255  -2.876  23.033  0.00  0.00    +0.277 C 
ENDBRANCH  30   7
ENDBRANCH   1  25
ENDBRANCH   9   1
ENDBRANCH  15   9
ENDBRANCH  11  15
BRANCH  13  18
ATOM     18  C   UNL     1      10.789  -4.718  32.385  0.00  0.00    +0.190 C 
BRANCH  18   4
ATOM      4  O   UNL     1      10.962  -3.324  32.193  0.00  0.00    -0.392 OA
ATOM     34  H   UNL     1      11.920  -3.155  32.158  0.00  0.00    +0.210 HD
ENDBRANCH  18   4
ENDBRANCH  13  18
TORSDOF 9
ENDMDL
