MODEL 1
REMARK VINA RESULT:      -5.7      0.000      0.000
REMARK  Name = 11886113
REMARK  6 active torsions:
REMARK  status: ('A' for Active; 'I' for Inactive)
REMARK    1  A    between atoms: O_4  and  C_19
REMARK    2  A    between atoms: O_4  and  C_25
REMARK    3  A    between atoms: N_5  and  C_12
REMARK    4  A    between atoms: N_6  and  C_13
REMARK    5  A    between atoms: C_16  and  C_18
REMARK    6  A    between atoms: C_17  and  C_19
REMARK                            x       y       z     vdW  Elec       q    Type
REMARK                         _______ _______ _______ _____ _____    ______ ____
ROOT
ATOM      1  O   UNL     1      -2.881  -1.260  23.522  0.00  0.00    -0.370 OA
ATOM      2  O   UNL     1      -1.472  -0.757  26.288  0.00  0.00    -0.370 OA
ATOM     10  C   UNL     1      -2.206   0.079  25.376  0.00  0.00    +0.176 C 
ATOM     11  C   UNL     1      -1.848  -0.369  23.971  0.00  0.00    +0.171 C 
ATOM     12  C   UNL     1      -3.692  -0.199  25.502  0.00  0.00    +0.168 C 
ATOM     13  C   UNL     1      -0.545  -1.119  24.138  0.00  0.00    +0.130 C 
ATOM     14  C   UNL     1      -3.911  -1.342  24.516  0.00  0.00    +0.190 C 
ATOM     15  C   UNL     1      -0.677  -1.687  25.540  0.00  0.00    +0.185 C 
ENDROOT
BRANCH  12   5
ATOM      5  N   UNL     1      -4.509   0.992  25.263  0.00  0.00    -0.217 N 
ATOM      7  N   UNL     1      -5.844   0.919  25.299  0.00  0.00    -0.043 NA
ATOM      8  N   UNL     1      -5.190   3.002  24.846  0.00  0.00    -0.108 NA
ATOM      9  N   UNL     1      -6.257   2.154  25.043  0.00  0.00    -0.023 NA
ATOM     16  C   UNL     1      -4.116   2.258  24.988  0.00  0.00    +0.182 A 
BRANCH  16  18
ATOM     18  C   UNL     1      -2.746   2.687  24.875  0.00  0.00    +0.021 A 
ATOM     20  C   UNL     1      -2.058   3.133  26.005  0.00  0.00    +0.011 A 
ATOM     21  C   UNL     1      -2.102   2.657  23.636  0.00  0.00    +0.011 A 
ATOM     22  C   UNL     1      -0.730   3.549  25.896  0.00  0.00    +0.001 A 
ATOM     23  C   UNL     1      -0.775   3.072  23.528  0.00  0.00    +0.001 A 
ATOM     24  C   UNL     1      -0.089   3.518  24.659  0.00  0.00    +0.000 A 
ENDBRANCH  16  18
ENDBRANCH  12   5
BRANCH  13   6
ATOM      3  O   UNL     1       1.046  -0.555  21.784  0.00  0.00    -0.273 OA
ATOM      6  N   UNL     1       0.585  -0.228  24.040  0.00  0.00    -0.306 N 
ATOM     17  C   UNL     1       1.290  -0.022  22.863  0.00  0.00    +0.239 C 
ATOM     26  H   UNL     1       0.843   0.308  24.865  0.00  0.00    +0.149 HD
BRANCH  17  19
ATOM     19  C   UNL     1       2.425   0.962  23.051  0.00  0.00    +0.255 C 
BRANCH  19   4
ATOM      4  O   UNL     1       3.571   0.545  22.339  0.00  0.00    -0.374 OA
ATOM     25  C   UNL     1       4.724   0.491  23.173  0.00  0.00    +0.194 C 
ENDBRANCH  19   4
ENDBRANCH  17  19
ENDBRANCH  13   6
TORSDOF 5
ENDMDL
MODEL 2
REMARK VINA RESULT:      -5.4      2.911      5.126
REMARK  Name = 11886113
REMARK  6 active torsions:
REMARK  status: ('A' for Active; 'I' for Inactive)
REMARK    1  A    between atoms: O_4  and  C_19
REMARK    2  A    between atoms: O_4  and  C_25
REMARK    3  A    between atoms: N_5  and  C_12
REMARK    4  A    between atoms: N_6  and  C_13
REMARK    5  A    between atoms: C_16  and  C_18
REMARK    6  A    between atoms: C_17  and  C_19
REMARK                            x       y       z     vdW  Elec       q    Type
REMARK                         _______ _______ _______ _____ _____    ______ ____
ROOT
ATOM      1  O   UNL     1      -1.474   4.284  25.340  0.00  0.00    -0.370 OA
ATOM      2  O   UNL     1      -0.572   1.346  24.672  0.00  0.00    -0.370 OA
ATOM     10  C   UNL     1      -1.657   1.908  25.432  0.00  0.00    +0.176 C 
ATOM     11  C   UNL     1      -1.121   3.141  26.134  0.00  0.00    +0.171 C 
ATOM     12  C   UNL     1      -2.726   2.434  24.493  0.00  0.00    +0.168 C 
ATOM     13  C   UNL     1       0.380   2.948  26.135  0.00  0.00    +0.130 C 
ATOM     14  C   UNL     1      -2.271   3.864  24.223  0.00  0.00    +0.190 C 
ATOM     15  C   UNL     1       0.603   2.146  24.866  0.00  0.00    +0.185 C 
ENDROOT
BRANCH  12   5
ATOM      5  N   UNL     1      -4.075   2.307  25.049  0.00  0.00    -0.217 N 
ATOM      7  N   UNL     1      -4.779   3.395  25.380  0.00  0.00    -0.043 NA
ATOM      8  N   UNL     1      -5.953   1.548  25.806  0.00  0.00    -0.108 NA
ATOM      9  N   UNL     1      -5.930   2.924  25.843  0.00  0.00    -0.023 NA
ATOM     16  C   UNL     1      -4.791   1.188  25.309  0.00  0.00    +0.182 A 
BRANCH  16  18
ATOM     18  C   UNL     1      -4.330  -0.156  25.072  0.00  0.00    +0.021 A 
ATOM     20  C   UNL     1      -4.598  -0.781  23.853  0.00  0.00    +0.011 A 
ATOM     21  C   UNL     1      -3.615  -0.836  26.060  0.00  0.00    +0.011 A 
ATOM     22  C   UNL     1      -4.152  -2.083  23.623  0.00  0.00    +0.001 A 
ATOM     23  C   UNL     1      -3.169  -2.137  25.829  0.00  0.00    +0.001 A 
ATOM     24  C   UNL     1      -3.438  -2.761  24.610  0.00  0.00    +0.000 A 
ENDBRANCH  16  18
ENDBRANCH  12   5
BRANCH  13   6
ATOM      3  O   UNL     1       2.417   3.722  28.045  0.00  0.00    -0.273 OA
ATOM      6  N   UNL     1       0.810   2.213  27.300  0.00  0.00    -0.306 N 
ATOM     17  C   UNL     1       1.800   2.666  28.161  0.00  0.00    +0.239 C 
ATOM     26  H   UNL     1       0.327   1.346  27.522  0.00  0.00    +0.149 HD
BRANCH  17  19
ATOM     19  C   UNL     1       2.046   1.695  29.295  0.00  0.00    +0.255 C 
BRANCH  19   4
ATOM      4  O   UNL     1       1.865   2.329  30.544  0.00  0.00    -0.374 OA
ATOM     25  C   UNL     1       0.536   2.814  30.706  0.00  0.00    +0.194 C 
ENDBRANCH  19   4
ENDBRANCH  17  19
ENDBRANCH  13   6
TORSDOF 5
ENDMDL
MODEL 3
REMARK VINA RESULT:      -3.6      2.584      6.397
REMARK  Name = 11886113
REMARK  6 active torsions:
REMARK  status: ('A' for Active; 'I' for Inactive)
REMARK    1  A    between atoms: O_4  and  C_19
REMARK    2  A    between atoms: O_4  and  C_25
REMARK    3  A    between atoms: N_5  and  C_12
REMARK    4  A    between atoms: N_6  and  C_13
REMARK    5  A    between atoms: C_16  and  C_18
REMARK    6  A    between atoms: C_17  and  C_19
REMARK                            x       y       z     vdW  Elec       q    Type
REMARK                         _______ _______ _______ _____ _____    ______ ____
ROOT
ATOM      1  O   UNL     1      -1.010   4.052  23.812  0.00  0.00    -0.370 OA
ATOM      2  O   UNL     1      -1.349   2.852  26.699  0.00  0.00    -0.370 OA
ATOM     10  C   UNL     1      -1.214   2.274  25.388  0.00  0.00    +0.176 C 
ATOM     11  C   UNL     1      -1.966   3.171  24.423  0.00  0.00    +0.171 C 
ATOM     12  C   UNL     1       0.233   2.351  24.938  0.00  0.00    +0.168 C 
ATOM     13  C   UNL     1      -2.913   3.956  25.303  0.00  0.00    +0.130 C 
ATOM     14  C   UNL     1       0.310   3.717  24.264  0.00  0.00    +0.190 C 
ATOM     15  C   UNL     1      -2.144   4.042  26.609  0.00  0.00    +0.185 C 
ENDROOT
BRANCH  12   5
ATOM      5  N   UNL     1       0.619   1.219  24.092  0.00  0.00    -0.217 N 
ATOM      7  N   UNL     1       1.755   1.255  23.387  0.00  0.00    -0.043 NA
ATOM      8  N   UNL     1       0.686  -0.671  23.046  0.00  0.00    -0.108 NA
ATOM      9  N   UNL     1       1.793   0.093  22.748  0.00  0.00    -0.023 NA
ATOM     16  C   UNL     1      -0.026   0.048  23.883  0.00  0.00    +0.182 A 
BRANCH  16  18
ATOM     18  C   UNL     1      -1.281  -0.318  24.488  0.00  0.00    +0.021 A 
ATOM     20  C   UNL     1      -1.315  -0.762  25.810  0.00  0.00    +0.011 A 
ATOM     21  C   UNL     1      -2.465  -0.229  23.753  0.00  0.00    +0.011 A 
ATOM     22  C   UNL     1      -2.531  -1.117  26.397  0.00  0.00    +0.001 A 
ATOM     23  C   UNL     1      -3.680  -0.583  24.340  0.00  0.00    +0.001 A 
ATOM     24  C   UNL     1      -3.712  -1.028  25.663  0.00  0.00    +0.000 A 
ENDBRANCH  16  18
ENDBRANCH  12   5
BRANCH  13   6
ATOM      3  O   UNL     1      -4.504   2.663  23.255  0.00  0.00    -0.273 OA
ATOM      6  N   UNL     1      -4.162   3.256  25.479  0.00  0.00    -0.306 N 
ATOM     17  C   UNL     1      -4.856   2.667  24.432  0.00  0.00    +0.239 C 
ATOM     26  H   UNL     1      -4.522   3.152  26.424  0.00  0.00    +0.149 HD
BRANCH  17  19
ATOM     19  C   UNL     1      -6.132   2.004  24.905  0.00  0.00    +0.255 C 
BRANCH  19   4
ATOM      4  O   UNL     1      -6.461   2.427  26.211  0.00  0.00    -0.374 OA
ATOM     25  C   UNL     1      -6.620   1.328  27.102  0.00  0.00    +0.194 C 
ENDBRANCH  19   4
ENDBRANCH  17  19
ENDBRANCH  13   6
TORSDOF 5
ENDMDL
MODEL 4
REMARK VINA RESULT:      -3.5      2.351      3.521
REMARK  Name = 11886113
REMARK  6 active torsions:
REMARK  status: ('A' for Active; 'I' for Inactive)
REMARK    1  A    between atoms: O_4  and  C_19
REMARK    2  A    between atoms: O_4  and  C_25
REMARK    3  A    between atoms: N_5  and  C_12
REMARK    4  A    between atoms: N_6  and  C_13
REMARK    5  A    between atoms: C_16  and  C_18
REMARK    6  A    between atoms: C_17  and  C_19
REMARK                            x       y       z     vdW  Elec       q    Type
REMARK                         _______ _______ _______ _____ _____    ______ ____
ROOT
ATOM      1  O   UNL     1      -1.106   1.043  22.452  0.00  0.00    -0.370 OA
ATOM      2  O   UNL     1      -0.166  -0.244  25.164  0.00  0.00    -0.370 OA
ATOM     10  C   UNL     1      -0.223   1.105  24.667  0.00  0.00    +0.176 C 
ATOM     11  C   UNL     1       0.125   1.054  23.191  0.00  0.00    +0.171 C 
ATOM     12  C   UNL     1      -1.653   1.610  24.707  0.00  0.00    +0.168 C 
ATOM     13  C   UNL     1       0.849  -0.264  23.023  0.00  0.00    +0.130 C 
ATOM     14  C   UNL     1      -2.211   1.167  23.359  0.00  0.00    +0.190 C 
ATOM     15  C   UNL     1       0.204  -1.125  24.094  0.00  0.00    +0.185 C 
ENDROOT
BRANCH  12   5
ATOM      5  N   UNL     1      -1.734   3.049  24.970  0.00  0.00    -0.217 N 
ATOM      7  N   UNL     1      -0.634   3.808  24.937  0.00  0.00    -0.043 NA
ATOM      8  N   UNL     1      -2.422   5.047  25.424  0.00  0.00    -0.108 NA
ATOM      9  N   UNL     1      -1.061   5.034  25.215  0.00  0.00    -0.023 NA
ATOM     16  C   UNL     1      -2.817   3.805  25.266  0.00  0.00    +0.182 A 
BRANCH  16  18
ATOM     18  C   UNL     1      -4.162   3.303  25.382  0.00  0.00    +0.021 A 
ATOM     20  C   UNL     1      -5.216   4.181  25.638  0.00  0.00    +0.011 A 
ATOM     21  C   UNL     1      -4.415   1.937  25.238  0.00  0.00    +0.011 A 
ATOM     22  C   UNL     1      -6.519   3.695  25.751  0.00  0.00    +0.001 A 
ATOM     23  C   UNL     1      -5.718   1.451  25.351  0.00  0.00    +0.001 A 
ATOM     24  C   UNL     1      -6.770   2.331  25.608  0.00  0.00    +0.000 A 
ENDBRANCH  16  18
ENDBRANCH  12   5
BRANCH  13   6
ATOM      3  O   UNL     1       2.908   0.243  21.049  0.00  0.00    -0.273 OA
ATOM      6  N   UNL     1       2.265  -0.115  23.256  0.00  0.00    -0.306 N 
ATOM     17  C   UNL     1       3.180   0.127  22.241  0.00  0.00    +0.239 C 
ATOM     26  H   UNL     1       2.596  -0.140  24.217  0.00  0.00    +0.149 HD
BRANCH  17  19
ATOM     19  C   UNL     1       4.593   0.238  22.772  0.00  0.00    +0.255 C 
BRANCH  19   4
ATOM      4  O   UNL     1       4.902  -0.859  23.605  0.00  0.00    -0.374 OA
ATOM     25  C   UNL     1       5.701  -0.472  24.719  0.00  0.00    +0.194 C 
ENDBRANCH  19   4
ENDBRANCH  17  19
ENDBRANCH  13   6
TORSDOF 5
ENDMDL
MODEL 5
REMARK VINA RESULT:      -3.3      2.748      4.541
REMARK  Name = 11886113
REMARK  6 active torsions:
REMARK  status: ('A' for Active; 'I' for Inactive)
REMARK    1  A    between atoms: O_4  and  C_19
REMARK    2  A    between atoms: O_4  and  C_25
REMARK    3  A    between atoms: N_5  and  C_12
REMARK    4  A    between atoms: N_6  and  C_13
REMARK    5  A    between atoms: C_16  and  C_18
REMARK    6  A    between atoms: C_17  and  C_19
REMARK                            x       y       z     vdW  Elec       q    Type
REMARK                         _______ _______ _______ _____ _____    ______ ____
ROOT
ATOM      1  O   UNL     1       0.214  -0.539  23.720  0.00  0.00    -0.370 OA
ATOM      2  O   UNL     1      -0.874   1.014  26.229  0.00  0.00    -0.370 OA
ATOM     10  C   UNL     1      -1.499   0.401  25.087  0.00  0.00    +0.176 C 
ATOM     11  C   UNL     1      -0.589   0.639  23.897  0.00  0.00    +0.171 C 
ATOM     12  C   UNL     1      -1.522  -1.106  25.259  0.00  0.00    +0.168 C 
ATOM     13  C   UNL     1       0.277   1.805  24.316  0.00  0.00    +0.130 C 
ATOM     14  C   UNL     1      -0.185  -1.539  24.668  0.00  0.00    +0.190 C 
ATOM     15  C   UNL     1       0.358   1.623  25.821  0.00  0.00    +0.185 C 
ENDROOT
BRANCH  12   5
ATOM      5  N   UNL     1      -2.701  -1.724  24.646  0.00  0.00    -0.217 N 
ATOM      7  N   UNL     1      -2.736  -3.041  24.418  0.00  0.00    -0.043 NA
ATOM      8  N   UNL     1      -4.633  -2.083  23.745  0.00  0.00    -0.108 NA
ATOM      9  N   UNL     1      -3.923  -3.257  23.865  0.00  0.00    -0.023 NA
ATOM     16  C   UNL     1      -3.854  -1.146  24.236  0.00  0.00    +0.182 A 
BRANCH  16  18
ATOM     18  C   UNL     1      -4.148   0.260  24.335  0.00  0.00    +0.021 A 
ATOM     20  C   UNL     1      -4.950   0.735  25.374  0.00  0.00    +0.011 A 
ATOM     21  C   UNL     1      -3.633   1.152  23.391  0.00  0.00    +0.011 A 
ATOM     22  C   UNL     1      -5.235   2.098  25.470  0.00  0.00    +0.001 A 
ATOM     23  C   UNL     1      -3.919   2.514  23.488  0.00  0.00    +0.001 A 
ATOM     24  C   UNL     1      -4.720   2.987  24.528  0.00  0.00    +0.000 A 
ENDBRANCH  16  18
ENDBRANCH  12   5
BRANCH  13   6
ATOM      3  O   UNL     1      -0.146   4.083  26.056  0.00  0.00    -0.273 OA
ATOM      6  N   UNL     1      -0.341   3.063  23.974  0.00  0.00    -0.306 N 
ATOM     17  C   UNL     1      -0.502   4.101  24.880  0.00  0.00    +0.239 C 
ATOM     26  H   UNL     1      -0.626   3.208  23.009  0.00  0.00    +0.149 HD
BRANCH  17  19
ATOM     19  C   UNL     1      -1.179   5.299  24.250  0.00  0.00    +0.255 C 
BRANCH  19   4
ATOM      4  O   UNL     1      -2.050   5.922  25.170  0.00  0.00    -0.374 OA
ATOM     25  C   UNL     1      -2.784   4.972  25.935  0.00  0.00    +0.194 C 
ENDBRANCH  19   4
ENDBRANCH  17  19
ENDBRANCH  13   6
TORSDOF 5
ENDMDL
MODEL 6
REMARK VINA RESULT:      -3.2     15.961     17.493
REMARK  Name = 11886113
REMARK  6 active torsions:
REMARK  status: ('A' for Active; 'I' for Inactive)
REMARK    1  A    between atoms: O_4  and  C_19
REMARK    2  A    between atoms: O_4  and  C_25
REMARK    3  A    between atoms: N_5  and  C_12
REMARK    4  A    between atoms: N_6  and  C_13
REMARK    5  A    between atoms: C_16  and  C_18
REMARK    6  A    between atoms: C_17  and  C_19
REMARK                            x       y       z     vdW  Elec       q    Type
REMARK                         _______ _______ _______ _____ _____    ______ ____
ROOT
ATOM      1  O   UNL     1      -3.806 -10.179   8.959  0.00  0.00    -0.370 OA
ATOM      2  O   UNL     1      -4.207 -10.280  12.077  0.00  0.00    -0.370 OA
ATOM     10  C   UNL     1      -4.637  -9.374  11.045  0.00  0.00    +0.176 C 
ATOM     11  C   UNL     1      -3.508  -9.276  10.036  0.00  0.00    +0.171 C 
ATOM     12  C   UNL     1      -5.792  -9.983  10.272  0.00  0.00    +0.168 C 
ATOM     13  C   UNL     1      -2.288  -9.750  10.794  0.00  0.00    +0.130 C 
ATOM     14  C   UNL     1      -5.090 -10.781   9.178  0.00  0.00    +0.190 C 
ATOM     15  C   UNL     1      -2.883 -10.742  11.777  0.00  0.00    +0.185 C 
ENDROOT
BRANCH  12   5
ATOM      5  N   UNL     1      -6.741  -8.976   9.794  0.00  0.00    -0.217 N 
ATOM      7  N   UNL     1      -6.411  -8.155   8.791  0.00  0.00    -0.043 NA
ATOM      8  N   UNL     1      -8.478  -7.720   9.507  0.00  0.00    -0.108 NA
ATOM      9  N   UNL     1      -7.480  -7.386   8.618  0.00  0.00    -0.023 NA
ATOM     16  C   UNL     1      -7.996  -8.709  10.225  0.00  0.00    +0.182 A 
BRANCH  16  18
ATOM     18  C   UNL     1      -8.663  -9.408  11.294  0.00  0.00    +0.021 A 
ATOM     20  C   UNL     1      -8.101  -9.430  12.571  0.00  0.00    +0.011 A 
ATOM     21  C   UNL     1      -9.872 -10.064  11.054  0.00  0.00    +0.011 A 
ATOM     22  C   UNL     1      -8.747 -10.107  13.607  0.00  0.00    +0.001 A 
ATOM     23  C   UNL     1     -10.517 -10.741  12.090  0.00  0.00    +0.001 A 
ATOM     24  C   UNL     1      -9.953 -10.762  13.367  0.00  0.00    +0.000 A 
ENDBRANCH  16  18
ENDBRANCH  12   5
BRANCH  13   6
ATOM      3  O   UNL     1       0.558  -9.249  11.012  0.00  0.00    -0.273 OA
ATOM      6  N   UNL     1      -1.643  -8.657  11.479  0.00  0.00    -0.306 N 
ATOM     17  C   UNL     1      -0.265  -8.500  11.531  0.00  0.00    +0.239 C 
ATOM     26  H   UNL     1      -2.233  -7.945  11.902  0.00  0.00    +0.149 HD
BRANCH  17  19
ATOM     19  C   UNL     1       0.132  -7.268  12.316  0.00  0.00    +0.255 C 
BRANCH  19   4
ATOM      4  O   UNL     1       1.522  -7.256  12.558  0.00  0.00    -0.374 OA
ATOM     25  C   UNL     1       2.116  -6.016  12.188  0.00  0.00    +0.194 C 
ENDBRANCH  19   4
ENDBRANCH  17  19
ENDBRANCH  13   6
TORSDOF 5
ENDMDL
MODEL 7
REMARK VINA RESULT:      -3.2      1.811      3.748
REMARK  Name = 11886113
REMARK  6 active torsions:
REMARK  status: ('A' for Active; 'I' for Inactive)
REMARK    1  A    between atoms: O_4  and  C_19
REMARK    2  A    between atoms: O_4  and  C_25
REMARK    3  A    between atoms: N_5  and  C_12
REMARK    4  A    between atoms: N_6  and  C_13
REMARK    5  A    between atoms: C_16  and  C_18
REMARK    6  A    between atoms: C_17  and  C_19
REMARK                            x       y       z     vdW  Elec       q    Type
REMARK                         _______ _______ _______ _____ _____    ______ ____
ROOT
ATOM      1  O   UNL     1      -1.866   3.705  25.458  0.00  0.00    -0.370 OA
ATOM      2  O   UNL     1      -2.290   2.184  22.739  0.00  0.00    -0.370 OA
ATOM     10  C   UNL     1      -2.743   1.963  24.086  0.00  0.00    +0.176 C 
ATOM     11  C   UNL     1      -1.610   2.364  25.011  0.00  0.00    +0.171 C 
ATOM     12  C   UNL     1      -3.868   2.925  24.416  0.00  0.00    +0.168 C 
ATOM     13  C   UNL     1      -0.380   2.331  24.132  0.00  0.00    +0.130 C 
ATOM     14  C   UNL     1      -3.129   4.150  24.943  0.00  0.00    +0.190 C 
ATOM     15  C   UNL     1      -0.947   2.686  22.769  0.00  0.00    +0.185 C 
ENDROOT
BRANCH  12   5
ATOM      5  N   UNL     1      -4.849   2.348  25.338  0.00  0.00    -0.217 N 
ATOM      7  N   UNL     1      -5.727   3.131  25.974  0.00  0.00    -0.043 NA
ATOM      8  N   UNL     1      -6.029   0.998  26.547  0.00  0.00    -0.108 NA
ATOM      9  N   UNL     1      -6.449   2.299  26.714  0.00  0.00    -0.023 NA
ATOM     16  C   UNL     1      -5.036   1.054  25.689  0.00  0.00    +0.182 A 
BRANCH  16  18
ATOM     18  C   UNL     1      -4.261  -0.053  25.189  0.00  0.00    +0.021 A 
ATOM     20  C   UNL     1      -4.650  -0.706  24.019  0.00  0.00    +0.011 A 
ATOM     21  C   UNL     1      -3.119  -0.474  25.874  0.00  0.00    +0.011 A 
ATOM     22  C   UNL     1      -3.899  -1.778  23.534  0.00  0.00    +0.001 A 
ATOM     23  C   UNL     1      -2.369  -1.545  25.389  0.00  0.00    +0.001 A 
ATOM     24  C   UNL     1      -2.760  -2.198  24.219  0.00  0.00    +0.000 A 
ENDBRANCH  16  18
ENDBRANCH  12   5
BRANCH  13   6
ATOM      3  O   UNL     1       2.268   1.617  23.194  0.00  0.00    -0.273 OA
ATOM      6  N   UNL     1       0.220   1.019  24.122  0.00  0.00    -0.306 N 
ATOM     17  C   UNL     1       1.501   0.772  23.650  0.00  0.00    +0.239 C 
ATOM     26  H   UNL     1      -0.309   0.250  24.527  0.00  0.00    +0.149 HD
BRANCH  17  19
ATOM     19  C   UNL     1       1.869  -0.692  23.760  0.00  0.00    +0.255 C 
BRANCH  19   4
ATOM      4  O   UNL     1       3.025  -0.975  23.000  0.00  0.00    -0.374 OA
ATOM     25  C   UNL     1       4.127  -1.340  23.825  0.00  0.00    +0.194 C 
ENDBRANCH  19   4
ENDBRANCH  17  19
ENDBRANCH  13   6
TORSDOF 5
ENDMDL
MODEL 8
REMARK VINA RESULT:      -2.9      1.861      3.967
REMARK  Name = 11886113
REMARK  6 active torsions:
REMARK  status: ('A' for Active; 'I' for Inactive)
REMARK    1  A    between atoms: O_4  and  C_19
REMARK    2  A    between atoms: O_4  and  C_25
REMARK    3  A    between atoms: N_5  and  C_12
REMARK    4  A    between atoms: N_6  and  C_13
REMARK    5  A    between atoms: C_16  and  C_18
REMARK    6  A    between atoms: C_17  and  C_19
REMARK                            x       y       z     vdW  Elec       q    Type
REMARK                         _______ _______ _______ _____ _____    ______ ____
ROOT
ATOM      1  O   UNL     1      -1.633   3.770  25.859  0.00  0.00    -0.370 OA
ATOM      2  O   UNL     1      -1.836   2.227  23.127  0.00  0.00    -0.370 OA
ATOM     10  C   UNL     1      -2.544   2.140  24.376  0.00  0.00    +0.176 C 
ATOM     11  C   UNL     1      -1.535   2.388  25.481  0.00  0.00    +0.171 C 
ATOM     12  C   UNL     1      -3.530   3.288  24.491  0.00  0.00    +0.168 C 
ATOM     13  C   UNL     1      -0.196   2.116  24.832  0.00  0.00    +0.130 C 
ATOM     14  C   UNL     1      -2.695   4.395  25.125  0.00  0.00    +0.190 C 
ATOM     15  C   UNL     1      -0.453   2.503  23.387  0.00  0.00    +0.185 C 
ENDROOT
BRANCH  12   5
ATOM      5  N   UNL     1      -4.737   2.919  25.233  0.00  0.00    -0.217 N 
ATOM      7  N   UNL     1      -5.550   3.863  25.719  0.00  0.00    -0.043 NA
ATOM      8  N   UNL     1      -6.326   1.834  26.219  0.00  0.00    -0.108 NA
ATOM      9  N   UNL     1      -6.524   3.193  26.323  0.00  0.00    -0.023 NA
ATOM     16  C   UNL     1      -5.212   1.689  25.539  0.00  0.00    +0.182 A 
BRANCH  16  18
ATOM     18  C   UNL     1      -4.580   0.449  25.167  0.00  0.00    +0.021 A 
ATOM     20  C   UNL     1      -3.894  -0.299  26.125  0.00  0.00    +0.011 A 
ATOM     21  C   UNL     1      -4.652  -0.006  23.849  0.00  0.00    +0.011 A 
ATOM     22  C   UNL     1      -3.281  -1.500  25.765  0.00  0.00    +0.001 A 
ATOM     23  C   UNL     1      -4.039  -1.207  23.490  0.00  0.00    +0.001 A 
ATOM     24  C   UNL     1      -3.353  -1.954  24.449  0.00  0.00    +0.000 A 
ENDBRANCH  16  18
ENDBRANCH  12   5
BRANCH  13   6
ATOM      3  O   UNL     1       0.590   0.328  22.692  0.00  0.00    -0.273 OA
ATOM      6  N   UNL     1       0.165   0.724  24.944  0.00  0.00    -0.306 N 
ATOM     17  C   UNL     1       0.529  -0.057  23.857  0.00  0.00    +0.239 C 
ATOM     26  H   UNL     1       0.200   0.314  25.874  0.00  0.00    +0.149 HD
BRANCH  17  19
ATOM     19  C   UNL     1       0.856  -1.476  24.267  0.00  0.00    +0.255 C 
BRANCH  19   4
ATOM      4  O   UNL     1       0.136  -1.840  25.426  0.00  0.00    -0.374 OA
ATOM     25  C   UNL     1      -0.094  -3.244  25.490  0.00  0.00    +0.194 C 
ENDBRANCH  19   4
ENDBRANCH  17  19
ENDBRANCH  13   6
TORSDOF 5
ENDMDL
MODEL 9
REMARK VINA RESULT:      -1.8      2.698      4.906
REMARK  Name = 11886113
REMARK  6 active torsions:
REMARK  status: ('A' for Active; 'I' for Inactive)
REMARK    1  A    between atoms: O_4  and  C_19
REMARK    2  A    between atoms: O_4  and  C_25
REMARK    3  A    between atoms: N_5  and  C_12
REMARK    4  A    between atoms: N_6  and  C_13
REMARK    5  A    between atoms: C_16  and  C_18
REMARK    6  A    between atoms: C_17  and  C_19
REMARK                            x       y       z     vdW  Elec       q    Type
REMARK                         _______ _______ _______ _____ _____    ______ ____
ROOT
ATOM      1  O   UNL     1       0.170   1.929  26.402  0.00  0.00    -0.370 OA
ATOM      2  O   UNL     1      -0.732   0.900  23.570  0.00  0.00    -0.370 OA
ATOM     10  C   UNL     1      -1.277   1.846  24.508  0.00  0.00    +0.176 C 
ATOM     11  C   UNL     1      -1.019   1.299  25.899  0.00  0.00    +0.171 C 
ATOM     12  C   UNL     1      -0.487   3.140  24.451  0.00  0.00    +0.168 C 
ATOM     13  C   UNL     1      -0.775  -0.178  25.679  0.00  0.00    +0.130 C 
ATOM     14  C   UNL     1       0.635   2.902  25.455  0.00  0.00    +0.190 C 
ATOM     15  C   UNL     1      -0.163  -0.202  24.291  0.00  0.00    +0.185 C 
ENDROOT
BRANCH  12   5
ATOM      5  N   UNL     1      -1.317   4.318  24.716  0.00  0.00    -0.217 N 
ATOM      7  N   UNL     1      -0.762   5.529  24.830  0.00  0.00    -0.043 NA
ATOM      8  N   UNL     1      -2.971   5.656  25.101  0.00  0.00    -0.108 NA
ATOM      9  N   UNL     1      -1.780   6.347  25.065  0.00  0.00    -0.023 NA
ATOM     16  C   UNL     1      -2.658   4.400  24.881  0.00  0.00    +0.182 A 
BRANCH  16  18
ATOM     18  C   UNL     1      -3.563   3.280  24.821  0.00  0.00    +0.021 A 
ATOM     20  C   UNL     1      -4.404   3.003  25.900  0.00  0.00    +0.011 A 
ATOM     21  C   UNL     1      -3.600   2.470  23.684  0.00  0.00    +0.011 A 
ATOM     22  C   UNL     1      -5.280   1.918  25.842  0.00  0.00    +0.001 A 
ATOM     23  C   UNL     1      -4.477   1.386  23.627  0.00  0.00    +0.001 A 
ATOM     24  C   UNL     1      -5.317   1.111  24.707  0.00  0.00    +0.000 A 
ENDBRANCH  16  18
ENDBRANCH  12   5
BRANCH  13   6
ATOM      3  O   UNL     1      -1.288  -2.792  24.540  0.00  0.00    -0.273 OA
ATOM      6  N   UNL     1      -2.010  -0.922  25.719  0.00  0.00    -0.306 N 
ATOM     17  C   UNL     1      -2.162  -2.174  25.141  0.00  0.00    +0.239 C 
ATOM     26  H   UNL     1      -2.789  -0.525  26.239  0.00  0.00    +0.149 HD
BRANCH  17  19
ATOM     19  C   UNL     1      -3.561  -2.718  25.335  0.00  0.00    +0.255 C 
BRANCH  19   4
ATOM      4  O   UNL     1      -4.061  -3.255  24.129  0.00  0.00    -0.374 OA
ATOM     25  C   UNL     1      -4.602  -2.247  23.282  0.00  0.00    +0.194 C 
ENDBRANCH  19   4
ENDBRANCH  17  19
ENDBRANCH  13   6
TORSDOF 5
ENDMDL
