MODEL 1
REMARK VINA RESULT:       3.6      0.000      0.000
REMARK  Name = 7663919
REMARK  8 active torsions:
REMARK  status: ('A' for Active; 'I' for Inactive)
REMARK    1  A    between atoms: O_4  and  C_30
REMARK    2  A    between atoms: O_4  and  C_31
REMARK    3  A    between atoms: N_9  and  C_28
REMARK    4  A    between atoms: C_10  and  C_16
REMARK    5  A    between atoms: C_11  and  C_25
REMARK    6  A    between atoms: C_18  and  C_22
REMARK    7  A    between atoms: C_28  and  C_29
REMARK    8  A    between atoms: C_28  and  C_30
REMARK                            x       y       z     vdW  Elec       q    Type
REMARK                         _______ _______ _______ _____ _____    ______ ____
ROOT
ATOM      1  O   UNL     1      -3.740   1.603  23.020  0.00  0.00    -0.275 OA
ATOM      2  O   UNL     1       3.474   1.561  24.394  0.00  0.00    -0.275 OA
ATOM      6  N   UNL     1      -1.509   2.048  23.511  0.00  0.00    -0.287 N 
ATOM      7  N   UNL     1       1.328   1.347  23.527  0.00  0.00    -0.298 N 
ATOM     11  C   UNL     1      -1.053   0.755  22.995  0.00  0.00    +0.179 C 
ATOM     14  C   UNL     1       0.406   0.763  22.543  0.00  0.00    +0.139 C 
ATOM     15  C   UNL     1      -0.479   2.981  23.983  0.00  0.00    +0.127 C 
ATOM     16  C   UNL     1      -2.866   2.379  23.415  0.00  0.00    +0.219 C 
ATOM     17  C   UNL     1       0.760   2.270  24.508  0.00  0.00    +0.127 C 
ATOM     22  C   UNL     1       2.696   1.072  23.571  0.00  0.00    +0.219 C 
ENDROOT
BRANCH  22  18
ATOM      8  N   UNL     1       5.487  -1.409  23.608  0.00  0.00    -0.316 NA
ATOM     18  C   UNL     1       3.217   0.112  22.539  0.00  0.00    +0.078 C 
ATOM     23  C   UNL     1       4.668   0.435  22.176  0.00  0.00    +0.028 C 
ATOM     24  C   UNL     1       3.084  -1.334  23.024  0.00  0.00    +0.028 C 
ATOM     26  C   UNL     1       5.649   0.004  23.268  0.00  0.00    +0.081 C 
ATOM     27  C   UNL     1       4.131  -1.691  24.080  0.00  0.00    +0.081 C 
ATOM     32  H   UNL     1       6.156  -1.660  24.334  0.00  0.00    +0.122 HD
ENDBRANCH  22  18
BRANCH  16  10
ATOM     10  C   UNL     1      -3.245   3.768  23.837  0.00  0.00    +0.075 C 
ATOM     12  C   UNL     1      -2.369   4.222  25.007  0.00  0.00    +0.013 C 
ATOM     13  C   UNL     1      -4.741   3.859  24.147  0.00  0.00    +0.013 C 
ATOM     19  C   UNL     1      -2.770   3.587  26.337  0.00  0.00    +0.001 C 
ATOM     20  C   UNL     1      -5.120   3.244  25.495  0.00  0.00    +0.001 C 
ATOM     21  C   UNL     1      -4.255   3.781  26.628  0.00  0.00    +0.000 C 
ENDBRANCH  16  10
BRANCH  11  25
ATOM      3  O   UNL     1      -0.620  -1.281  24.168  0.00  0.00    -0.274 OA
ATOM      9  N   UNL     1      -2.338   0.104  24.911  0.00  0.00    -0.301 N 
ATOM     25  C   UNL     1      -1.291  -0.255  24.080  0.00  0.00    +0.236 C 
ATOM     33  H   UNL     1      -2.844   0.965  24.727  0.00  0.00    +0.150 HD
BRANCH   9  28
ATOM     28  C   UNL     1      -2.782  -0.710  26.020  0.00  0.00    +0.179 C 
ATOM     29  C   UNL     1      -1.605  -1.078  26.909  0.00  0.00    +0.040 C 
BRANCH  28  30
ATOM      5  O   UNL     1      -3.290  -3.071  26.038  0.00  0.00    -0.249 OA
ATOM     30  C   UNL     1      -3.503  -1.964  25.550  0.00  0.00    +0.327 C 
BRANCH  30   4
ATOM      4  O   UNL     1      -4.395  -1.705  24.553  0.00  0.00    -0.467 OA
ATOM     31  C   UNL     1      -4.321  -2.565  23.411  0.00  0.00    +0.280 C 
ENDBRANCH  30   4
ENDBRANCH  28  30
ENDBRANCH   9  28
ENDBRANCH  11  25
TORSDOF 6
ENDMDL
MODEL 2
REMARK VINA RESULT:       3.8      1.733      6.796
REMARK  Name = 7663919
REMARK  8 active torsions:
REMARK  status: ('A' for Active; 'I' for Inactive)
REMARK    1  A    between atoms: O_4  and  C_30
REMARK    2  A    between atoms: O_4  and  C_31
REMARK    3  A    between atoms: N_9  and  C_28
REMARK    4  A    between atoms: C_10  and  C_16
REMARK    5  A    between atoms: C_11  and  C_25
REMARK    6  A    between atoms: C_18  and  C_22
REMARK    7  A    between atoms: C_28  and  C_29
REMARK    8  A    between atoms: C_28  and  C_30
REMARK                            x       y       z     vdW  Elec       q    Type
REMARK                         _______ _______ _______ _____ _____    ______ ____
ROOT
ATOM      1  O   UNL     1       1.823  -1.333  24.529  0.00  0.00    -0.275 OA
ATOM      2  O   UNL     1      -3.691   3.397  23.459  0.00  0.00    -0.275 OA
ATOM      6  N   UNL     1       0.358   0.351  23.870  0.00  0.00    -0.287 N 
ATOM      7  N   UNL     1      -1.982   2.053  24.281  0.00  0.00    -0.298 N 
ATOM     11  C   UNL     1      -0.483   0.196  25.059  0.00  0.00    +0.179 C 
ATOM     14  C   UNL     1      -1.267   1.458  25.417  0.00  0.00    +0.139 C 
ATOM     15  C   UNL     1       0.001   1.423  22.933  0.00  0.00    +0.127 C 
ATOM     16  C   UNL     1       1.513  -0.430  23.748  0.00  0.00    +0.219 C 
ATOM     17  C   UNL     1      -1.488   1.737  22.942  0.00  0.00    +0.127 C 
ATOM     22  C   UNL     1      -3.089   2.893  24.411  0.00  0.00    +0.219 C 
ENDROOT
BRANCH  22  18
ATOM      8  N   UNL     1      -6.280   4.249  25.797  0.00  0.00    -0.316 NA
ATOM     18  C   UNL     1      -3.551   3.176  25.813  0.00  0.00    +0.078 C 
ATOM     23  C   UNL     1      -3.850   4.665  25.999  0.00  0.00    +0.028 C 
ATOM     24  C   UNL     1      -4.772   2.323  26.167  0.00  0.00    +0.028 C 
ATOM     26  C   UNL     1      -5.167   5.079  25.339  0.00  0.00    +0.081 C 
ATOM     27  C   UNL     1      -6.049   2.836  25.499  0.00  0.00    +0.081 C 
ATOM     32  H   UNL     1      -7.139   4.554  25.339  0.00  0.00    +0.122 HD
ENDBRANCH  22  18
BRANCH  16  10
ATOM     10  C   UNL     1       2.401  -0.128  22.576  0.00  0.00    +0.075 C 
ATOM     12  C   UNL     1       3.387  -1.277  22.351  0.00  0.00    +0.013 C 
ATOM     13  C   UNL     1       3.097   1.225  22.748  0.00  0.00    +0.013 C 
ATOM     19  C   UNL     1       4.533  -1.288  23.362  0.00  0.00    +0.001 C 
ATOM     20  C   UNL     1       4.259   1.188  23.740  0.00  0.00    +0.001 C 
ATOM     21  C   UNL     1       5.238   0.063  23.428  0.00  0.00    +0.000 C 
ENDBRANCH  16  10
BRANCH  11  25
ATOM      3  O   UNL     1      -1.124  -1.832  23.969  0.00  0.00    -0.274 OA
ATOM      9  N   UNL     1      -2.545  -0.915  25.569  0.00  0.00    -0.301 N 
ATOM     25  C   UNL     1      -1.397  -0.967  24.798  0.00  0.00    +0.236 C 
ATOM     33  H   UNL     1      -2.681  -0.134  26.204  0.00  0.00    +0.150 HD
BRANCH   9  28
ATOM     28  C   UNL     1      -3.595  -1.904  25.491  0.00  0.00    +0.179 C 
ATOM     29  C   UNL     1      -3.084  -3.255  25.966  0.00  0.00    +0.040 C 
BRANCH  28  30
ATOM      5  O   UNL     1      -4.409  -3.099  23.556  0.00  0.00    -0.249 OA
ATOM     30  C   UNL     1      -4.163  -2.019  24.084  0.00  0.00    +0.327 C 
BRANCH  30   4
ATOM      4  O   UNL     1      -4.367  -0.800  23.508  0.00  0.00    -0.467 OA
ATOM     31  C   UNL     1      -5.220   0.095  24.230  0.00  0.00    +0.280 C 
ENDBRANCH  30   4
ENDBRANCH  28  30
ENDBRANCH   9  28
ENDBRANCH  11  25
TORSDOF 6
ENDMDL
MODEL 3
REMARK VINA RESULT:       4.8      1.503      6.724
REMARK  Name = 7663919
REMARK  8 active torsions:
REMARK  status: ('A' for Active; 'I' for Inactive)
REMARK    1  A    between atoms: O_4  and  C_30
REMARK    2  A    between atoms: O_4  and  C_31
REMARK    3  A    between atoms: N_9  and  C_28
REMARK    4  A    between atoms: C_10  and  C_16
REMARK    5  A    between atoms: C_11  and  C_25
REMARK    6  A    between atoms: C_18  and  C_22
REMARK    7  A    between atoms: C_28  and  C_29
REMARK    8  A    between atoms: C_28  and  C_30
REMARK                            x       y       z     vdW  Elec       q    Type
REMARK                         _______ _______ _______ _____ _____    ______ ____
ROOT
ATOM      1  O   UNL     1       2.610   1.274  24.877  0.00  0.00    -0.275 OA
ATOM      2  O   UNL     1      -4.272   2.579  22.670  0.00  0.00    -0.275 OA
ATOM      6  N   UNL     1       0.594   1.581  23.756  0.00  0.00    -0.287 N 
ATOM      7  N   UNL     1      -2.125   2.635  23.560  0.00  0.00    -0.298 N 
ATOM     11  C   UNL     1      -0.005   2.324  24.867  0.00  0.00    +0.179 C 
ATOM     14  C   UNL     1      -1.127   3.266  24.433  0.00  0.00    +0.139 C 
ATOM     15  C   UNL     1      -0.211   1.438  22.537  0.00  0.00    +0.127 C 
ATOM     16  C   UNL     1       1.924   1.159  23.858  0.00  0.00    +0.219 C 
ATOM     17  C   UNL     1      -1.707   1.448  22.817  0.00  0.00    +0.127 C 
ATOM     22  C   UNL     1      -3.431   3.105  23.404  0.00  0.00    +0.219 C 
ENDROOT
BRANCH  22  18
ATOM      8  N   UNL     1      -4.830   3.559  26.836  0.00  0.00    -0.316 NA
ATOM     18  C   UNL     1      -3.800   4.325  24.198  0.00  0.00    +0.078 C 
ATOM     23  C   UNL     1      -5.294   4.329  24.531  0.00  0.00    +0.028 C 
ATOM     24  C   UNL     1      -2.956   4.423  25.471  0.00  0.00    +0.028 C 
ATOM     26  C   UNL     1      -5.643   3.335  25.641  0.00  0.00    +0.081 C 
ATOM     27  C   UNL     1      -3.403   3.426  26.542  0.00  0.00    +0.081 C 
ATOM     32  H   UNL     1      -5.091   2.882  27.552  0.00  0.00    +0.122 HD
ENDBRANCH  22  18
BRANCH  16  10
ATOM     10  C   UNL     1       2.518   0.524  22.634  0.00  0.00    +0.075 C 
ATOM     12  C   UNL     1       2.611  -0.992  22.820  0.00  0.00    +0.013 C 
ATOM     13  C   UNL     1       3.864   1.161  22.283  0.00  0.00    +0.013 C 
ATOM     19  C   UNL     1       3.759  -1.414  23.736  0.00  0.00    +0.001 C 
ATOM     20  C   UNL     1       5.007   0.706  23.190  0.00  0.00    +0.001 C 
ATOM     21  C   UNL     1       5.087  -0.813  23.286  0.00  0.00    +0.000 C 
ENDBRANCH  16  10
BRANCH  11  25
ATOM      3  O   UNL     1      -0.312   1.446  27.068  0.00  0.00    -0.274 OA
ATOM      9  N   UNL     1      -1.113   0.233  25.249  0.00  0.00    -0.301 N 
ATOM     25  C   UNL     1      -0.490   1.308  25.860  0.00  0.00    +0.236 C 
ATOM     33  H   UNL     1      -1.178   0.209  24.236  0.00  0.00    +0.150 HD
BRANCH   9  28
ATOM     28  C   UNL     1      -1.649  -0.891  25.982  0.00  0.00    +0.179 C 
ATOM     29  C   UNL     1      -0.835  -2.144  25.696  0.00  0.00    +0.040 C 
BRANCH  28  30
ATOM      5  O   UNL     1      -3.961  -0.242  25.733  0.00  0.00    -0.249 OA
ATOM     30  C   UNL     1      -3.116  -1.130  25.662  0.00  0.00    +0.327 C 
BRANCH  30   4
ATOM      4  O   UNL     1      -3.361  -2.417  25.285  0.00  0.00    -0.467 OA
ATOM     31  C   UNL     1      -4.034  -2.582  24.033  0.00  0.00    +0.280 C 
ENDBRANCH  30   4
ENDBRANCH  28  30
ENDBRANCH   9  28
ENDBRANCH  11  25
TORSDOF 6
ENDMDL
MODEL 4
REMARK VINA RESULT:       5.5      1.834      5.653
REMARK  Name = 7663919
REMARK  8 active torsions:
REMARK  status: ('A' for Active; 'I' for Inactive)
REMARK    1  A    between atoms: O_4  and  C_30
REMARK    2  A    between atoms: O_4  and  C_31
REMARK    3  A    between atoms: N_9  and  C_28
REMARK    4  A    between atoms: C_10  and  C_16
REMARK    5  A    between atoms: C_11  and  C_25
REMARK    6  A    between atoms: C_18  and  C_22
REMARK    7  A    between atoms: C_28  and  C_29
REMARK    8  A    between atoms: C_28  and  C_30
REMARK                            x       y       z     vdW  Elec       q    Type
REMARK                         _______ _______ _______ _____ _____    ______ ____
ROOT
ATOM      1  O   UNL     1       0.068   3.871  25.484  0.00  0.00    -0.275 OA
ATOM      2  O   UNL     1      -4.872  -1.355  23.997  0.00  0.00    -0.275 OA
ATOM      6  N   UNL     1      -1.809   2.544  25.116  0.00  0.00    -0.287 N 
ATOM      7  N   UNL     1      -3.126  -0.044  24.795  0.00  0.00    -0.298 N 
ATOM     11  C   UNL     1      -1.037   1.300  25.156  0.00  0.00    +0.179 C 
ATOM     14  C   UNL     1      -1.871   0.081  25.547  0.00  0.00    +0.139 C 
ATOM     15  C   UNL     1      -3.263   2.425  24.959  0.00  0.00    +0.127 C 
ATOM     16  C   UNL     1      -1.154   3.758  25.351  0.00  0.00    +0.219 C 
ATOM     17  C   UNL     1      -3.670   1.173  24.196  0.00  0.00    +0.127 C 
ATOM     22  C   UNL     1      -3.817  -1.246  24.627  0.00  0.00    +0.219 C 
ENDROOT
BRANCH  22  18
ATOM      8  N   UNL     1      -1.492  -3.870  23.341  0.00  0.00    -0.316 NA
ATOM     18  C   UNL     1      -3.204  -2.462  25.262  0.00  0.00    +0.078 C 
ATOM     23  C   UNL     1      -3.650  -3.737  24.544  0.00  0.00    +0.028 C 
ATOM     24  C   UNL     1      -1.677  -2.353  25.287  0.00  0.00    +0.028 C 
ATOM     26  C   UNL     1      -2.946  -3.920  23.197  0.00  0.00    +0.081 C 
ATOM     27  C   UNL     1      -1.057  -2.595  23.909  0.00  0.00    +0.081 C 
ATOM     32  H   UNL     1      -1.059  -3.998  22.427  0.00  0.00    +0.122 HD
ENDBRANCH  22  18
BRANCH  16  10
ATOM     10  C   UNL     1      -2.022   4.981  25.430  0.00  0.00    +0.075 C 
ATOM     12  C   UNL     1      -2.978   4.872  26.620  0.00  0.00    +0.013 C 
ATOM     13  C   UNL     1      -2.750   5.225  24.106  0.00  0.00    +0.013 C 
ATOM     19  C   UNL     1      -4.145   3.921  26.365  0.00  0.00    +0.001 C 
ATOM     20  C   UNL     1      -3.933   4.283  23.881  0.00  0.00    +0.001 C 
ATOM     21  C   UNL     1      -4.881   4.265  25.074  0.00  0.00    +0.000 C 
ENDBRANCH  16  10
BRANCH  11  25
ATOM      3  O   UNL     1      -1.036   1.362  22.767  0.00  0.00    -0.274 OA
ATOM      9  N   UNL     1       0.892   0.675  23.877  0.00  0.00    -0.301 N 
ATOM     25  C   UNL     1      -0.413   1.131  23.801  0.00  0.00    +0.236 C 
ATOM     33  H   UNL     1       1.299   0.489  24.789  0.00  0.00    +0.150 HD
BRANCH   9  28
ATOM     28  C   UNL     1       1.706   0.410  22.713  0.00  0.00    +0.179 C 
ATOM     29  C   UNL     1       1.029  -0.615  21.817  0.00  0.00    +0.040 C 
BRANCH  28  30
ATOM      5  O   UNL     1       3.359  -1.232  23.348  0.00  0.00    -0.249 OA
ATOM     30  C   UNL     1       3.102  -0.059  23.093  0.00  0.00    +0.327 C 
BRANCH  30   4
ATOM      4  O   UNL     1       4.006   0.961  23.102  0.00  0.00    -0.467 OA
ATOM     31  C   UNL     1       5.319   0.625  23.564  0.00  0.00    +0.280 C 
ENDBRANCH  30   4
ENDBRANCH  28  30
ENDBRANCH   9  28
ENDBRANCH  11  25
TORSDOF 6
ENDMDL
MODEL 5
REMARK VINA RESULT:       5.6      2.505      7.639
REMARK  Name = 7663919
REMARK  8 active torsions:
REMARK  status: ('A' for Active; 'I' for Inactive)
REMARK    1  A    between atoms: O_4  and  C_30
REMARK    2  A    between atoms: O_4  and  C_31
REMARK    3  A    between atoms: N_9  and  C_28
REMARK    4  A    between atoms: C_10  and  C_16
REMARK    5  A    between atoms: C_11  and  C_25
REMARK    6  A    between atoms: C_18  and  C_22
REMARK    7  A    between atoms: C_28  and  C_29
REMARK    8  A    between atoms: C_28  and  C_30
REMARK                            x       y       z     vdW  Elec       q    Type
REMARK                         _______ _______ _______ _____ _____    ______ ____
ROOT
ATOM      1  O   UNL     1       2.671   1.593  24.189  0.00  0.00    -0.275 OA
ATOM      2  O   UNL     1      -4.511   0.158  23.654  0.00  0.00    -0.275 OA
ATOM      6  N   UNL     1       0.525   0.849  23.680  0.00  0.00    -0.287 N 
ATOM      7  N   UNL     1      -2.386   1.093  23.757  0.00  0.00    -0.298 N 
ATOM     11  C   UNL     1      -0.116   1.956  24.392  0.00  0.00    +0.179 C 
ATOM     14  C   UNL     1      -1.521   2.274  23.882  0.00  0.00    +0.139 C 
ATOM     15  C   UNL     1      -0.354  -0.091  22.974  0.00  0.00    +0.127 C 
ATOM     16  C   UNL     1       1.922   0.809  23.600  0.00  0.00    +0.219 C 
ATOM     17  C   UNL     1      -1.728  -0.204  23.618  0.00  0.00    +0.127 C 
ATOM     22  C   UNL     1      -3.781   1.147  23.761  0.00  0.00    +0.219 C 
ENDROOT
BRANCH  22  18
ATOM      8  N   UNL     1      -5.037   3.040  26.725  0.00  0.00    -0.316 NA
ATOM     18  C   UNL     1      -4.396   2.509  23.912  0.00  0.00    +0.078 C 
ATOM     23  C   UNL     1      -5.819   2.408  24.464  0.00  0.00    +0.028 C 
ATOM     24  C   UNL     1      -3.527   3.404  24.798  0.00  0.00    +0.028 C 
ATOM     26  C   UNL     1      -5.839   2.086  25.960  0.00  0.00    +0.081 C 
ATOM     27  C   UNL     1      -3.643   3.040  26.280  0.00  0.00    +0.081 C 
ATOM     32  H   UNL     1      -5.075   2.796  27.714  0.00  0.00    +0.122 HD
ENDBRANCH  22  18
BRANCH  16  10
ATOM     10  C   UNL     1       2.511  -0.275  22.744  0.00  0.00    +0.075 C 
ATOM     12  C   UNL     1       3.199  -1.324  23.620  0.00  0.00    +0.013 C 
ATOM     13  C   UNL     1       3.442   0.311  21.680  0.00  0.00    +0.013 C 
ATOM     19  C   UNL     1       4.550  -0.859  24.160  0.00  0.00    +0.001 C 
ATOM     20  C   UNL     1       4.800   0.744  22.232  0.00  0.00    +0.001 C 
ATOM     21  C   UNL     1       5.463  -0.363  23.043  0.00  0.00    +0.000 C 
ENDBRANCH  16  10
BRANCH  11  25
ATOM      3  O   UNL     1      -0.790   0.649  26.275  0.00  0.00    -0.274 OA
ATOM      9  N   UNL     1       0.661   2.439  26.608  0.00  0.00    -0.301 N 
ATOM     25  C   UNL     1      -0.126   1.591  25.848  0.00  0.00    +0.236 C 
ATOM     33  H   UNL     1       1.146   3.206  26.151  0.00  0.00    +0.150 HD
BRANCH   9  28
ATOM     28  C   UNL     1       0.804   2.315  28.040  0.00  0.00    +0.179 C 
ATOM     29  C   UNL     1      -0.371   2.973  28.747  0.00  0.00    +0.040 C 
BRANCH  28  30
ATOM      5  O   UNL     1       3.011   3.257  27.771  0.00  0.00    -0.249 OA
ATOM     30  C   UNL     1       2.115   2.906  28.533  0.00  0.00    +0.327 C 
BRANCH  30   4
ATOM      4  O   UNL     1       2.162   3.000  29.892  0.00  0.00    -0.467 OA
ATOM     31  C   UNL     1       2.221   1.758  30.602  0.00  0.00    +0.280 C 
ENDBRANCH  30   4
ENDBRANCH  28  30
ENDBRANCH   9  28
ENDBRANCH  11  25
TORSDOF 6
ENDMDL
MODEL 6
REMARK VINA RESULT:       6.0      1.855      6.724
REMARK  Name = 7663919
REMARK  8 active torsions:
REMARK  status: ('A' for Active; 'I' for Inactive)
REMARK    1  A    between atoms: O_4  and  C_30
REMARK    2  A    between atoms: O_4  and  C_31
REMARK    3  A    between atoms: N_9  and  C_28
REMARK    4  A    between atoms: C_10  and  C_16
REMARK    5  A    between atoms: C_11  and  C_25
REMARK    6  A    between atoms: C_18  and  C_22
REMARK    7  A    between atoms: C_28  and  C_29
REMARK    8  A    between atoms: C_28  and  C_30
REMARK                            x       y       z     vdW  Elec       q    Type
REMARK                         _______ _______ _______ _____ _____    ______ ____
ROOT
ATOM      1  O   UNL     1       1.645  -0.712  23.828  0.00  0.00    -0.275 OA
ATOM      2  O   UNL     1      -2.372   5.411  24.379  0.00  0.00    -0.275 OA
ATOM      6  N   UNL     1       0.756   1.438  23.846  0.00  0.00    -0.287 N 
ATOM      7  N   UNL     1      -1.223   3.415  24.695  0.00  0.00    -0.298 N 
ATOM     11  C   UNL     1      -0.366   1.056  24.706  0.00  0.00    +0.179 C 
ATOM     14  C   UNL     1      -0.944   2.223  25.506  0.00  0.00    +0.139 C 
ATOM     15  C   UNL     1       0.863   2.855  23.477  0.00  0.00    +0.127 C 
ATOM     16  C   UNL     1       1.724   0.481  23.524  0.00  0.00    +0.219 C 
ATOM     17  C   UNL     1      -0.488   3.555  23.438  0.00  0.00    +0.127 C 
ATOM     22  C   UNL     1      -2.136   4.407  25.057  0.00  0.00    +0.219 C 
ENDROOT
BRANCH  22  18
ATOM      8  N   UNL     1      -5.705   3.667  25.870  0.00  0.00    -0.316 NA
ATOM     18  C   UNL     1      -2.862   4.203  26.356  0.00  0.00    +0.078 C 
ATOM     23  C   UNL     1      -3.945   5.267  26.550  0.00  0.00    +0.028 C 
ATOM     24  C   UNL     1      -3.458   2.795  26.432  0.00  0.00    +0.028 C 
ATOM     26  C   UNL     1      -5.171   5.013  25.670  0.00  0.00    +0.081 C 
ATOM     27  C   UNL     1      -4.705   2.646  25.558  0.00  0.00    +0.081 C 
ATOM     32  H   UNL     1      -6.519   3.535  25.271  0.00  0.00    +0.122 HD
ENDBRANCH  22  18
BRANCH  16  10
ATOM     10  C   UNL     1       2.916   0.970  22.752  0.00  0.00    +0.075 C 
ATOM     12  C   UNL     1       3.485  -0.158  21.890  0.00  0.00    +0.013 C 
ATOM     13  C   UNL     1       3.960   1.586  23.686  0.00  0.00    +0.013 C 
ATOM     19  C   UNL     1       4.283  -1.182  22.694  0.00  0.00    +0.001 C 
ATOM     20  C   UNL     1       4.770   0.547  24.461  0.00  0.00    +0.001 C 
ATOM     21  C   UNL     1       5.362  -0.515  23.542  0.00  0.00    +0.000 C 
ENDBRANCH  16  10
BRANCH  11  25
ATOM      3  O   UNL     1      -1.250   0.347  22.603  0.00  0.00    -0.274 OA
ATOM      9  N   UNL     1      -2.506  -0.009  24.531  0.00  0.00    -0.301 N 
ATOM     25  C   UNL     1      -1.401   0.426  23.820  0.00  0.00    +0.236 C 
ATOM     33  H   UNL     1      -2.537   0.135  25.535  0.00  0.00    +0.150 HD
BRANCH   9  28
ATOM     28  C   UNL     1      -3.653  -0.630  23.908  0.00  0.00    +0.179 C 
ATOM     29  C   UNL     1      -4.937   0.020  24.398  0.00  0.00    +0.040 C 
BRANCH  28  30
ATOM      5  O   UNL     1      -4.457  -2.880  23.561  0.00  0.00    -0.249 OA
ATOM     30  C   UNL     1      -3.690  -2.130  24.157  0.00  0.00    +0.327 C 
BRANCH  30   4
ATOM      4  O   UNL     1      -2.781  -2.521  25.093  0.00  0.00    -0.467 OA
ATOM     31  C   UNL     1      -1.495  -2.902  24.592  0.00  0.00    +0.280 C 
ENDBRANCH  30   4
ENDBRANCH  28  30
ENDBRANCH   9  28
ENDBRANCH  11  25
TORSDOF 6
ENDMDL
MODEL 7
REMARK VINA RESULT:       6.3      1.847      4.140
REMARK  Name = 7663919
REMARK  8 active torsions:
REMARK  status: ('A' for Active; 'I' for Inactive)
REMARK    1  A    between atoms: O_4  and  C_30
REMARK    2  A    between atoms: O_4  and  C_31
REMARK    3  A    between atoms: N_9  and  C_28
REMARK    4  A    between atoms: C_10  and  C_16
REMARK    5  A    between atoms: C_11  and  C_25
REMARK    6  A    between atoms: C_18  and  C_22
REMARK    7  A    between atoms: C_28  and  C_29
REMARK    8  A    between atoms: C_28  and  C_30
REMARK                            x       y       z     vdW  Elec       q    Type
REMARK                         _______ _______ _______ _____ _____    ______ ____
ROOT
ATOM      1  O   UNL     1      -1.871   0.739  26.531  0.00  0.00    -0.275 OA
ATOM      2  O   UNL     1       3.060  -0.043  21.147  0.00  0.00    -0.275 OA
ATOM      6  N   UNL     1      -0.484   0.062  24.790  0.00  0.00    -0.287 N 
ATOM      7  N   UNL     1       1.905   0.333  23.128  0.00  0.00    -0.298 N 
ATOM     11  C   UNL     1       0.454   1.167  24.999  0.00  0.00    +0.179 C 
ATOM     14  C   UNL     1       1.865   0.869  24.495  0.00  0.00    +0.139 C 
ATOM     15  C   UNL     1      -0.143  -0.917  23.751  0.00  0.00    +0.127 C 
ATOM     16  C   UNL     1      -1.575  -0.077  25.655  0.00  0.00    +0.219 C 
ATOM     17  C   UNL     1       0.693  -0.316  22.631  0.00  0.00    +0.127 C 
ATOM     22  C   UNL     1       3.022   0.408  22.295  0.00  0.00    +0.219 C 
ENDROOT
BRANCH  22  18
ATOM      8  N   UNL     1       6.255  -0.886  23.642  0.00  0.00    -0.316 NA
ATOM     18  C   UNL     1       4.234   1.091  22.863  0.00  0.00    +0.078 C 
ATOM     23  C   UNL     1       4.462   0.677  24.318  0.00  0.00    +0.028 C 
ATOM     24  C   UNL     1       5.472   0.802  22.011  0.00  0.00    +0.028 C 
ATOM     26  C   UNL     1       5.037  -0.736  24.436  0.00  0.00    +0.081 C 
ATOM     27  C   UNL     1       6.005  -0.616  22.226  0.00  0.00    +0.081 C 
ATOM     32  H   UNL     1       6.610  -1.836  23.746  0.00  0.00    +0.122 HD
ENDBRANCH  22  18
BRANCH  16  10
ATOM     10  C   UNL     1      -2.421  -1.304  25.471  0.00  0.00    +0.075 C 
ATOM     12  C   UNL     1      -2.623  -1.586  23.980  0.00  0.00    +0.013 C 
ATOM     13  C   UNL     1      -3.741  -1.181  26.235  0.00  0.00    +0.013 C 
ATOM     19  C   UNL     1      -3.638  -0.649  23.327  0.00  0.00    +0.001 C 
ATOM     20  C   UNL     1      -4.755  -0.263  25.552  0.00  0.00    +0.001 C 
ATOM     21  C   UNL     1      -4.960  -0.633  24.088  0.00  0.00    +0.000 C 
ENDBRANCH  16  10
BRANCH  11  25
ATOM      3  O   UNL     1       0.474   2.979  23.442  0.00  0.00    -0.274 OA
ATOM      9  N   UNL     1      -1.381   2.699  24.821  0.00  0.00    -0.301 N 
ATOM     25  C   UNL     1      -0.132   2.372  24.321  0.00  0.00    +0.236 C 
ATOM     33  H   UNL     1      -1.776   2.141  25.572  0.00  0.00    +0.150 HD
BRANCH   9  28
ATOM     28  C   UNL     1      -2.149   3.830  24.352  0.00  0.00    +0.179 C 
ATOM     29  C   UNL     1      -1.877   5.049  25.219  0.00  0.00    +0.040 C 
BRANCH  28  30
ATOM      5  O   UNL     1      -4.185   3.003  23.350  0.00  0.00    -0.249 OA
ATOM     30  C   UNL     1      -3.639   3.528  24.316  0.00  0.00    +0.327 C 
BRANCH  30   4
ATOM      4  O   UNL     1      -4.269   3.897  25.467  0.00  0.00    -0.467 OA
ATOM     31  C   UNL     1      -5.540   3.284  25.705  0.00  0.00    +0.280 C 
ENDBRANCH  30   4
ENDBRANCH  28  30
ENDBRANCH   9  28
ENDBRANCH  11  25
TORSDOF 6
ENDMDL
MODEL 8
REMARK VINA RESULT:       6.9      2.097      3.578
REMARK  Name = 7663919
REMARK  8 active torsions:
REMARK  status: ('A' for Active; 'I' for Inactive)
REMARK    1  A    between atoms: O_4  and  C_30
REMARK    2  A    between atoms: O_4  and  C_31
REMARK    3  A    between atoms: N_9  and  C_28
REMARK    4  A    between atoms: C_10  and  C_16
REMARK    5  A    between atoms: C_11  and  C_25
REMARK    6  A    between atoms: C_18  and  C_22
REMARK    7  A    between atoms: C_28  and  C_29
REMARK    8  A    between atoms: C_28  and  C_30
REMARK                            x       y       z     vdW  Elec       q    Type
REMARK                         _______ _______ _______ _____ _____    ______ ____
ROOT
ATOM      1  O   UNL     1      -4.072  -0.079  25.080  0.00  0.00    -0.275 OA
ATOM      2  O   UNL     1       2.630   2.025  22.939  0.00  0.00    -0.275 OA
ATOM      6  N   UNL     1      -2.180   0.886  24.131  0.00  0.00    -0.287 N 
ATOM      7  N   UNL     1       0.668   0.899  23.474  0.00  0.00    -0.298 N 
ATOM     11  C   UNL     1      -1.305  -0.205  24.565  0.00  0.00    +0.179 C 
ATOM     14  C   UNL     1      -0.054  -0.360  23.702  0.00  0.00    +0.139 C 
ATOM     15  C   UNL     1      -1.573   1.947  23.318  0.00  0.00    +0.127 C 
ATOM     16  C   UNL     1      -3.551   0.807  24.398  0.00  0.00    +0.219 C 
ATOM     17  C   UNL     1      -0.092   2.139  23.614  0.00  0.00    +0.127 C 
ATOM     22  C   UNL     1       2.020   0.970  23.133  0.00  0.00    +0.219 C 
ENDROOT
BRANCH  22  18
ATOM      8  N   UNL     1       5.648   0.092  23.035  0.00  0.00    -0.316 NA
ATOM     18  C   UNL     1       2.747  -0.339  23.009  0.00  0.00    +0.078 C 
ATOM     23  C   UNL     1       3.595  -0.374  21.735  0.00  0.00    +0.028 C 
ATOM     24  C   UNL     1       3.607  -0.605  24.246  0.00  0.00    +0.028 C 
ATOM     26  C   UNL     1       4.864   0.472  21.861  0.00  0.00    +0.081 C 
ATOM     27  C   UNL     1       4.875   0.251  24.266  0.00  0.00    +0.081 C 
ATOM     32  H   UNL     1       6.484   0.673  23.084  0.00  0.00    +0.122 HD
ENDBRANCH  22  18
BRANCH  16  10
ATOM     10  C   UNL     1      -4.409   1.889  23.810  0.00  0.00    +0.075 C 
ATOM     12  C   UNL     1      -3.719   3.247  23.955  0.00  0.00    +0.013 C 
ATOM     13  C   UNL     1      -5.813   1.869  24.421  0.00  0.00    +0.013 C 
ATOM     19  C   UNL     1      -3.790   3.806  25.375  0.00  0.00    +0.001 C 
ATOM     20  C   UNL     1      -5.870   2.459  25.830  0.00  0.00    +0.001 C 
ATOM     21  C   UNL     1      -5.223   3.837  25.897  0.00  0.00    +0.000 C 
ENDBRANCH  16  10
BRANCH  11  25
ATOM      3  O   UNL     1      -0.853  -0.849  26.821  0.00  0.00    -0.274 OA
ATOM      9  N   UNL     1      -0.800   1.411  26.262  0.00  0.00    -0.301 N 
ATOM     25  C   UNL     1      -0.957   0.060  26.001  0.00  0.00    +0.236 C 
ATOM     33  H   UNL     1      -0.938   2.080  25.511  0.00  0.00    +0.150 HD
BRANCH   9  28
ATOM     28  C   UNL     1      -0.484   1.931  27.573  0.00  0.00    +0.179 C 
ATOM     29  C   UNL     1      -1.459   3.035  27.951  0.00  0.00    +0.040 C 
BRANCH  28  30
ATOM      5  O   UNL     1       1.539   2.902  26.680  0.00  0.00    -0.249 OA
ATOM     30  C   UNL     1       0.947   2.440  27.651  0.00  0.00    +0.327 C 
BRANCH  30   4
ATOM      4  O   UNL     1       1.467   2.329  28.906  0.00  0.00    -0.467 OA
ATOM     31  C   UNL     1       2.732   2.965  29.115  0.00  0.00    +0.280 C 
ENDBRANCH  30   4
ENDBRANCH  28  30
ENDBRANCH   9  28
ENDBRANCH  11  25
TORSDOF 6
ENDMDL
MODEL 9
REMARK VINA RESULT:       7.2      2.012      7.327
REMARK  Name = 7663919
REMARK  8 active torsions:
REMARK  status: ('A' for Active; 'I' for Inactive)
REMARK    1  A    between atoms: O_4  and  C_30
REMARK    2  A    between atoms: O_4  and  C_31
REMARK    3  A    between atoms: N_9  and  C_28
REMARK    4  A    between atoms: C_10  and  C_16
REMARK    5  A    between atoms: C_11  and  C_25
REMARK    6  A    between atoms: C_18  and  C_22
REMARK    7  A    between atoms: C_28  and  C_29
REMARK    8  A    between atoms: C_28  and  C_30
REMARK                            x       y       z     vdW  Elec       q    Type
REMARK                         _______ _______ _______ _____ _____    ______ ____
ROOT
ATOM      1  O   UNL     1       2.915   1.469  22.608  0.00  0.00    -0.275 OA
ATOM      2  O   UNL     1      -3.218  -1.699  25.113  0.00  0.00    -0.275 OA
ATOM      6  N   UNL     1       1.203   0.068  23.328  0.00  0.00    -0.287 N 
ATOM      7  N   UNL     1      -1.592  -0.476  23.989  0.00  0.00    -0.298 N 
ATOM     11  C   UNL     1       0.192   1.124  23.242  0.00  0.00    +0.179 C 
ATOM     14  C   UNL     1      -1.227   0.592  23.049  0.00  0.00    +0.139 C 
ATOM     15  C   UNL     1       0.739  -1.272  23.710  0.00  0.00    +0.127 C 
ATOM     16  C   UNL     1       2.514   0.347  22.930  0.00  0.00    +0.219 C 
ATOM     17  C   UNL     1      -0.499  -1.234  24.594  0.00  0.00    +0.127 C 
ATOM     22  C   UNL     1      -2.907  -0.801  24.326  0.00  0.00    +0.219 C 
ENDROOT
BRANCH  22  18
ATOM      8  N   UNL     1      -5.173   1.876  25.607  0.00  0.00    -0.316 NA
ATOM     18  C   UNL     1      -3.985   0.018  23.673  0.00  0.00    +0.078 C 
ATOM     23  C   UNL     1      -5.341  -0.239  24.334  0.00  0.00    +0.028 C 
ATOM     24  C   UNL     1      -3.633   1.507  23.706  0.00  0.00    +0.028 C 
ATOM     26  C   UNL     1      -5.460   0.445  25.698  0.00  0.00    +0.081 C 
ATOM     27  C   UNL     1      -3.824   2.117  25.096  0.00  0.00    +0.081 C 
ATOM     32  H   UNL     1      -5.264   2.298  26.531  0.00  0.00    +0.122 HD
ENDBRANCH  22  18
BRANCH  16  10
ATOM     10  C   UNL     1       3.469  -0.812  22.915  0.00  0.00    +0.075 C 
ATOM     12  C   UNL     1       3.971  -1.099  24.331  0.00  0.00    +0.013 C 
ATOM     13  C   UNL     1       4.606  -0.574  21.920  0.00  0.00    +0.013 C 
ATOM     19  C   UNL     1       5.019  -0.096  24.810  0.00  0.00    +0.001 C 
ATOM     20  C   UNL     1       5.661   0.410  22.426  0.00  0.00    +0.001 C 
ATOM     21  C   UNL     1       6.167   0.036  23.814  0.00  0.00    +0.000 C 
ENDBRANCH  16  10
BRANCH  11  25
ATOM      3  O   UNL     1       1.169   1.713  25.341  0.00  0.00    -0.274 OA
ATOM      9  N   UNL     1      -0.656   2.933  24.566  0.00  0.00    -0.301 N 
ATOM     25  C   UNL     1       0.309   1.944  24.494  0.00  0.00    +0.236 C 
ATOM     33  H   UNL     1      -1.338   3.015  23.818  0.00  0.00    +0.150 HD
BRANCH   9  28
ATOM     28  C   UNL     1      -0.773   3.844  25.682  0.00  0.00    +0.179 C 
ATOM     29  C   UNL     1      -0.697   3.082  26.996  0.00  0.00    +0.040 C 
BRANCH  28  30
ATOM      5  O   UNL     1      -2.845   4.727  26.554  0.00  0.00    -0.249 OA
ATOM     30  C   UNL     1      -2.056   4.659  25.617  0.00  0.00    +0.327 C 
BRANCH  30   4
ATOM      4  O   UNL     1      -2.204   5.295  24.420  0.00  0.00    -0.467 OA
ATOM     31  C   UNL     1      -3.466   5.112  23.770  0.00  0.00    +0.280 C 
ENDBRANCH  30   4
ENDBRANCH  28  30
ENDBRANCH   9  28
ENDBRANCH  11  25
TORSDOF 6
ENDMDL
