MODEL 1
REMARK VINA RESULT:      -0.9      0.000      0.000
REMARK  Name = 45361515
REMARK  10 active torsions:
REMARK  status: ('A' for Active; 'I' for Inactive)
REMARK    1  A    between atoms: O_1  and  C_9
REMARK    2  A    between atoms: N_4  and  C_13
REMARK    3  A    between atoms: N_5  and  C_22
REMARK    4  A    between atoms: C_6  and  C_16
REMARK    5  A    between atoms: C_8  and  C_18
REMARK    6  A    between atoms: C_11  and  C_17
REMARK    7  A    between atoms: C_17  and  C_19
REMARK    8  A    between atoms: C_17  and  C_20
REMARK    9  A    between atoms: C_21  and  C_23
REMARK   10  A    between atoms: C_23  and  C_29
REMARK                            x       y       z     vdW  Elec       q    Type
REMARK                         _______ _______ _______ _____ _____    ______ ____
ROOT
ATOM      6  C   UNL     1      -2.200  -0.788  25.337  0.00  0.00    -0.027 C 
ATOM      7  C   UNL     1      -2.390   0.238  24.171  0.00  0.00    +0.028 C 
ATOM      8  C   UNL     1      -1.003   0.797  23.688  0.00  0.00    +0.012 C 
ATOM      9  C   UNL     1      -3.454   1.313  24.535  0.00  0.00    +0.122 C 
ATOM     10  C   UNL     1      -3.570  -1.403  25.712  0.00  0.00    +0.007 C 
ATOM     11  C   UNL     1      -4.789   0.692  25.009  0.00  0.00    +0.029 C 
ATOM     12  C   UNL     1      -1.286  -1.938  24.853  0.00  0.00    +0.009 C 
ATOM     13  C   UNL     1      -0.066  -0.373  23.275  0.00  0.00    +0.076 C 
ATOM     14  C   UNL     1      -4.603  -0.355  26.106  0.00  0.00    +0.007 C 
ATOM     15  C   UNL     1       0.065  -1.454  24.347  0.00  0.00    +0.023 C 
ATOM     16  C   UNL     1      -1.581  -0.143  26.603  0.00  0.00    +0.011 C 
ATOM     18  C   UNL     1      -1.114   1.793  22.521  0.00  0.00    +0.010 C 
ENDROOT
BRANCH  13   4
ATOM      3  O   UNL     1       1.298  -0.732  20.767  0.00  0.00    -0.275 OA
ATOM      4  N   UNL     1       1.260   0.098  22.934  0.00  0.00    -0.312 N 
ATOM     21  C   UNL     1       1.833  -0.126  21.692  0.00  0.00    +0.218 C 
ATOM     35  H   UNL     1       1.801   0.553  23.664  0.00  0.00    +0.149 HD
BRANCH  21  23
ATOM     23  C   UNL     1       3.220   0.479  21.605  0.00  0.00    +0.130 C 
BRANCH  23  29
ATOM     29  C   UNL     1       4.137   0.031  22.712  0.00  0.00    -0.039 A 
ATOM     30  C   UNL     1       4.088  -1.287  23.167  0.00  0.00    +0.004 A 
ATOM     31  C   UNL     1       5.035   0.933  23.282  0.00  0.00    +0.004 A 
ATOM     32  C   UNL     1       4.937  -1.702  24.193  0.00  0.00    +0.000 A 
ATOM     33  C   UNL     1       5.885   0.517  24.308  0.00  0.00    +0.000 A 
ATOM     34  C   UNL     1       5.836  -0.801  24.763  0.00  0.00    +0.000 A 
ENDBRANCH  23  29
ENDBRANCH  21  23
ENDBRANCH  13   4
BRANCH   9   1
ATOM      1  O   UNL     1      -3.755   2.095  23.378  0.00  0.00    -0.391 OA
ATOM     36  H   UNL     1      -3.523   3.019  23.569  0.00  0.00    +0.210 HD
ENDBRANCH   9   1
BRANCH  11  17
ATOM     17  C   UNL     1      -5.778   1.765  25.484  0.00  0.00    +0.077 C 
ATOM     19  C   UNL     1      -6.915   1.911  24.480  0.00  0.00    +0.017 C 
BRANCH  17  20
ATOM      2  O   UNL     1      -5.487   4.161  25.287  0.00  0.00    -0.276 OA
ATOM      5  N   UNL     1      -3.854   2.933  26.384  0.00  0.00    -0.312 N 
ATOM     20  C   UNL     1      -5.047   3.087  25.694  0.00  0.00    +0.216 C 
ATOM     37  H   UNL     1      -3.577   2.009  26.700  0.00  0.00    +0.149 HD
BRANCH   5  22
ATOM     22  C   UNL     1      -2.984   4.043  26.702  0.00  0.00    +0.073 C 
ATOM     24  C   UNL     1      -2.892   5.024  25.528  0.00  0.00    +0.022 C 
ATOM     25  C   UNL     1      -1.596   3.551  27.126  0.00  0.00    +0.022 C 
ATOM     26  C   UNL     1      -2.084   4.463  24.359  0.00  0.00    +0.002 C 
ATOM     27  C   UNL     1      -0.790   2.993  25.952  0.00  0.00    +0.002 C 
ATOM     28  C   UNL     1      -0.703   3.991  24.803  0.00  0.00    +0.000 C 
ENDBRANCH   5  22
ENDBRANCH  17  20
ENDBRANCH  11  17
TORSDOF 7
ENDMDL
MODEL 2
REMARK VINA RESULT:       2.9      1.195      1.512
REMARK  Name = 45361515
REMARK  10 active torsions:
REMARK  status: ('A' for Active; 'I' for Inactive)
REMARK    1  A    between atoms: O_1  and  C_9
REMARK    2  A    between atoms: N_4  and  C_13
REMARK    3  A    between atoms: N_5  and  C_22
REMARK    4  A    between atoms: C_6  and  C_16
REMARK    5  A    between atoms: C_8  and  C_18
REMARK    6  A    between atoms: C_11  and  C_17
REMARK    7  A    between atoms: C_17  and  C_19
REMARK    8  A    between atoms: C_17  and  C_20
REMARK    9  A    between atoms: C_21  and  C_23
REMARK   10  A    between atoms: C_23  and  C_29
REMARK                            x       y       z     vdW  Elec       q    Type
REMARK                         _______ _______ _______ _____ _____    ______ ____
ROOT
ATOM      6  C   UNL     1      -2.961  -0.543  24.940  0.00  0.00    -0.027 C 
ATOM      7  C   UNL     1      -2.971   0.564  23.834  0.00  0.00    +0.028 C 
ATOM      8  C   UNL     1      -1.561   0.682  23.149  0.00  0.00    +0.012 C 
ATOM      9  C   UNL     1      -3.564   1.897  24.376  0.00  0.00    +0.122 C 
ATOM     10  C   UNL     1      -4.388  -0.710  25.516  0.00  0.00    +0.007 C 
ATOM     11  C   UNL     1      -4.945   1.705  25.044  0.00  0.00    +0.029 C 
ATOM     12  C   UNL     1      -2.550  -1.890  24.302  0.00  0.00    +0.009 C 
ATOM     13  C   UNL     1      -1.126  -0.697  22.577  0.00  0.00    +0.076 C 
ATOM     14  C   UNL     1      -4.956   0.585  26.082  0.00  0.00    +0.007 C 
ATOM     15  C   UNL     1      -1.202  -1.831  23.599  0.00  0.00    +0.023 C 
ATOM     16  C   UNL     1      -1.992  -0.212  26.104  0.00  0.00    +0.011 C 
ATOM     18  C   UNL     1      -1.508   1.734  22.029  0.00  0.00    +0.010 C 
ENDROOT
BRANCH  13   4
ATOM      3  O   UNL     1       1.188   0.476  23.821  0.00  0.00    -0.275 OA
ATOM      4  N   UNL     1       0.218  -0.653  22.040  0.00  0.00    -0.312 N 
ATOM     21  C   UNL     1       1.272  -0.063  22.720  0.00  0.00    +0.218 C 
ATOM     35  H   UNL     1       0.365  -1.018  21.103  0.00  0.00    +0.149 HD
BRANCH  21  23
ATOM     23  C   UNL     1       2.565  -0.164  21.934  0.00  0.00    +0.130 C 
BRANCH  23  29
ATOM     29  C   UNL     1       3.791  -0.211  22.806  0.00  0.00    -0.039 A 
ATOM     30  C   UNL     1       4.562   0.938  22.986  0.00  0.00    +0.004 A 
ATOM     31  C   UNL     1       4.156  -1.402  23.433  0.00  0.00    +0.004 A 
ATOM     32  C   UNL     1       5.698   0.895  23.794  0.00  0.00    +0.000 A 
ATOM     33  C   UNL     1       5.293  -1.445  24.241  0.00  0.00    +0.000 A 
ATOM     34  C   UNL     1       6.064  -0.296  24.422  0.00  0.00    +0.000 A 
ENDBRANCH  23  29
ENDBRANCH  21  23
ENDBRANCH  13   4
BRANCH   9   1
ATOM      1  O   UNL     1      -3.755   2.808  23.292  0.00  0.00    -0.391 OA
ATOM     36  H   UNL     1      -4.689   3.077  23.286  0.00  0.00    +0.210 HD
ENDBRANCH   9   1
BRANCH  11  17
ATOM     17  C   UNL     1      -5.452   3.004  25.684  0.00  0.00    +0.077 C 
ATOM     19  C   UNL     1      -6.060   3.911  24.620  0.00  0.00    +0.017 C 
BRANCH  17  20
ATOM      2  O   UNL     1      -4.392   4.041  27.599  0.00  0.00    -0.276 OA
ATOM      5  N   UNL     1      -3.198   3.892  25.616  0.00  0.00    -0.312 N 
ATOM     20  C   UNL     1      -4.312   3.699  26.421  0.00  0.00    +0.216 C 
ATOM     37  H   UNL     1      -3.212   3.559  24.658  0.00  0.00    +0.149 HD
BRANCH   5  22
ATOM     22  C   UNL     1      -1.991   4.531  26.090  0.00  0.00    +0.073 C 
ATOM     24  C   UNL     1      -1.274   5.266  24.952  0.00  0.00    +0.022 C 
ATOM     25  C   UNL     1      -1.063   3.520  26.771  0.00  0.00    +0.022 C 
ATOM     26  C   UNL     1      -0.618   4.306  23.959  0.00  0.00    +0.002 C 
ATOM     27  C   UNL     1      -0.407   2.564  25.774  0.00  0.00    +0.002 C 
ATOM     28  C   UNL     1       0.309   3.318  24.659  0.00  0.00    +0.000 C 
ENDBRANCH   5  22
ENDBRANCH  17  20
ENDBRANCH  11  17
TORSDOF 7
ENDMDL
