MODEL 1
REMARK VINA RESULT:      11.7      0.000      0.000
REMARK  Name = 7142629
REMARK  4 active torsions:
REMARK  status: ('A' for Active; 'I' for Inactive)
REMARK    1  A    between atoms: O_5  and  C_24
REMARK    2  A    between atoms: O_5  and  C_29
REMARK    3  A    between atoms: C_17  and  C_21
REMARK    4  A    between atoms: C_20  and  C_23
REMARK                            x       y       z     vdW  Elec       q    Type
REMARK                         _______ _______ _______ _____ _____    ______ ____
ROOT
ATOM      2  O   UNL     1      -4.362  -0.176  25.922  0.00  0.00    -0.273 OA
ATOM      3  O   UNL     1      -0.182   3.015  25.387  0.00  0.00    -0.270 OA
ATOM      4  O   UNL     1      -7.358   1.944  24.469  0.00  0.00    -0.276 OA
ATOM      6  N   UNL     1      -2.331   2.252  25.002  0.00  0.00    -0.283 N 
ATOM      7  N   UNL     1      -5.215   2.575  25.109  0.00  0.00    -0.298 N 
ATOM      8  N   UNL     1      -2.177  -0.659  25.509  0.00  0.00    -0.283 N 
ATOM      9  C   UNL     1      -3.207   1.273  24.374  0.00  0.00    +0.180 C 
ATOM     10  C   UNL     1      -4.576   1.855  24.002  0.00  0.00    +0.139 C 
ATOM     11  C   UNL     1      -2.938   3.507  25.446  0.00  0.00    +0.128 C 
ATOM     12  C   UNL     1      -4.328   3.293  26.028  0.00  0.00    +0.127 C 
ATOM     13  C   UNL     1      -3.307   0.115  25.355  0.00  0.00    +0.239 C 
ATOM     14  C   UNL     1      -0.947   2.116  25.034  0.00  0.00    +0.249 C 
ATOM     15  C   UNL     1      -0.343   0.812  24.650  0.00  0.00    +0.059 A 
ATOM     16  C   UNL     1      -0.890  -0.440  24.975  0.00  0.00    +0.046 A 
ATOM     17  C   UNL     1      -6.604   2.545  25.237  0.00  0.00    +0.213 C 
ATOM     18  C   UNL     1       0.945   0.875  24.085  0.00  0.00    +0.023 A 
ATOM     19  C   UNL     1      -0.106  -1.593  24.791  0.00  0.00    +0.024 A 
ATOM     20  C   UNL     1       1.688  -0.283  23.863  0.00  0.00    -0.014 A 
ATOM     21  C   UNL     1      -7.181   3.315  26.400  0.00  0.00    +0.109 C 
ATOM     22  C   UNL     1       1.168  -1.517  24.229  0.00  0.00    +0.010 A 
ATOM     30  H   UNL     1      -2.317  -1.547  25.985  0.00  0.00    +0.155 HD
ENDROOT
BRANCH  20  23
ATOM      1 CL   UNL     1       6.791  -0.507  24.546  0.00  0.00    -0.084 Cl
ATOM     23  C   UNL     1       3.007  -0.197  23.276  0.00  0.00    +0.025 A 
ATOM     24  C   UNL     1       3.171   0.055  21.913  0.00  0.00    +0.128 A 
ATOM     25  C   UNL     1       4.128  -0.371  24.090  0.00  0.00    +0.032 A 
ATOM     26  C   UNL     1       4.451   0.134  21.365  0.00  0.00    +0.047 A 
ATOM     27  C   UNL     1       5.409  -0.293  23.541  0.00  0.00    +0.042 A 
ATOM     28  C   UNL     1       5.570  -0.039  22.179  0.00  0.00    +0.023 A 
BRANCH  24   5
ATOM      5  O   UNL     1       2.094   0.229  21.093  0.00  0.00    -0.495 OA
ATOM     29  C   UNL     1       1.143  -0.831  21.041  0.00  0.00    +0.277 C 
ENDBRANCH  24   5
ENDBRANCH  20  23
TORSDOF 2
ENDMDL
MODEL 2
REMARK VINA RESULT:      15.1      3.495      8.509
REMARK  Name = 7142629
REMARK  4 active torsions:
REMARK  status: ('A' for Active; 'I' for Inactive)
REMARK    1  A    between atoms: O_5  and  C_24
REMARK    2  A    between atoms: O_5  and  C_29
REMARK    3  A    between atoms: C_17  and  C_21
REMARK    4  A    between atoms: C_20  and  C_23
REMARK                            x       y       z     vdW  Elec       q    Type
REMARK                         _______ _______ _______ _____ _____    ______ ____
ROOT
ATOM      2  O   UNL     1       2.365  -0.673  21.205  0.00  0.00    -0.273 OA
ATOM      3  O   UNL     1       0.671   2.978  24.631  0.00  0.00    -0.270 OA
ATOM      4  O   UNL     1       5.472  -2.297  23.018  0.00  0.00    -0.276 OA
ATOM      6  N   UNL     1       1.835   1.108  23.927  0.00  0.00    -0.283 N 
ATOM      7  N   UNL     1       4.312  -0.331  23.452  0.00  0.00    -0.298 N 
ATOM      8  N   UNL     1       0.264   0.084  21.639  0.00  0.00    -0.283 N 
ATOM      9  C   UNL     1       1.811  -0.291  23.523  0.00  0.00    +0.180 C 
ATOM     10  C   UNL     1       3.102  -1.035  23.885  0.00  0.00    +0.139 C 
ATOM     11  C   UNL     1       3.127   1.666  24.330  0.00  0.00    +0.128 C 
ATOM     12  C   UNL     1       4.269   1.133  23.477  0.00  0.00    +0.127 C 
ATOM     13  C   UNL     1       1.534  -0.286  22.028  0.00  0.00    +0.239 C 
ATOM     14  C   UNL     1       0.680   1.861  24.110  0.00  0.00    +0.249 C 
ATOM     15  C   UNL     1      -0.619   1.316  23.631  0.00  0.00    +0.059 A 
ATOM     16  C   UNL     1      -0.781   0.591  22.440  0.00  0.00    +0.046 A 
ATOM     17  C   UNL     1       5.426  -1.066  23.043  0.00  0.00    +0.213 C 
ATOM     18  C   UNL     1      -1.757   1.726  24.350  0.00  0.00    +0.023 A 
ATOM     19  C   UNL     1      -2.081   0.354  21.961  0.00  0.00    +0.024 A 
ATOM     20  C   UNL     1      -3.040   1.438  23.885  0.00  0.00    -0.014 A 
ATOM     21  C   UNL     1       6.632  -0.264  22.617  0.00  0.00    +0.109 C 
ATOM     22  C   UNL     1      -3.202   0.764  22.682  0.00  0.00    +0.010 A 
ATOM     30  H   UNL     1       0.023  -0.128  20.674  0.00  0.00    +0.155 HD
ENDROOT
BRANCH  20  23
ATOM      1 CL   UNL     1      -5.984   5.331  25.536  0.00  0.00    -0.084 Cl
ATOM     23  C   UNL     1      -4.198   1.863  24.640  0.00  0.00    +0.025 A 
ATOM     24  C   UNL     1      -5.012   0.933  25.289  0.00  0.00    +0.128 A 
ATOM     25  C   UNL     1      -4.500   3.224  24.718  0.00  0.00    +0.032 A 
ATOM     26  C   UNL     1      -6.125   1.362  26.012  0.00  0.00    +0.047 A 
ATOM     27  C   UNL     1      -5.613   3.653  25.442  0.00  0.00    +0.042 A 
ATOM     28  C   UNL     1      -6.425   2.722  26.089  0.00  0.00    +0.023 A 
BRANCH  24   5
ATOM      5  O   UNL     1      -4.742  -0.403  25.230  0.00  0.00    -0.495 OA
ATOM     29  C   UNL     1      -3.629  -0.872  25.987  0.00  0.00    +0.277 C 
ENDBRANCH  24   5
ENDBRANCH  20  23
TORSDOF 2
ENDMDL
MODEL 3
REMARK VINA RESULT:      15.1      3.612      8.485
REMARK  Name = 7142629
REMARK  4 active torsions:
REMARK  status: ('A' for Active; 'I' for Inactive)
REMARK    1  A    between atoms: O_5  and  C_24
REMARK    2  A    between atoms: O_5  and  C_29
REMARK    3  A    between atoms: C_17  and  C_21
REMARK    4  A    between atoms: C_20  and  C_23
REMARK                            x       y       z     vdW  Elec       q    Type
REMARK                         _______ _______ _______ _____ _____    ______ ____
ROOT
ATOM      2  O   UNL     1       1.862  -1.194  21.615  0.00  0.00    -0.273 OA
ATOM      3  O   UNL     1       0.475   3.339  23.955  0.00  0.00    -0.270 OA
ATOM      4  O   UNL     1       5.226  -2.195  23.420  0.00  0.00    -0.276 OA
ATOM      6  N   UNL     1       1.610   1.339  23.710  0.00  0.00    -0.283 N 
ATOM      7  N   UNL     1       4.059  -0.186  23.380  0.00  0.00    -0.298 N 
ATOM      8  N   UNL     1      -0.195  -0.331  22.066  0.00  0.00    -0.283 N 
ATOM      9  C   UNL     1       1.586  -0.116  23.758  0.00  0.00    +0.180 C 
ATOM     10  C   UNL     1       2.937  -0.718  24.160  0.00  0.00    +0.139 C 
ATOM     11  C   UNL     1       2.921   1.989  23.753  0.00  0.00    +0.128 C 
ATOM     12  C   UNL     1       3.966   1.216  22.963  0.00  0.00    +0.127 C 
ATOM     13  C   UNL     1       1.125  -0.570  22.381  0.00  0.00    +0.239 C 
ATOM     14  C   UNL     1       0.460   2.117  23.802  0.00  0.00    +0.249 C 
ATOM     15  C   UNL     1      -0.868   1.456  23.684  0.00  0.00    +0.059 A 
ATOM     16  C   UNL     1      -1.150   0.401  22.802  0.00  0.00    +0.046 A 
ATOM     17  C   UNL     1       5.139  -1.015  23.075  0.00  0.00    +0.213 C 
ATOM     18  C   UNL     1      -1.922   2.071  24.384  0.00  0.00    +0.023 A 
ATOM     19  C   UNL     1      -2.491   0.033  22.590  0.00  0.00    +0.024 A 
ATOM     20  C   UNL     1      -3.242   1.660  24.198  0.00  0.00    -0.014 A 
ATOM     21  C   UNL     1       6.253  -0.388  22.273  0.00  0.00    +0.109 C 
ATOM     22  C   UNL     1      -3.527   0.649  23.290  0.00  0.00    +0.010 A 
ATOM     30  H   UNL     1      -0.546  -0.828  21.250  0.00  0.00    +0.155 HD
ENDROOT
BRANCH  20  23
ATOM      1 CL   UNL     1      -7.263   1.153  27.380  0.00  0.00    -0.084 Cl
ATOM     23  C   UNL     1      -4.311   2.300  24.931  0.00  0.00    +0.025 A 
ATOM     24  C   UNL     1      -4.495   3.682  24.872  0.00  0.00    +0.128 A 
ATOM     25  C   UNL     1      -5.169   1.518  25.708  0.00  0.00    +0.032 A 
ATOM     26  C   UNL     1      -5.532   4.282  25.586  0.00  0.00    +0.047 A 
ATOM     27  C   UNL     1      -6.206   2.118  26.422  0.00  0.00    +0.042 A 
ATOM     28  C   UNL     1      -6.389   3.500  26.361  0.00  0.00    +0.023 A 
BRANCH  24   5
ATOM      5  O   UNL     1      -3.673   4.472  24.121  0.00  0.00    -0.495 OA
ATOM     29  C   UNL     1      -2.591   5.107  24.798  0.00  0.00    +0.277 C 
ENDBRANCH  24   5
ENDBRANCH  20  23
TORSDOF 2
ENDMDL
MODEL 4
REMARK VINA RESULT:      15.3      3.571      8.567
REMARK  Name = 7142629
REMARK  4 active torsions:
REMARK  status: ('A' for Active; 'I' for Inactive)
REMARK    1  A    between atoms: O_5  and  C_24
REMARK    2  A    between atoms: O_5  and  C_29
REMARK    3  A    between atoms: C_17  and  C_21
REMARK    4  A    between atoms: C_20  and  C_23
REMARK                            x       y       z     vdW  Elec       q    Type
REMARK                         _______ _______ _______ _____ _____    ______ ____
ROOT
ATOM      2  O   UNL     1       4.077  -2.340  24.371  0.00  0.00    -0.273 OA
ATOM      3  O   UNL     1       0.675   0.564  21.555  0.00  0.00    -0.270 OA
ATOM      4  O   UNL     1       7.441  -0.283  24.196  0.00  0.00    -0.276 OA
ATOM      6  N   UNL     1       2.605   0.124  22.750  0.00  0.00    -0.283 N 
ATOM      7  N   UNL     1       5.492  -0.123  22.942  0.00  0.00    -0.298 N 
ATOM      8  N   UNL     1       1.834  -2.040  24.615  0.00  0.00    -0.283 N 
ATOM      9  C   UNL     1       3.243  -0.099  24.040  0.00  0.00    +0.180 C 
ATOM     10  C   UNL     1       4.700   0.376  24.071  0.00  0.00    +0.139 C 
ATOM     11  C   UNL     1       3.473   0.474  21.625  0.00  0.00    +0.128 C 
ATOM     12  C   UNL     1       4.791  -0.286  21.666  0.00  0.00    +0.127 C 
ATOM     13  C   UNL     1       3.103  -1.587  24.321  0.00  0.00    +0.239 C 
ATOM     14  C   UNL     1       1.224   0.190  22.592  0.00  0.00    +0.249 C 
ATOM     15  C   UNL     1       0.349  -0.236  23.717  0.00  0.00    +0.059 A 
ATOM     16  C   UNL     1       0.618  -1.328  24.558  0.00  0.00    +0.046 A 
ATOM     17  C   UNL     1       6.843  -0.417  23.127  0.00  0.00    +0.213 C 
ATOM     18  C   UNL     1      -0.901   0.405  23.798  0.00  0.00    +0.023 A 
ATOM     19  C   UNL     1      -0.397  -1.795  25.412  0.00  0.00    +0.024 A 
ATOM     20  C   UNL     1      -1.879  -0.041  24.686  0.00  0.00    -0.014 A 
ATOM     21  C   UNL     1       7.586  -0.921  21.914  0.00  0.00    +0.109 C 
ATOM     22  C   UNL     1      -1.632  -1.150  25.484  0.00  0.00    +0.010 A 
ATOM     30  H   UNL     1       1.786  -2.975  25.014  0.00  0.00    +0.155 HD
ENDROOT
BRANCH  20  23
ATOM      1 CL   UNL     1      -4.455   4.421  24.764  0.00  0.00    -0.084 Cl
ATOM     23  C   UNL     1      -3.155   0.635  24.759  0.00  0.00    +0.025 A 
ATOM     24  C   UNL     1      -4.346  -0.087  24.857  0.00  0.00    +0.128 A 
ATOM     25  C   UNL     1      -3.191   2.030  24.731  0.00  0.00    +0.032 A 
ATOM     26  C   UNL     1      -5.567   0.582  24.926  0.00  0.00    +0.047 A 
ATOM     27  C   UNL     1      -4.413   2.701  24.800  0.00  0.00    +0.042 A 
ATOM     28  C   UNL     1      -5.601   1.976  24.898  0.00  0.00    +0.023 A 
BRANCH  24   5
ATOM      5  O   UNL     1      -4.342  -1.452  24.887  0.00  0.00    -0.495 OA
ATOM     29  C   UNL     1      -4.399  -2.126  23.633  0.00  0.00    +0.277 C 
ENDBRANCH  24   5
ENDBRANCH  20  23
TORSDOF 2
ENDMDL
