MODEL 1
REMARK VINA RESULT:      12.4      0.000      0.000
REMARK  Name = 11882961
REMARK  8 active torsions:
REMARK  status: ('A' for Active; 'I' for Inactive)
REMARK    1  A    between atoms: O_2  and  C_15
REMARK    2  A    between atoms: O_3  and  C_20
REMARK    3  A    between atoms: C_10  and  C_18
REMARK    4  A    between atoms: C_12  and  C_20
REMARK    5  A    between atoms: C_12  and  C_21
REMARK    6  A    between atoms: C_13  and  C_23
REMARK    7  A    between atoms: C_23  and  C_24
REMARK    8  A    between atoms: C_28  and  C_29
REMARK                            x       y       z     vdW  Elec       q    Type
REMARK                         _______ _______ _______ _____ _____    ______ ____
ROOT
ATOM      1  S   UNL     1       0.930   2.905  23.313  0.00  0.00    -0.057 S 
ATOM      6  O   UNL     1       2.229  -1.557  23.747  0.00  0.00    -0.275 OA
ATOM      7  N   UNL     1       0.216   0.584  24.206  0.00  0.00    -0.229 NA
ATOM      9  N   UNL     1       2.374   0.723  23.140  0.00  0.00    -0.264 N 
ATOM     10  C   UNL     1      -2.886   2.275  25.750  0.00  0.00    -0.019 C 
ATOM     11  C   UNL     1      -2.952   3.379  24.603  0.00  0.00    +0.011 C 
ATOM     12  C   UNL     1      -4.034   4.515  24.766  0.00  0.00    +0.021 C 
ATOM     13  C   UNL     1      -2.067   1.025  25.184  0.00  0.00    +0.054 C 
ATOM     14  C   UNL     1      -4.323   1.802  26.094  0.00  0.00    +0.010 C 
ATOM     15  C   UNL     1      -5.396   3.874  25.154  0.00  0.00    +0.123 C 
ATOM     16  C   UNL     1      -1.534   3.909  24.244  0.00  0.00    +0.049 C 
ATOM     17  C   UNL     1      -5.300   2.940  26.354  0.00  0.00    +0.032 C 
ATOM     18  C   UNL     1      -2.210   2.792  27.044  0.00  0.00    +0.012 C 
ATOM     19  C   UNL     1      -0.802   1.472  24.496  0.00  0.00    +0.058 A 
ATOM     21  C   UNL     1      -4.230   5.227  23.397  0.00  0.00    +0.016 C 
ATOM     22  C   UNL     1      -0.592   2.767  24.067  0.00  0.00    +0.015 A 
ATOM     25  C   UNL     1       1.183   1.229  23.591  0.00  0.00    +0.165 A 
ATOM     28  C   UNL     1       2.817  -0.606  23.241  0.00  0.00    +0.222 C 
ATOM     39  H   UNL     1       2.977   1.402  22.682  0.00  0.00    +0.157 HD
ENDROOT
BRANCH  28  29
ATOM     29  C   UNL     1       4.175  -0.787  22.629  0.00  0.00    +0.075 C 
ATOM     32  C   UNL     1       4.783   0.561  22.235  0.00  0.00    +0.013 C 
ATOM     33  C   UNL     1       5.076  -1.588  23.571  0.00  0.00    +0.013 C 
ATOM     34  C   UNL     1       5.320   1.358  23.424  0.00  0.00    +0.001 C 
ATOM     35  C   UNL     1       5.591  -0.767  24.751  0.00  0.00    +0.001 C 
ATOM     36  C   UNL     1       6.258   0.524  24.289  0.00  0.00    +0.000 C 
ENDBRANCH  28  29
BRANCH  15   2
ATOM      2  O   UNL     1      -6.366   4.884  25.435  0.00  0.00    -0.391 OA
ATOM     37  H   UNL     1      -5.890   5.664  25.767  0.00  0.00    +0.210 HD
ENDBRANCH  15   2
BRANCH  12  20
ATOM     20  C   UNL     1      -3.647   5.631  25.762  0.00  0.00    +0.165 C 
BRANCH  20   3
ATOM      3  O   UNL     1      -2.292   5.952  25.543  0.00  0.00    -0.394 OA
ATOM     38  H   UNL     1      -2.149   5.970  24.582  0.00  0.00    +0.209 HD
ENDBRANCH  20   3
ENDBRANCH  12  20
BRANCH  13  23
ATOM     23  C   UNL     1      -1.786  -0.074  26.218  0.00  0.00    +0.106 C 
BRANCH  23  24
ATOM      4  O   UNL     1      -0.497  -2.019  25.800  0.00  0.00    -0.276 OA
ATOM      5  O   UNL     1      -4.608  -3.013  23.237  0.00  0.00    -0.377 OA
ATOM      8  N   UNL     1      -2.450  -1.783  24.567  0.00  0.00    -0.297 N 
ATOM     24  C   UNL     1      -1.512  -1.379  25.514  0.00  0.00    +0.216 C 
ATOM     26  C   UNL     1      -2.263  -3.039  23.840  0.00  0.00    +0.136 C 
ATOM     27  C   UNL     1      -3.596  -0.989  24.112  0.00  0.00    +0.136 C 
ATOM     30  C   UNL     1      -3.568  -3.822  23.791  0.00  0.00    +0.179 C 
ATOM     31  C   UNL     1      -4.846  -1.858  24.045  0.00  0.00    +0.179 C 
ENDBRANCH  23  24
ENDBRANCH  13  23
TORSDOF 6
ENDMDL
MODEL 2
REMARK VINA RESULT:      12.6      1.492      2.220
REMARK  Name = 11882961
REMARK  8 active torsions:
REMARK  status: ('A' for Active; 'I' for Inactive)
REMARK    1  A    between atoms: O_2  and  C_15
REMARK    2  A    between atoms: O_3  and  C_20
REMARK    3  A    between atoms: C_10  and  C_18
REMARK    4  A    between atoms: C_12  and  C_20
REMARK    5  A    between atoms: C_12  and  C_21
REMARK    6  A    between atoms: C_13  and  C_23
REMARK    7  A    between atoms: C_23  and  C_24
REMARK    8  A    between atoms: C_28  and  C_29
REMARK                            x       y       z     vdW  Elec       q    Type
REMARK                         _______ _______ _______ _____ _____    ______ ____
ROOT
ATOM      1  S   UNL     1       0.925   2.397  25.047  0.00  0.00    -0.057 S 
ATOM      6  O   UNL     1       1.805  -0.258  21.311  0.00  0.00    -0.275 OA
ATOM      7  N   UNL     1      -0.152   1.154  23.050  0.00  0.00    -0.229 NA
ATOM      9  N   UNL     1       2.247   1.016  23.253  0.00  0.00    -0.264 N 
ATOM     10  C   UNL     1      -3.602   2.060  24.513  0.00  0.00    -0.019 C 
ATOM     11  C   UNL     1      -3.064   3.417  25.149  0.00  0.00    +0.011 C 
ATOM     12  C   UNL     1      -4.072   4.238  26.043  0.00  0.00    +0.021 C 
ATOM     13  C   UNL     1      -2.611   1.642  23.332  0.00  0.00    +0.054 C 
ATOM     14  C   UNL     1      -5.010   2.297  23.907  0.00  0.00    +0.010 C 
ATOM     15  C   UNL     1      -5.439   4.340  25.310  0.00  0.00    +0.123 C 
ATOM     16  C   UNL     1      -1.663   3.223  25.799  0.00  0.00    +0.049 C 
ATOM     17  C   UNL     1      -5.980   2.990  24.855  0.00  0.00    +0.032 C 
ATOM     18  C   UNL     1      -3.692   0.907  25.543  0.00  0.00    +0.012 C 
ATOM     19  C   UNL     1      -1.172   1.749  23.768  0.00  0.00    +0.058 A 
ATOM     21  C   UNL     1      -3.530   5.684  26.219  0.00  0.00    +0.016 C 
ATOM     22  C   UNL     1      -0.768   2.478  24.868  0.00  0.00    +0.015 A 
ATOM     25  C   UNL     1       0.996   1.422  23.636  0.00  0.00    +0.165 A 
ATOM     28  C   UNL     1       2.571   0.220  22.141  0.00  0.00    +0.222 C 
ATOM     39  H   UNL     1       3.001   1.346  23.850  0.00  0.00    +0.157 HD
ENDROOT
BRANCH  28  29
ATOM     29  C   UNL     1       4.050  -0.015  22.040  0.00  0.00    +0.075 C 
ATOM     32  C   UNL     1       4.831   1.067  22.789  0.00  0.00    +0.013 C 
ATOM     33  C   UNL     1       4.393  -1.428  22.517  0.00  0.00    +0.013 C 
ATOM     34  C   UNL     1       4.810   0.892  24.307  0.00  0.00    +0.001 C 
ATOM     35  C   UNL     1       4.359  -1.572  24.037  0.00  0.00    +0.001 C 
ATOM     36  C   UNL     1       5.220  -0.517  24.721  0.00  0.00    +0.000 C 
ENDBRANCH  28  29
BRANCH  15   2
ATOM      2  O   UNL     1      -6.413   4.965  26.148  0.00  0.00    -0.391 OA
ATOM     37  H   UNL     1      -7.282   4.599  25.913  0.00  0.00    +0.210 HD
ENDBRANCH  15   2
BRANCH  12  20
ATOM     20  C   UNL     1      -4.254   3.685  27.474  0.00  0.00    +0.165 C 
BRANCH  20   3
ATOM      3  O   UNL     1      -3.206   4.193  28.269  0.00  0.00    -0.394 OA
ATOM     38  H   UNL     1      -2.548   3.484  28.370  0.00  0.00    +0.209 HD
ENDBRANCH  20   3
ENDBRANCH  12  20
BRANCH  13  23
ATOM     23  C   UNL     1      -2.907   0.272  22.705  0.00  0.00    +0.106 C 
BRANCH  23  24
ATOM      4  O   UNL     1      -4.835  -0.614  23.763  0.00  0.00    -0.276 OA
ATOM      5  O   UNL     1      -1.284  -3.476  25.674  0.00  0.00    -0.377 OA
ATOM      8  N   UNL     1      -2.784  -1.381  24.533  0.00  0.00    -0.297 N 
ATOM     24  C   UNL     1      -3.603  -0.609  23.712  0.00  0.00    +0.216 C 
ATOM     26  C   UNL     1      -3.378  -2.267  25.535  0.00  0.00    +0.136 C 
ATOM     27  C   UNL     1      -1.320  -1.307  24.587  0.00  0.00    +0.136 C 
ATOM     30  C   UNL     1      -2.696  -3.628  25.509  0.00  0.00    +0.179 C 
ATOM     31  C   UNL     1      -0.722  -2.708  24.607  0.00  0.00    +0.179 C 
ENDBRANCH  23  24
ENDBRANCH  13  23
TORSDOF 6
ENDMDL
