MODEL 1
REMARK VINA RESULT:      -2.2      0.000      0.000
REMARK  Name = 11913373
REMARK  8 active torsions:
REMARK  status: ('A' for Active; 'I' for Inactive)
REMARK    1  A    between atoms: S_1  and  C_20
REMARK    2  A    between atoms: S_1  and  C_25
REMARK    3  A    between atoms: O_6  and  C_28
REMARK    4  A    between atoms: N_8  and  C_14
REMARK    5  A    between atoms: N_9  and  C_15
REMARK    6  A    between atoms: C_18  and  C_20
REMARK    7  A    between atoms: C_21  and  C_24
REMARK    8  A    between atoms: C_25  and  C_28
REMARK                            x       y       z     vdW  Elec       q    Type
REMARK                         _______ _______ _______ _____ _____    ______ ____
ROOT
ATOM      3  O   UNL     1      -1.238  -1.157  26.377  0.00  0.00    -0.370 OA
ATOM      4  O   UNL     1      -2.680  -2.417  23.913  0.00  0.00    -0.370 OA
ATOM     12  C   UNL     1      -2.002  -1.167  24.123  0.00  0.00    +0.171 C 
ATOM     13  C   UNL     1      -2.317  -0.715  25.536  0.00  0.00    +0.171 C 
ATOM     14  C   UNL     1      -0.505  -1.375  24.130  0.00  0.00    +0.130 C 
ATOM     15  C   UNL     1      -3.589  -1.454  25.885  0.00  0.00    +0.130 C 
ATOM     16  C   UNL     1      -0.242  -1.796  25.566  0.00  0.00    +0.185 C 
ATOM     17  C   UNL     1      -3.466  -2.730  25.073  0.00  0.00    +0.185 C 
ENDROOT
BRANCH  15   9
ATOM      9  N   UNL     1      -4.738  -0.692  25.450  0.00  0.00    -0.306 N 
ATOM     10  N   UNL     1      -3.503   1.268  25.303  0.00  0.00    -0.214 NA
ATOM     11  N   UNL     1      -5.851   1.228  24.766  0.00  0.00    -0.223 NA
ATOM     19  C   UNL     1      -4.696   0.660  25.160  0.00  0.00    +0.216 A 
ATOM     21  C   UNL     1      -3.498   2.586  25.012  0.00  0.00    +0.076 A 
ATOM     22  C   UNL     1      -5.773   2.547  24.491  0.00  0.00    +0.116 A 
ATOM     23  C   UNL     1      -4.613   3.285  24.598  0.00  0.00    +0.048 A 
ATOM     33  H   UNL     1      -5.621  -1.166  25.294  0.00  0.00    +0.149 HD
BRANCH  21  24
ATOM      2  F   UNL     1       1.114   2.534  26.437  0.00  0.00    -0.205 F 
ATOM     24  C   UNL     1      -2.220   3.242  25.163  0.00  0.00    +0.003 A 
ATOM     26  C   UNL     1      -1.149   2.558  25.738  0.00  0.00    +0.048 A 
ATOM     27  C   UNL     1      -2.057   4.559  24.736  0.00  0.00    +0.010 A 
ATOM     29  C   UNL     1       0.084   3.191  25.884  0.00  0.00    +0.124 A 
ATOM     30  C   UNL     1      -0.824   5.192  24.883  0.00  0.00    +0.003 A 
ATOM     31  C   UNL     1       0.247   4.508  25.457  0.00  0.00    +0.038 A 
ENDBRANCH  21  24
ENDBRANCH  15   9
BRANCH  14   8
ATOM      5  O   UNL     1       2.177  -1.121  23.071  0.00  0.00    -0.275 OA
ATOM      8  N   UNL     1       0.193  -0.155  23.806  0.00  0.00    -0.307 N 
ATOM     18  C   UNL     1       1.485  -0.129  23.300  0.00  0.00    +0.223 C 
ATOM     32  H   UNL     1      -0.314   0.719  23.905  0.00  0.00    +0.149 HD
BRANCH  18  20
ATOM     20  C   UNL     1       1.998   1.270  23.060  0.00  0.00    +0.165 C 
BRANCH  20   1
ATOM      1  S   UNL     1       3.640   1.173  22.307  0.00  0.00    -0.140 S 
BRANCH   1  25
ATOM     25  C   UNL     1       4.607   0.881  23.806  0.00  0.00    +0.189 C 
BRANCH  25  28
ATOM      7  O   UNL     1       6.524  -0.356  23.029  0.00  0.00    -0.250 OA
ATOM     28  C   UNL     1       5.454  -0.345  23.624  0.00  0.00    +0.315 C 
BRANCH  28   6
ATOM      6  O   UNL     1       4.912  -1.447  24.203  0.00  0.00    -0.480 OA
ATOM     34  H   UNL     1       4.726  -1.305  25.155  0.00  0.00    +0.295 HD
ENDBRANCH  28   6
ENDBRANCH  25  28
ENDBRANCH   1  25
ENDBRANCH  20   1
ENDBRANCH  18  20
ENDBRANCH  14   8
TORSDOF 8
ENDMDL
MODEL 2
REMARK VINA RESULT:      -0.0      3.257      5.221
REMARK  Name = 11913373
REMARK  8 active torsions:
REMARK  status: ('A' for Active; 'I' for Inactive)
REMARK    1  A    between atoms: S_1  and  C_20
REMARK    2  A    between atoms: S_1  and  C_25
REMARK    3  A    between atoms: O_6  and  C_28
REMARK    4  A    between atoms: N_8  and  C_14
REMARK    5  A    between atoms: N_9  and  C_15
REMARK    6  A    between atoms: C_18  and  C_20
REMARK    7  A    between atoms: C_21  and  C_24
REMARK    8  A    between atoms: C_25  and  C_28
REMARK                            x       y       z     vdW  Elec       q    Type
REMARK                         _______ _______ _______ _____ _____    ______ ____
ROOT
ATOM      3  O   UNL     1      -3.699   3.165  23.723  0.00  0.00    -0.370 OA
ATOM      4  O   UNL     1      -5.640   2.430  26.054  0.00  0.00    -0.370 OA
ATOM     12  C   UNL     1      -4.209   2.396  25.917  0.00  0.00    +0.171 C 
ATOM     13  C   UNL     1      -3.902   1.968  24.494  0.00  0.00    +0.171 C 
ATOM     14  C   UNL     1      -3.638   3.792  26.011  0.00  0.00    +0.130 C 
ATOM     15  C   UNL     1      -5.160   1.262  24.042  0.00  0.00    +0.130 C 
ATOM     16  C   UNL     1      -3.794   4.304  24.589  0.00  0.00    +0.185 C 
ATOM     17  C   UNL     1      -6.243   1.969  24.835  0.00  0.00    +0.185 C 
ENDROOT
BRANCH  15   9
ATOM      9  N   UNL     1      -5.101  -0.135  24.410  0.00  0.00    -0.306 N 
ATOM     10  N   UNL     1      -2.795  -0.205  24.151  0.00  0.00    -0.214 NA
ATOM     11  N   UNL     1      -4.036  -2.156  24.826  0.00  0.00    -0.223 NA
ATOM     19  C   UNL     1      -3.926  -0.863  24.465  0.00  0.00    +0.216 A 
ATOM     21  C   UNL     1      -1.669  -0.945  24.216  0.00  0.00    +0.076 A 
ATOM     22  C   UNL     1      -2.871  -2.836  24.870  0.00  0.00    +0.116 A 
ATOM     23  C   UNL     1      -1.646  -2.278  24.572  0.00  0.00    +0.048 A 
ATOM     33  H   UNL     1      -5.949  -0.612  24.695  0.00  0.00    +0.149 HD
BRANCH  21  24
ATOM      2  F   UNL     1       2.995  -0.965  22.971  0.00  0.00    -0.205 F 
ATOM     24  C   UNL     1      -0.453  -0.241  23.881  0.00  0.00    +0.003 A 
ATOM     26  C   UNL     1       0.706  -0.957  23.582  0.00  0.00    +0.048 A 
ATOM     27  C   UNL     1      -0.437   1.153  23.858  0.00  0.00    +0.010 A 
ATOM     29  C   UNL     1       1.881  -0.278  23.259  0.00  0.00    +0.124 A 
ATOM     30  C   UNL     1       0.737   1.832  23.535  0.00  0.00    +0.003 A 
ATOM     31  C   UNL     1       1.896   1.117  23.235  0.00  0.00    +0.038 A 
ENDBRANCH  21  24
ENDBRANCH  15   9
BRANCH  14   8
ATOM      5  O   UNL     1      -1.336   4.452  24.384  0.00  0.00    -0.275 OA
ATOM      8  N   UNL     1      -2.251   3.764  26.408  0.00  0.00    -0.307 N 
ATOM     18  C   UNL     1      -1.209   4.097  25.556  0.00  0.00    +0.223 C 
ATOM     32  H   UNL     1      -2.043   3.539  27.376  0.00  0.00    +0.149 HD
BRANCH  18  20
ATOM     20  C   UNL     1       0.149   3.970  26.204  0.00  0.00    +0.165 C 
BRANCH  20   1
ATOM      1  S   UNL     1       0.316   2.306  26.895  0.00  0.00    -0.140 S 
BRANCH   1  25
ATOM     25  C   UNL     1       0.542   2.757  28.632  0.00  0.00    +0.189 C 
BRANCH  25  28
ATOM      7  O   UNL     1       2.933   3.026  28.492  0.00  0.00    -0.250 OA
ATOM     28  C   UNL     1       1.966   2.504  29.033  0.00  0.00    +0.315 C 
BRANCH  28   6
ATOM      6  O   UNL     1       2.071   1.639  30.074  0.00  0.00    -0.480 OA
ATOM     34  H   UNL     1       2.535   0.814  29.819  0.00  0.00    +0.295 HD
ENDBRANCH  28   6
ENDBRANCH  25  28
ENDBRANCH   1  25
ENDBRANCH  20   1
ENDBRANCH  18  20
ENDBRANCH  14   8
TORSDOF 8
ENDMDL
MODEL 3
REMARK VINA RESULT:       0.2      2.298      4.252
REMARK  Name = 11913373
REMARK  8 active torsions:
REMARK  status: ('A' for Active; 'I' for Inactive)
REMARK    1  A    between atoms: S_1  and  C_20
REMARK    2  A    between atoms: S_1  and  C_25
REMARK    3  A    between atoms: O_6  and  C_28
REMARK    4  A    between atoms: N_8  and  C_14
REMARK    5  A    between atoms: N_9  and  C_15
REMARK    6  A    between atoms: C_18  and  C_20
REMARK    7  A    between atoms: C_21  and  C_24
REMARK    8  A    between atoms: C_25  and  C_28
REMARK                            x       y       z     vdW  Elec       q    Type
REMARK                         _______ _______ _______ _____ _____    ______ ____
ROOT
ATOM      3  O   UNL     1      -0.952   4.183  23.790  0.00  0.00    -0.370 OA
ATOM      4  O   UNL     1      -2.007   3.299  26.591  0.00  0.00    -0.370 OA
ATOM     12  C   UNL     1      -1.750   2.590  25.368  0.00  0.00    +0.171 C 
ATOM     13  C   UNL     1      -2.143   3.505  24.224  0.00  0.00    +0.171 C 
ATOM     14  C   UNL     1      -0.264   2.387  25.180  0.00  0.00    +0.130 C 
ATOM     15  C   UNL     1      -3.105   4.488  24.852  0.00  0.00    +0.130 C 
ATOM     16  C   UNL     1       0.167   3.698  24.547  0.00  0.00    +0.185 C 
ATOM     17  C   UNL     1      -2.615   4.564  26.286  0.00  0.00    +0.185 C 
ENDROOT
BRANCH  15   9
ATOM      9  N   UNL     1      -4.450   3.958  24.810  0.00  0.00    -0.306 N 
ATOM     10  N   UNL     1      -3.693   1.768  24.946  0.00  0.00    -0.214 NA
ATOM     11  N   UNL     1      -6.045   2.271  24.810  0.00  0.00    -0.223 NA
ATOM     19  C   UNL     1      -4.742   2.607  24.858  0.00  0.00    +0.216 A 
ATOM     21  C   UNL     1      -4.015   0.458  24.991  0.00  0.00    +0.076 A 
ATOM     22  C   UNL     1      -6.294   0.946  24.860  0.00  0.00    +0.116 A 
ATOM     23  C   UNL     1      -5.310  -0.016  24.950  0.00  0.00    +0.048 A 
ATOM     33  H   UNL     1      -5.237   4.597  24.796  0.00  0.00    +0.149 HD
BRANCH  21  24
ATOM      2  F   UNL     1      -1.509  -3.325  23.346  0.00  0.00    -0.205 F 
ATOM     24  C   UNL     1      -2.893  -0.446  25.087  0.00  0.00    +0.003 A 
ATOM     26  C   UNL     1      -2.740  -1.469  24.152  0.00  0.00    +0.048 A 
ATOM     27  C   UNL     1      -1.962  -0.296  26.115  0.00  0.00    +0.010 A 
ATOM     29  C   UNL     1      -1.656  -2.342  24.244  0.00  0.00    +0.124 A 
ATOM     30  C   UNL     1      -0.879  -1.169  26.207  0.00  0.00    +0.003 A 
ATOM     31  C   UNL     1      -0.726  -2.192  25.272  0.00  0.00    +0.038 A 
ENDBRANCH  21  24
ENDBRANCH  15   9
BRANCH  14   8
ATOM      5  O   UNL     1       2.188   1.836  23.742  0.00  0.00    -0.275 OA
ATOM      8  N   UNL     1       0.004   1.271  24.305  0.00  0.00    -0.307 N 
ATOM     18  C   UNL     1       1.215   1.087  23.655  0.00  0.00    +0.223 C 
ATOM     32  H   UNL     1      -0.718   0.563  24.211  0.00  0.00    +0.149 HD
BRANCH  18  20
ATOM     20  C   UNL     1       1.238  -0.146  22.784  0.00  0.00    +0.165 C 
BRANCH  20   1
ATOM      1  S   UNL     1       2.857  -0.272  21.986  0.00  0.00    -0.140 S 
BRANCH   1  25
ATOM     25  C   UNL     1       3.795  -0.933  23.384  0.00  0.00    +0.189 C 
BRANCH  25  28
ATOM      7  O   UNL     1       6.023  -0.215  22.813  0.00  0.00    -0.250 OA
ATOM     28  C   UNL     1       5.056  -0.138  23.560  0.00  0.00    +0.315 C 
BRANCH  28   6
ATOM      6  O   UNL     1       5.007   0.692  24.633  0.00  0.00    -0.480 OA
ATOM     34  H   UNL     1       4.644   0.243  25.425  0.00  0.00    +0.295 HD
ENDBRANCH  28   6
ENDBRANCH  25  28
ENDBRANCH   1  25
ENDBRANCH  20   1
ENDBRANCH  18  20
ENDBRANCH  14   8
TORSDOF 8
ENDMDL
MODEL 4
REMARK VINA RESULT:       0.4      2.630      4.931
REMARK  Name = 11913373
REMARK  8 active torsions:
REMARK  status: ('A' for Active; 'I' for Inactive)
REMARK    1  A    between atoms: S_1  and  C_20
REMARK    2  A    between atoms: S_1  and  C_25
REMARK    3  A    between atoms: O_6  and  C_28
REMARK    4  A    between atoms: N_8  and  C_14
REMARK    5  A    between atoms: N_9  and  C_15
REMARK    6  A    between atoms: C_18  and  C_20
REMARK    7  A    between atoms: C_21  and  C_24
REMARK    8  A    between atoms: C_25  and  C_28
REMARK                            x       y       z     vdW  Elec       q    Type
REMARK                         _______ _______ _______ _____ _____    ______ ____
ROOT
ATOM      3  O   UNL     1      -1.457   3.014  23.338  0.00  0.00    -0.370 OA
ATOM      4  O   UNL     1      -1.298   4.925  25.800  0.00  0.00    -0.370 OA
ATOM     12  C   UNL     1      -1.423   3.499  25.668  0.00  0.00    +0.171 C 
ATOM     13  C   UNL     1      -2.315   3.234  24.471  0.00  0.00    +0.171 C 
ATOM     14  C   UNL     1      -0.096   2.889  25.278  0.00  0.00    +0.130 C 
ATOM     15  C   UNL     1      -3.092   4.519  24.297  0.00  0.00    +0.130 C 
ATOM     16  C   UNL     1      -0.089   3.060  23.769  0.00  0.00    +0.185 C 
ATOM     17  C   UNL     1      -2.124   5.566  24.816  0.00  0.00    +0.185 C 
ENDROOT
BRANCH  15   9
ATOM      9  N   UNL     1      -4.284   4.490  25.115  0.00  0.00    -0.306 N 
ATOM     10  N   UNL     1      -4.384   2.171  25.054  0.00  0.00    -0.214 NA
ATOM     11  N   UNL     1      -6.025   3.462  26.257  0.00  0.00    -0.223 NA
ATOM     19  C   UNL     1      -4.925   3.324  25.492  0.00  0.00    +0.216 A 
ATOM     21  C   UNL     1      -5.035   1.054  25.441  0.00  0.00    +0.076 A 
ATOM     22  C   UNL     1      -6.625   2.305  26.606  0.00  0.00    +0.116 A 
ATOM     23  C   UNL     1      -6.172   1.060  26.224  0.00  0.00    +0.048 A 
ATOM     33  H   UNL     1      -4.656   5.358  25.484  0.00  0.00    +0.149 HD
BRANCH  21  24
ATOM      2  F   UNL     1      -2.985  -3.225  26.324  0.00  0.00    -0.205 F 
ATOM     24  C   UNL     1      -4.457  -0.184  24.975  0.00  0.00    +0.003 A 
ATOM     26  C   UNL     1      -3.991  -1.125  25.893  0.00  0.00    +0.048 A 
ATOM     27  C   UNL     1      -4.365  -0.440  23.607  0.00  0.00    +0.010 A 
ATOM     29  C   UNL     1      -3.433  -2.321  25.442  0.00  0.00    +0.124 A 
ATOM     30  C   UNL     1      -3.806  -1.635  23.157  0.00  0.00    +0.003 A 
ATOM     31  C   UNL     1      -3.340  -2.576  24.075  0.00  0.00    +0.038 A 
ENDBRANCH  21  24
ENDBRANCH  15   9
BRANCH  14   8
ATOM      5  O   UNL     1      -1.400   0.667  23.958  0.00  0.00    -0.275 OA
ATOM      8  N   UNL     1      -0.034   1.496  25.647  0.00  0.00    -0.307 N 
ATOM     18  C   UNL     1      -0.696   0.494  24.952  0.00  0.00    +0.223 C 
ATOM     32  H   UNL     1       0.570   1.240  26.422  0.00  0.00    +0.149 HD
BRANCH  18  20
ATOM     20  C   UNL     1      -0.486  -0.877  25.548  0.00  0.00    +0.165 C 
BRANCH  20   1
ATOM      1  S   UNL     1       0.616  -1.824  24.471  0.00  0.00    -0.140 S 
BRANCH   1  25
ATOM     25  C   UNL     1       0.904  -0.564  23.206  0.00  0.00    +0.189 C 
BRANCH  25  28
ATOM      7  O   UNL     1       3.277  -0.985  23.176  0.00  0.00    -0.250 OA
ATOM     28  C   UNL     1       2.355  -0.179  23.206  0.00  0.00    +0.315 C 
BRANCH  28   6
ATOM      6  O   UNL     1       2.541   1.166  23.227  0.00  0.00    -0.480 OA
ATOM     34  H   UNL     1       1.828   1.641  22.751  0.00  0.00    +0.295 HD
ENDBRANCH  28   6
ENDBRANCH  25  28
ENDBRANCH   1  25
ENDBRANCH  20   1
ENDBRANCH  18  20
ENDBRANCH  14   8
TORSDOF 8
ENDMDL
MODEL 5
REMARK VINA RESULT:       1.2      3.835      7.505
REMARK  Name = 11913373
REMARK  8 active torsions:
REMARK  status: ('A' for Active; 'I' for Inactive)
REMARK    1  A    between atoms: S_1  and  C_20
REMARK    2  A    between atoms: S_1  and  C_25
REMARK    3  A    between atoms: O_6  and  C_28
REMARK    4  A    between atoms: N_8  and  C_14
REMARK    5  A    between atoms: N_9  and  C_15
REMARK    6  A    between atoms: C_18  and  C_20
REMARK    7  A    between atoms: C_21  and  C_24
REMARK    8  A    between atoms: C_25  and  C_28
REMARK                            x       y       z     vdW  Elec       q    Type
REMARK                         _______ _______ _______ _____ _____    ______ ____
ROOT
ATOM      3  O   UNL     1      -1.639   3.237  26.570  0.00  0.00    -0.370 OA
ATOM      4  O   UNL     1      -1.287   4.728  23.851  0.00  0.00    -0.370 OA
ATOM     12  C   UNL     1      -1.831   3.446  24.207  0.00  0.00    +0.171 C 
ATOM     13  C   UNL     1      -0.983   2.894  25.337  0.00  0.00    +0.171 C 
ATOM     14  C   UNL     1      -3.202   3.609  24.823  0.00  0.00    +0.130 C 
ATOM     15  C   UNL     1       0.325   3.641  25.216  0.00  0.00    +0.130 C 
ATOM     16  C   UNL     1      -2.873   3.908  26.275  0.00  0.00    +0.185 C 
ATOM     17  C   UNL     1      -0.104   4.972  24.628  0.00  0.00    +0.185 C 
ENDROOT
BRANCH  15   9
ATOM      9  N   UNL     1       1.205   2.950  24.300  0.00  0.00    -0.306 N 
ATOM     10  N   UNL     1      -0.002   0.975  24.481  0.00  0.00    -0.214 NA
ATOM     11  N   UNL     1       1.945   1.124  23.069  0.00  0.00    -0.223 NA
ATOM     19  C   UNL     1       1.042   1.626  23.934  0.00  0.00    +0.216 A 
ATOM     21  C   UNL     1      -0.131  -0.314  24.102  0.00  0.00    +0.076 A 
ATOM     22  C   UNL     1       1.756  -0.169  22.734  0.00  0.00    +0.116 A 
ATOM     23  C   UNL     1       0.726  -0.945  23.224  0.00  0.00    +0.048 A 
ATOM     33  H   UNL     1       1.958   3.459  23.851  0.00  0.00    +0.149 HD
BRANCH  21  24
ATOM      2  F   UNL     1      -3.518  -3.746  23.887  0.00  0.00    -0.205 F 
ATOM     24  C   UNL     1      -1.250  -1.015  24.685  0.00  0.00    +0.003 A 
ATOM     26  C   UNL     1      -1.855  -2.063  23.991  0.00  0.00    +0.048 A 
ATOM     27  C   UNL     1      -1.727  -0.645  25.942  0.00  0.00    +0.010 A 
ATOM     29  C   UNL     1      -2.936  -2.740  24.554  0.00  0.00    +0.124 A 
ATOM     30  C   UNL     1      -2.808  -1.322  26.505  0.00  0.00    +0.003 A 
ATOM     31  C   UNL     1      -3.413  -2.370  25.811  0.00  0.00    +0.038 A 
ENDBRANCH  21  24
ENDBRANCH  15   9
BRANCH  14   8
ATOM      5  O   UNL     1      -2.908   1.536  22.824  0.00  0.00    -0.275 OA
ATOM      8  N   UNL     1      -3.977   2.398  24.701  0.00  0.00    -0.307 N 
ATOM     18  C   UNL     1      -3.764   1.457  23.704  0.00  0.00    +0.223 C 
ATOM     32  H   UNL     1      -4.673   2.210  25.415  0.00  0.00    +0.149 HD
BRANCH  18  20
ATOM     20  C   UNL     1      -4.718   0.288  23.782  0.00  0.00    +0.165 C 
BRANCH  20   1
ATOM      1  S   UNL     1      -5.735   0.458  25.268  0.00  0.00    -0.140 S 
BRANCH   1  25
ATOM     25  C   UNL     1      -6.609   1.978  24.824  0.00  0.00    +0.189 C 
BRANCH  25  28
ATOM      7  O   UNL     1      -6.344   4.215  25.679  0.00  0.00    -0.250 OA
ATOM     28  C   UNL     1      -6.388   3.010  25.892  0.00  0.00    +0.315 C 
BRANCH  28   6
ATOM      6  O   UNL     1      -6.256   2.466  27.128  0.00  0.00    -0.480 OA
ATOM     34  H   UNL     1      -6.183   3.153  27.824  0.00  0.00    +0.295 HD
ENDBRANCH  28   6
ENDBRANCH  25  28
ENDBRANCH   1  25
ENDBRANCH  20   1
ENDBRANCH  18  20
ENDBRANCH  14   8
TORSDOF 8
ENDMDL
MODEL 6
REMARK VINA RESULT:       1.3      3.897      7.135
REMARK  Name = 11913373
REMARK  8 active torsions:
REMARK  status: ('A' for Active; 'I' for Inactive)
REMARK    1  A    between atoms: S_1  and  C_20
REMARK    2  A    between atoms: S_1  and  C_25
REMARK    3  A    between atoms: O_6  and  C_28
REMARK    4  A    between atoms: N_8  and  C_14
REMARK    5  A    between atoms: N_9  and  C_15
REMARK    6  A    between atoms: C_18  and  C_20
REMARK    7  A    between atoms: C_21  and  C_24
REMARK    8  A    between atoms: C_25  and  C_28
REMARK                            x       y       z     vdW  Elec       q    Type
REMARK                         _______ _______ _______ _____ _____    ______ ____
ROOT
ATOM      3  O   UNL     1      -2.174   3.277  26.670  0.00  0.00    -0.370 OA
ATOM      4  O   UNL     1      -1.350   5.301  24.442  0.00  0.00    -0.370 OA
ATOM     12  C   UNL     1      -2.140   4.100  24.438  0.00  0.00    +0.171 C 
ATOM     13  C   UNL     1      -1.495   3.132  25.411  0.00  0.00    +0.171 C 
ATOM     14  C   UNL     1      -3.503   4.365  25.034  0.00  0.00    +0.130 C 
ATOM     15  C   UNL     1      -0.069   3.619  25.526  0.00  0.00    +0.130 C 
ATOM     16  C   UNL     1      -3.241   4.224  26.523  0.00  0.00    +0.185 C 
ATOM     17  C   UNL     1      -0.207   5.112  25.290  0.00  0.00    +0.185 C 
ENDROOT
BRANCH  15   9
ATOM      9  N   UNL     1       0.742   3.021  24.488  0.00  0.00    -0.306 N 
ATOM     10  N   UNL     1      -0.314   0.966  24.715  0.00  0.00    -0.214 NA
ATOM     11  N   UNL     1       1.448   1.295  23.104  0.00  0.00    -0.223 NA
ATOM     19  C   UNL     1       0.620   1.704  24.085  0.00  0.00    +0.216 A 
ATOM     21  C   UNL     1      -0.406  -0.313  24.296  0.00  0.00    +0.076 A 
ATOM     22  C   UNL     1       1.301   0.005  22.736  0.00  0.00    +0.116 A 
ATOM     23  C   UNL     1       0.383  -0.854  23.302  0.00  0.00    +0.048 A 
ATOM     33  H   UNL     1       1.407   3.595  23.982  0.00  0.00    +0.149 HD
BRANCH  21  24
ATOM      2  F   UNL     1      -3.627  -3.908  24.285  0.00  0.00    -0.205 F 
ATOM     24  C   UNL     1      -1.407  -1.108  24.968  0.00  0.00    +0.003 A 
ATOM     26  C   UNL     1      -2.046  -2.145  24.289  0.00  0.00    +0.048 A 
ATOM     27  C   UNL     1      -1.736  -0.838  26.296  0.00  0.00    +0.010 A 
ATOM     29  C   UNL     1      -3.013  -2.912  24.938  0.00  0.00    +0.124 A 
ATOM     30  C   UNL     1      -2.703  -1.604  26.945  0.00  0.00    +0.003 A 
ATOM     31  C   UNL     1      -3.342  -2.642  26.266  0.00  0.00    +0.038 A 
ENDBRANCH  21  24
ENDBRANCH  15   9
BRANCH  14   8
ATOM      5  O   UNL     1      -5.717   3.260  26.537  0.00  0.00    -0.275 OA
ATOM      8  N   UNL     1      -4.470   3.395  24.579  0.00  0.00    -0.307 N 
ATOM     18  C   UNL     1      -5.503   2.920  25.373  0.00  0.00    +0.223 C 
ATOM     32  H   UNL     1      -4.414   3.093  23.611  0.00  0.00    +0.149 HD
BRANCH  18  20
ATOM     20  C   UNL     1      -6.366   1.899  24.672  0.00  0.00    +0.165 C 
BRANCH  20   1
ATOM      1  S   UNL     1      -5.541   0.290  24.733  0.00  0.00    -0.140 S 
BRANCH   1  25
ATOM     25  C   UNL     1      -3.833   0.857  24.563  0.00  0.00    +0.189 C 
BRANCH  25  28
ATOM      7  O   UNL     1      -2.888   1.719  22.520  0.00  0.00    -0.250 OA
ATOM     28  C   UNL     1      -3.428   0.797  23.119  0.00  0.00    +0.315 C 
BRANCH  28   6
ATOM      6  O   UNL     1      -3.711  -0.400  22.544  0.00  0.00    -0.480 OA
ATOM     34  H   UNL     1      -2.963  -0.732  22.004  0.00  0.00    +0.295 HD
ENDBRANCH  28   6
ENDBRANCH  25  28
ENDBRANCH   1  25
ENDBRANCH  20   1
ENDBRANCH  18  20
ENDBRANCH  14   8
TORSDOF 8
ENDMDL
