MODEL 1
REMARK VINA RESULT:       7.6      0.000      0.000
REMARK  Name = 7049403
REMARK  12 active torsions:
REMARK  status: ('A' for Active; 'I' for Inactive)
REMARK    1  A    between atoms: O_6  and  C_23
REMARK    2  A    between atoms: O_6  and  C_31
REMARK    3  A    between atoms: N_9  and  C_14
REMARK    4  A    between atoms: N_10  and  C_19
REMARK    5  A    between atoms: N_11  and  C_29
REMARK    6  A    between atoms: N_12  and  C_30
REMARK    7  A    between atoms: C_13  and  C_17
REMARK    8  A    between atoms: C_18  and  C_20
REMARK    9  A    between atoms: C_19  and  C_21
REMARK   10  A    between atoms: C_19  and  C_23
REMARK   11  A    between atoms: C_21  and  C_25
REMARK   12  A    between atoms: C_21  and  C_26
REMARK                            x       y       z     vdW  Elec       q    Type
REMARK                         _______ _______ _______ _____ _____    ______ ____
ROOT
ATOM      4  O   UNL     1       1.322  -0.673  21.421  0.00  0.00    -0.268 OA
ATOM      8  N   UNL     1       0.717  -1.121  23.602  0.00  0.00    -0.283 N 
ATOM     13  C   UNL     1      -0.642  -1.532  23.283  0.00  0.00    +0.164 C 
ATOM     14  C   UNL     1      -0.360  -1.522  25.685  0.00  0.00    +0.094 C 
ATOM     15  C   UNL     1      -1.178  -2.168  24.564  0.00  0.00    +0.056 C 
ATOM     16  C   UNL     1       0.993  -1.259  25.034  0.00  0.00    +0.131 C 
ATOM     18  C   UNL     1       1.635  -0.767  22.609  0.00  0.00    +0.264 C 
ENDROOT
BRANCH  14   9
ATOM      5  O   UNL     1      -0.175   1.077  24.497  0.00  0.00    -0.252 OA
ATOM      9  N   UNL     1      -0.960  -0.307  26.175  0.00  0.00    -0.295 N 
ATOM     12  N   UNL     1      -1.508   1.924  26.233  0.00  0.00    -0.267 N 
ATOM     22  C   UNL     1      -0.820   0.930  25.532  0.00  0.00    +0.304 C 
ATOM     37  H   UNL     1      -1.462  -0.337  27.057  0.00  0.00    +0.151 HD
ATOM     39  H   UNL     1      -2.002   1.636  27.075  0.00  0.00    +0.156 HD
BRANCH  12  30
ATOM      1  F   UNL     1      -3.751   3.421  26.941  0.00  0.00    -0.203 F 
ATOM      2  F   UNL     1      -1.903   7.310  24.979  0.00  0.00    -0.205 F 
ATOM     30  C   UNL     1      -1.612   3.298  25.914  0.00  0.00    +0.070 A 
ATOM     32  C   UNL     1      -2.748   4.020  26.282  0.00  0.00    +0.147 A 
ATOM     33  C   UNL     1      -0.576   3.932  25.229  0.00  0.00    +0.029 A 
ATOM     34  C   UNL     1      -2.846   5.375  25.966  0.00  0.00    +0.078 A 
ATOM     35  C   UNL     1      -0.674   5.287  24.913  0.00  0.00    +0.040 A 
ATOM     36  C   UNL     1      -1.810   6.009  25.281  0.00  0.00    +0.126 A 
ENDBRANCH  12  30
ENDBRANCH  14   9
BRANCH  18  20
ATOM     11  N   UNL     1       3.554   0.768  23.089  0.00  0.00    -0.346 N 
ATOM     20  C   UNL     1       2.994  -0.482  23.052  0.00  0.00    +0.104 A 
ATOM     24  C   UNL     1       3.937  -1.380  23.498  0.00  0.00    +0.032 A 
ATOM     27  C   UNL     1       4.840   0.682  23.554  0.00  0.00    +0.086 A 
ATOM     28  C   UNL     1       5.106  -0.645  23.816  0.00  0.00    +0.020 A 
ATOM     29  C   UNL     1       2.902   2.000  22.702  0.00  0.00    +0.149 C 
ENDBRANCH  18  20
BRANCH  13  17
ATOM      3  O   UNL     1      -0.983   0.544  22.155  0.00  0.00    -0.274 OA
ATOM     10  N   UNL     1      -2.692  -0.305  23.489  0.00  0.00    -0.301 N 
ATOM     17  C   UNL     1      -1.438  -0.321  22.898  0.00  0.00    +0.234 C 
ATOM     38  H   UNL     1      -2.971  -1.085  24.077  0.00  0.00    +0.150 HD
BRANCH  10  19
ATOM     19  C   UNL     1      -3.643   0.761  23.297  0.00  0.00    +0.184 C 
BRANCH  19  21
ATOM     21  C   UNL     1      -2.972   2.073  22.831  0.00  0.00    +0.014 C 
ATOM     25  C   UNL     1      -2.833   2.113  21.307  0.00  0.00    +0.009 C 
ATOM     26  C   UNL     1      -3.696   3.331  23.324  0.00  0.00    +0.009 C 
ENDBRANCH  19  21
BRANCH  19  23
ATOM      7  O   UNL     1      -4.225   0.484  25.627  0.00  0.00    -0.249 OA
ATOM     23  C   UNL     1      -4.494   0.987  24.541  0.00  0.00    +0.328 C 
BRANCH  23   6
ATOM      6  O   UNL     1      -5.562   1.797  24.297  0.00  0.00    -0.467 OA
ATOM     31  C   UNL     1      -6.341   2.163  25.441  0.00  0.00    +0.280 C 
ENDBRANCH  23   6
ENDBRANCH  19  23
ENDBRANCH  10  19
ENDBRANCH  13  17
TORSDOF 8
ENDMDL
MODEL 2
REMARK VINA RESULT:       7.6      3.313      6.469
REMARK  Name = 7049403
REMARK  12 active torsions:
REMARK  status: ('A' for Active; 'I' for Inactive)
REMARK    1  A    between atoms: O_6  and  C_23
REMARK    2  A    between atoms: O_6  and  C_31
REMARK    3  A    between atoms: N_9  and  C_14
REMARK    4  A    between atoms: N_10  and  C_19
REMARK    5  A    between atoms: N_11  and  C_29
REMARK    6  A    between atoms: N_12  and  C_30
REMARK    7  A    between atoms: C_13  and  C_17
REMARK    8  A    between atoms: C_18  and  C_20
REMARK    9  A    between atoms: C_19  and  C_21
REMARK   10  A    between atoms: C_19  and  C_23
REMARK   11  A    between atoms: C_21  and  C_25
REMARK   12  A    between atoms: C_21  and  C_26
REMARK                            x       y       z     vdW  Elec       q    Type
REMARK                         _______ _______ _______ _____ _____    ______ ____
ROOT
ATOM      4  O   UNL     1      -4.076   0.759  23.590  0.00  0.00    -0.268 OA
ATOM      8  N   UNL     1      -2.378   2.317  23.693  0.00  0.00    -0.283 N 
ATOM     13  C   UNL     1      -1.458   1.569  22.849  0.00  0.00    +0.164 C 
ATOM     14  C   UNL     1      -0.340   3.546  23.680  0.00  0.00    +0.094 C 
ATOM     15  C   UNL     1      -0.331   2.547  22.520  0.00  0.00    +0.056 C 
ATOM     16  C   UNL     1      -1.809   3.607  24.088  0.00  0.00    +0.131 C 
ATOM     18  C   UNL     1      -3.673   1.864  23.959  0.00  0.00    +0.264 C 
ENDROOT
BRANCH  14   9
ATOM      5  O   UNL     1      -1.034   3.528  26.459  0.00  0.00    -0.252 OA
ATOM      9  N   UNL     1       0.499   3.127  24.774  0.00  0.00    -0.295 N 
ATOM     12  N   UNL     1       1.102   2.690  26.948  0.00  0.00    -0.267 N 
ATOM     22  C   UNL     1       0.082   3.150  26.112  0.00  0.00    +0.304 C 
ATOM     37  H   UNL     1       1.456   2.855  24.573  0.00  0.00    +0.151 HD
ATOM     39  H   UNL     1       1.971   2.406  26.501  0.00  0.00    +0.156 HD
BRANCH  12  30
ATOM      1  F   UNL     1       3.393   2.023  28.390  0.00  0.00    -0.203 F 
ATOM      2  F   UNL     1       0.999   2.186  32.468  0.00  0.00    -0.205 F 
ATOM     30  C   UNL     1       1.079   2.559  28.357  0.00  0.00    +0.070 A 
ATOM     32  C   UNL     1       2.242   2.225  29.050  0.00  0.00    +0.147 A 
ATOM     33  C   UNL     1      -0.111   2.766  29.053  0.00  0.00    +0.029 A 
ATOM     34  C   UNL     1       2.215   2.098  30.438  0.00  0.00    +0.078 A 
ATOM     35  C   UNL     1      -0.139   2.640  30.441  0.00  0.00    +0.040 A 
ATOM     36  C   UNL     1       1.025   2.305  31.134  0.00  0.00    +0.126 A 
ENDBRANCH  12  30
ENDBRANCH  14   9
BRANCH  18  20
ATOM     11  N   UNL     1      -5.680   2.374  25.366  0.00  0.00    -0.346 N 
ATOM     20  C   UNL     1      -4.530   2.757  24.728  0.00  0.00    +0.104 A 
ATOM     24  C   UNL     1      -4.353   4.105  24.949  0.00  0.00    +0.032 A 
ATOM     27  C   UNL     1      -6.239   3.456  25.993  0.00  0.00    +0.086 A 
ATOM     28  C   UNL     1      -5.434   4.548  25.750  0.00  0.00    +0.020 A 
ATOM     29  C   UNL     1      -6.232   1.037  25.387  0.00  0.00    +0.149 C 
ENDBRANCH  18  20
BRANCH  13  17
ATOM      3  O   UNL     1       0.252   0.166  23.745  0.00  0.00    -0.274 OA
ATOM     10  N   UNL     1      -1.976  -0.404  24.108  0.00  0.00    -0.301 N 
ATOM     17  C   UNL     1      -0.949   0.384  23.614  0.00  0.00    +0.234 C 
ATOM     38  H   UNL     1      -2.938  -0.119  23.951  0.00  0.00    +0.150 HD
BRANCH  10  19
ATOM     19  C   UNL     1      -1.751  -1.614  24.860  0.00  0.00    +0.184 C 
BRANCH  19  21
ATOM     21  C   UNL     1      -3.069  -2.312  25.263  0.00  0.00    +0.014 C 
ATOM     25  C   UNL     1      -3.897  -1.432  26.203  0.00  0.00    +0.009 C 
ATOM     26  C   UNL     1      -3.919  -2.739  24.061  0.00  0.00    +0.009 C 
ENDBRANCH  19  21
BRANCH  19  23
ATOM      7  O   UNL     1      -1.082  -0.467  26.881  0.00  0.00    -0.249 OA
ATOM     23  C   UNL     1      -0.864  -1.365  26.074  0.00  0.00    +0.328 C 
BRANCH  23   6
ATOM      6  O   UNL     1       0.176  -2.243  26.143  0.00  0.00    -0.467 OA
ATOM     31  C   UNL     1       0.276  -3.176  25.061  0.00  0.00    +0.280 C 
ENDBRANCH  23   6
ENDBRANCH  19  23
ENDBRANCH  10  19
ENDBRANCH  13  17
TORSDOF 8
ENDMDL
MODEL 3
REMARK VINA RESULT:       7.7      2.669      7.370
REMARK  Name = 7049403
REMARK  12 active torsions:
REMARK  status: ('A' for Active; 'I' for Inactive)
REMARK    1  A    between atoms: O_6  and  C_23
REMARK    2  A    between atoms: O_6  and  C_31
REMARK    3  A    between atoms: N_9  and  C_14
REMARK    4  A    between atoms: N_10  and  C_19
REMARK    5  A    between atoms: N_11  and  C_29
REMARK    6  A    between atoms: N_12  and  C_30
REMARK    7  A    between atoms: C_13  and  C_17
REMARK    8  A    between atoms: C_18  and  C_20
REMARK    9  A    between atoms: C_19  and  C_21
REMARK   10  A    between atoms: C_19  and  C_23
REMARK   11  A    between atoms: C_21  and  C_25
REMARK   12  A    between atoms: C_21  and  C_26
REMARK                            x       y       z     vdW  Elec       q    Type
REMARK                         _______ _______ _______ _____ _____    ______ ____
ROOT
ATOM      4  O   UNL     1      -1.942   4.577  23.454  0.00  0.00    -0.268 OA
ATOM      8  N   UNL     1      -1.278   3.429  25.342  0.00  0.00    -0.283 N 
ATOM     13  C   UNL     1       0.133   3.394  24.988  0.00  0.00    +0.164 C 
ATOM     14  C   UNL     1      -0.207   2.123  27.017  0.00  0.00    +0.094 C 
ATOM     15  C   UNL     1       0.850   2.922  26.252  0.00  0.00    +0.056 C 
ATOM     16  C   UNL     1      -1.515   2.817  26.651  0.00  0.00    +0.131 C 
ATOM     18  C   UNL     1      -2.223   4.087  24.549  0.00  0.00    +0.264 C 
ENDROOT
BRANCH  14   9
ATOM      5  O   UNL     1      -2.179   0.800  25.415  0.00  0.00    -0.252 OA
ATOM      9  N   UNL     1      -0.222   0.731  26.645  0.00  0.00    -0.295 N 
ATOM     12  N   UNL     1      -0.980  -1.202  25.659  0.00  0.00    -0.267 N 
ATOM     22  C   UNL     1      -1.228   0.159  25.855  0.00  0.00    +0.304 C 
ATOM     37  H   UNL     1       0.501   0.123  27.018  0.00  0.00    +0.151 HD
ATOM     39  H   UNL     1      -0.140  -1.583  26.089  0.00  0.00    +0.156 HD
BRANCH  12  30
ATOM      1  F   UNL     1      -3.698  -1.557  26.165  0.00  0.00    -0.203 F 
ATOM      2  F   UNL     1      -4.007  -4.837  22.768  0.00  0.00    -0.205 F 
ATOM     30  C   UNL     1      -1.754  -2.129  24.924  0.00  0.00    +0.070 A 
ATOM     32  C   UNL     1      -3.113  -2.284  25.201  0.00  0.00    +0.147 A 
ATOM     33  C   UNL     1      -1.157  -2.890  23.920  0.00  0.00    +0.029 A 
ATOM     34  C   UNL     1      -3.874  -3.198  24.473  0.00  0.00    +0.078 A 
ATOM     35  C   UNL     1      -1.918  -3.805  23.191  0.00  0.00    +0.040 A 
ATOM     36  C   UNL     1      -3.276  -3.959  23.468  0.00  0.00    +0.126 A 
ENDBRANCH  12  30
ENDBRANCH  14   9
BRANCH  18  20
ATOM     11  N   UNL     1      -4.560   3.222  24.794  0.00  0.00    -0.346 N 
ATOM     20  C   UNL     1      -3.583   4.143  25.069  0.00  0.00    +0.104 A 
ATOM     24  C   UNL     1      -4.124   5.096  25.903  0.00  0.00    +0.032 A 
ATOM     27  C   UNL     1      -5.716   3.573  25.442  0.00  0.00    +0.086 A 
ATOM     28  C   UNL     1      -5.473   4.736  26.139  0.00  0.00    +0.020 A 
ATOM     29  C   UNL     1      -4.411   2.054  23.955  0.00  0.00    +0.149 C 
ENDBRANCH  18  20
BRANCH  13  17
ATOM      3  O   UNL     1      -0.605   2.078  23.138  0.00  0.00    -0.274 OA
ATOM     10  N   UNL     1       1.639   1.995  23.754  0.00  0.00    -0.301 N 
ATOM     17  C   UNL     1       0.327   2.430  23.856  0.00  0.00    +0.234 C 
ATOM     38  H   UNL     1       2.335   2.365  24.395  0.00  0.00    +0.150 HD
BRANCH  10  19
ATOM     19  C   UNL     1       2.082   1.048  22.761  0.00  0.00    +0.184 C 
BRANCH  19  21
ATOM     21  C   UNL     1       1.397  -0.329  22.911  0.00  0.00    +0.014 C 
ATOM     25  C   UNL     1       0.899  -0.850  21.560  0.00  0.00    +0.009 C 
ATOM     26  C   UNL     1       2.289  -1.379  23.581  0.00  0.00    +0.009 C 
ENDBRANCH  19  21
BRANCH  19  23
ATOM      7  O   UNL     1       4.253   0.844  21.716  0.00  0.00    -0.249 OA
ATOM     23  C   UNL     1       3.601   0.911  22.752  0.00  0.00    +0.328 C 
BRANCH  23   6
ATOM      6  O   UNL     1       4.123   0.874  24.010  0.00  0.00    -0.467 OA
ATOM     31  C   UNL     1       5.397   0.233  24.136  0.00  0.00    +0.280 C 
ENDBRANCH  23   6
ENDBRANCH  19  23
ENDBRANCH  10  19
ENDBRANCH  13  17
TORSDOF 8
ENDMDL
MODEL 4
REMARK VINA RESULT:       8.8      3.065      6.817
REMARK  Name = 7049403
REMARK  12 active torsions:
REMARK  status: ('A' for Active; 'I' for Inactive)
REMARK    1  A    between atoms: O_6  and  C_23
REMARK    2  A    between atoms: O_6  and  C_31
REMARK    3  A    between atoms: N_9  and  C_14
REMARK    4  A    between atoms: N_10  and  C_19
REMARK    5  A    between atoms: N_11  and  C_29
REMARK    6  A    between atoms: N_12  and  C_30
REMARK    7  A    between atoms: C_13  and  C_17
REMARK    8  A    between atoms: C_18  and  C_20
REMARK    9  A    between atoms: C_19  and  C_21
REMARK   10  A    between atoms: C_19  and  C_23
REMARK   11  A    between atoms: C_21  and  C_25
REMARK   12  A    between atoms: C_21  and  C_26
REMARK                            x       y       z     vdW  Elec       q    Type
REMARK                         _______ _______ _______ _____ _____    ______ ____
ROOT
ATOM      4  O   UNL     1      -5.058   1.292  25.066  0.00  0.00    -0.268 OA
ATOM      8  N   UNL     1      -3.238   1.764  23.730  0.00  0.00    -0.283 N 
ATOM     13  C   UNL     1      -3.599   0.829  22.675  0.00  0.00    +0.164 C 
ATOM     14  C   UNL     1      -1.449   1.812  22.161  0.00  0.00    +0.094 C 
ATOM     15  C   UNL     1      -2.675   1.168  21.507  0.00  0.00    +0.056 C 
ATOM     16  C   UNL     1      -2.026   2.512  23.387  0.00  0.00    +0.131 C 
ATOM     18  C   UNL     1      -4.051   1.967  24.849  0.00  0.00    +0.264 C 
ENDROOT
BRANCH  14   9
ATOM      5  O   UNL     1       1.337   2.314  22.589  0.00  0.00    -0.252 OA
ATOM      9  N   UNL     1      -0.446   0.843  22.523  0.00  0.00    -0.295 N 
ATOM     12  N   UNL     1       1.638   0.034  23.058  0.00  0.00    -0.267 N 
ATOM     22  C   UNL     1       0.903   1.172  22.715  0.00  0.00    +0.304 C 
ATOM     37  H   UNL     1      -0.718  -0.133  22.590  0.00  0.00    +0.151 HD
ATOM     39  H   UNL     1       1.125  -0.841  23.127  0.00  0.00    +0.156 HD
BRANCH  12  30
ATOM      1  F   UNL     1       2.757  -2.255  24.189  0.00  0.00    -0.203 F 
ATOM      2  F   UNL     1       7.068  -0.306  24.123  0.00  0.00    -0.205 F 
ATOM     30  C   UNL     1       3.023  -0.055  23.331  0.00  0.00    +0.070 A 
ATOM     32  C   UNL     1       3.552  -1.215  23.898  0.00  0.00    +0.147 A 
ATOM     33  C   UNL     1       3.859   1.020  23.033  0.00  0.00    +0.029 A 
ATOM     34  C   UNL     1       4.919  -1.299  24.165  0.00  0.00    +0.078 A 
ATOM     35  C   UNL     1       5.226   0.935  23.301  0.00  0.00    +0.040 A 
ATOM     36  C   UNL     1       5.756  -0.225  23.867  0.00  0.00    +0.126 A 
ENDBRANCH  12  30
ENDBRANCH  14   9
BRANCH  18  20
ATOM     11  N   UNL     1      -4.398   4.086  26.136  0.00  0.00    -0.346 N 
ATOM     20  C   UNL     1      -3.631   3.009  25.777  0.00  0.00    +0.104 A 
ATOM     24  C   UNL     1      -2.430   3.105  26.443  0.00  0.00    +0.032 A 
ATOM     27  C   UNL     1      -3.705   4.869  27.022  0.00  0.00    +0.086 A 
ATOM     28  C   UNL     1      -2.476   4.282  27.231  0.00  0.00    +0.020 A 
ATOM     29  C   UNL     1      -5.735   4.369  25.663  0.00  0.00    +0.149 C 
ENDBRANCH  18  20
BRANCH  13  17
ATOM      3  O   UNL     1      -4.145  -1.484  22.897  0.00  0.00    -0.274 OA
ATOM     10  N   UNL     1      -2.231  -0.675  23.946  0.00  0.00    -0.301 N 
ATOM     17  C   UNL     1      -3.371  -0.570  23.165  0.00  0.00    +0.234 C 
ATOM     38  H   UNL     1      -1.653   0.148  24.091  0.00  0.00    +0.150 HD
BRANCH  10  19
ATOM     19  C   UNL     1      -1.802  -1.909  24.557  0.00  0.00    +0.184 C 
BRANCH  19  21
ATOM     21  C   UNL     1      -2.869  -2.500  25.505  0.00  0.00    +0.014 C 
ATOM     25  C   UNL     1      -3.605  -1.395  26.268  0.00  0.00    +0.009 C 
ATOM     26  C   UNL     1      -3.878  -3.405  24.791  0.00  0.00    +0.009 C 
ENDBRANCH  19  21
BRANCH  19  23
ATOM      7  O   UNL     1       0.116  -2.686  25.807  0.00  0.00    -0.249 OA
ATOM     23  C   UNL     1      -0.461  -1.750  25.263  0.00  0.00    +0.328 C 
BRANCH  23   6
ATOM      6  O   UNL     1       0.000  -0.469  25.215  0.00  0.00    -0.467 OA
ATOM     31  C   UNL     1      -0.613   0.449  26.126  0.00  0.00    +0.280 C 
ENDBRANCH  23   6
ENDBRANCH  19  23
ENDBRANCH  10  19
ENDBRANCH  13  17
TORSDOF 8
ENDMDL
MODEL 5
REMARK VINA RESULT:       9.0      1.496      2.745
REMARK  Name = 7049403
REMARK  12 active torsions:
REMARK  status: ('A' for Active; 'I' for Inactive)
REMARK    1  A    between atoms: O_6  and  C_23
REMARK    2  A    between atoms: O_6  and  C_31
REMARK    3  A    between atoms: N_9  and  C_14
REMARK    4  A    between atoms: N_10  and  C_19
REMARK    5  A    between atoms: N_11  and  C_29
REMARK    6  A    between atoms: N_12  and  C_30
REMARK    7  A    between atoms: C_13  and  C_17
REMARK    8  A    between atoms: C_18  and  C_20
REMARK    9  A    between atoms: C_19  and  C_21
REMARK   10  A    between atoms: C_19  and  C_23
REMARK   11  A    between atoms: C_21  and  C_25
REMARK   12  A    between atoms: C_21  and  C_26
REMARK                            x       y       z     vdW  Elec       q    Type
REMARK                         _______ _______ _______ _____ _____    ______ ____
ROOT
ATOM      4  O   UNL     1       1.744  -0.327  21.312  0.00  0.00    -0.268 OA
ATOM      8  N   UNL     1       0.857  -0.959  23.346  0.00  0.00    -0.283 N 
ATOM     13  C   UNL     1      -0.488  -1.190  22.840  0.00  0.00    +0.164 C 
ATOM     14  C   UNL     1      -0.483  -1.485  25.241  0.00  0.00    +0.094 C 
ATOM     15  C   UNL     1      -1.221  -1.911  23.969  0.00  0.00    +0.056 C 
ATOM     16  C   UNL     1       0.955  -1.289  24.770  0.00  0.00    +0.131 C 
ATOM     18  C   UNL     1       1.911  -0.589  22.505  0.00  0.00    +0.264 C 
ENDROOT
BRANCH  14   9
ATOM      5  O   UNL     1      -2.930  -0.191  24.508  0.00  0.00    -0.252 OA
ATOM      9  N   UNL     1      -1.024  -0.280  25.815  0.00  0.00    -0.295 N 
ATOM     12  N   UNL     1      -2.503   1.451  26.130  0.00  0.00    -0.267 N 
ATOM     22  C   UNL     1      -2.233   0.292  25.398  0.00  0.00    +0.304 C 
ATOM     37  H   UNL     1      -0.477   0.210  26.516  0.00  0.00    +0.151 HD
ATOM     39  H   UNL     1      -1.824   1.714  26.840  0.00  0.00    +0.156 HD
BRANCH  12  30
ATOM      1  F   UNL     1      -2.291   4.187  26.619  0.00  0.00    -0.203 F 
ATOM      2  F   UNL     1      -6.882   4.818  25.664  0.00  0.00    -0.205 F 
ATOM     30  C   UNL     1      -3.619   2.312  26.013  0.00  0.00    +0.070 A 
ATOM     32  C   UNL     1      -3.480   3.678  26.264  0.00  0.00    +0.147 A 
ATOM     33  C   UNL     1      -4.860   1.794  25.645  0.00  0.00    +0.029 A 
ATOM     34  C   UNL     1      -4.583   4.524  26.146  0.00  0.00    +0.078 A 
ATOM     35  C   UNL     1      -5.963   2.640  25.527  0.00  0.00    +0.040 A 
ATOM     36  C   UNL     1      -5.824   4.006  25.779  0.00  0.00    +0.126 A 
ENDBRANCH  12  30
ENDBRANCH  14   9
BRANCH  18  20
ATOM     11  N   UNL     1       4.002   0.635  23.133  0.00  0.00    -0.346 N 
ATOM     20  C   UNL     1       3.230  -0.496  23.117  0.00  0.00    +0.104 A 
ATOM     24  C   UNL     1       3.924  -1.491  23.769  0.00  0.00    +0.032 A 
ATOM     27  C   UNL     1       5.179   0.378  23.787  0.00  0.00    +0.086 A 
ATOM     28  C   UNL     1       5.158  -0.938  24.193  0.00  0.00    +0.020 A 
ATOM     29  C   UNL     1       3.646   1.912  22.556  0.00  0.00    +0.149 C 
ENDBRANCH  18  20
BRANCH  13  17
ATOM      3  O   UNL     1      -2.140   0.217  21.846  0.00  0.00    -0.274 OA
ATOM     10  N   UNL     1      -0.425   1.195  23.080  0.00  0.00    -0.301 N 
ATOM     17  C   UNL     1      -1.124   0.132  22.530  0.00  0.00    +0.234 C 
ATOM     38  H   UNL     1       0.399   1.006  23.645  0.00  0.00    +0.150 HD
BRANCH  10  19
ATOM     19  C   UNL     1      -0.817   2.572  22.910  0.00  0.00    +0.184 C 
BRANCH  19  21
ATOM     21  C   UNL     1      -0.728   3.378  24.224  0.00  0.00    +0.014 C 
ATOM     25  C   UNL     1       0.325   2.788  25.166  0.00  0.00    +0.009 C 
ATOM     26  C   UNL     1      -0.454   4.870  24.001  0.00  0.00    +0.009 C 
ENDBRANCH  19  21
BRANCH  19  23
ATOM      7  O   UNL     1      -2.404   2.502  21.087  0.00  0.00    -0.249 OA
ATOM     23  C   UNL     1      -2.201   2.688  22.282  0.00  0.00    +0.328 C 
BRANCH  23   6
ATOM      6  O   UNL     1      -3.157   3.019  23.196  0.00  0.00    -0.467 OA
ATOM     31  C   UNL     1      -4.245   3.807  22.702  0.00  0.00    +0.280 C 
ENDBRANCH  23   6
ENDBRANCH  19  23
ENDBRANCH  10  19
ENDBRANCH  13  17
TORSDOF 8
ENDMDL
MODEL 6
REMARK VINA RESULT:       9.5      2.870      7.125
REMARK  Name = 7049403
REMARK  12 active torsions:
REMARK  status: ('A' for Active; 'I' for Inactive)
REMARK    1  A    between atoms: O_6  and  C_23
REMARK    2  A    between atoms: O_6  and  C_31
REMARK    3  A    between atoms: N_9  and  C_14
REMARK    4  A    between atoms: N_10  and  C_19
REMARK    5  A    between atoms: N_11  and  C_29
REMARK    6  A    between atoms: N_12  and  C_30
REMARK    7  A    between atoms: C_13  and  C_17
REMARK    8  A    between atoms: C_18  and  C_20
REMARK    9  A    between atoms: C_19  and  C_21
REMARK   10  A    between atoms: C_19  and  C_23
REMARK   11  A    between atoms: C_21  and  C_25
REMARK   12  A    between atoms: C_21  and  C_26
REMARK                            x       y       z     vdW  Elec       q    Type
REMARK                         _______ _______ _______ _____ _____    ______ ____
ROOT
ATOM      4  O   UNL     1      -5.670   1.021  25.660  0.00  0.00    -0.268 OA
ATOM      8  N   UNL     1      -4.126   1.664  24.070  0.00  0.00    -0.283 N 
ATOM     13  C   UNL     1      -3.818   0.312  23.628  0.00  0.00    +0.164 C 
ATOM     14  C   UNL     1      -2.368   1.872  22.481  0.00  0.00    +0.094 C 
ATOM     15  C   UNL     1      -3.006   0.487  22.345  0.00  0.00    +0.056 C 
ATOM     16  C   UNL     1      -3.395   2.661  23.286  0.00  0.00    +0.131 C 
ATOM     18  C   UNL     1      -5.098   1.921  25.042  0.00  0.00    +0.264 C 
ENDROOT
BRANCH  14   9
ATOM      5  O   UNL     1      -0.083   0.334  21.696  0.00  0.00    -0.252 OA
ATOM      9  N   UNL     1      -1.090   1.826  23.146  0.00  0.00    -0.295 N 
ATOM     12  N   UNL     1       1.086   1.200  23.537  0.00  0.00    -0.267 N 
ATOM     22  C   UNL     1      -0.019   1.044  22.696  0.00  0.00    +0.304 C 
ATOM     37  H   UNL     1      -0.979   2.343  24.013  0.00  0.00    +0.151 HD
ATOM     39  H   UNL     1       0.978   1.835  24.325  0.00  0.00    +0.156 HD
BRANCH  12  30
ATOM      1  F   UNL     1       3.326   2.623  22.683  0.00  0.00    -0.203 F 
ATOM      2  F   UNL     1       6.057  -1.217  23.113  0.00  0.00    -0.205 F 
ATOM     30  C   UNL     1       2.355   0.586  23.427  0.00  0.00    +0.070 A 
ATOM     32  C   UNL     1       3.457   1.325  22.996  0.00  0.00    +0.147 A 
ATOM     33  C   UNL     1       2.504  -0.762  23.750  0.00  0.00    +0.029 A 
ATOM     34  C   UNL     1       4.708   0.716  22.890  0.00  0.00    +0.078 A 
ATOM     35  C   UNL     1       3.754  -1.372  23.644  0.00  0.00    +0.040 A 
ATOM     36  C   UNL     1       4.856  -0.632  23.214  0.00  0.00    +0.126 A 
ENDBRANCH  12  30
ENDBRANCH  14   9
BRANCH  18  20
ATOM     11  N   UNL     1      -4.500   4.207  25.867  0.00  0.00    -0.346 N 
ATOM     20  C   UNL     1      -5.389   3.322  25.317  0.00  0.00    +0.104 A 
ATOM     24  C   UNL     1      -6.567   3.995  25.085  0.00  0.00    +0.032 A 
ATOM     27  C   UNL     1      -5.093   5.437  25.990  0.00  0.00    +0.086 A 
ATOM     28  C   UNL     1      -6.381   5.334  25.511  0.00  0.00    +0.020 A 
ATOM     29  C   UNL     1      -3.142   3.909  26.263  0.00  0.00    +0.149 C 
ENDBRANCH  18  20
BRANCH  13  17
ATOM      3  O   UNL     1      -3.552  -0.894  25.670  0.00  0.00    -0.274 OA
ATOM     10  N   UNL     1      -1.656  -0.334  24.440  0.00  0.00    -0.301 N 
ATOM     17  C   UNL     1      -3.019  -0.378  24.692  0.00  0.00    +0.234 C 
ATOM     38  H   UNL     1      -1.325   0.109  23.587  0.00  0.00    +0.150 HD
BRANCH  10  19
ATOM     19  C   UNL     1      -0.670  -0.906  25.323  0.00  0.00    +0.184 C 
BRANCH  19  21
ATOM     21  C   UNL     1      -0.817  -2.438  25.457  0.00  0.00    +0.014 C 
ATOM     25  C   UNL     1      -1.624  -3.022  24.295  0.00  0.00    +0.009 C 
ATOM     26  C   UNL     1       0.527  -3.165  25.579  0.00  0.00    +0.009 C 
ENDBRANCH  19  21
BRANCH  19  23
ATOM      7  O   UNL     1      -0.418  -0.826  27.726  0.00  0.00    -0.249 OA
ATOM     23  C   UNL     1      -0.677  -0.227  26.688  0.00  0.00    +0.328 C 
BRANCH  23   6
ATOM      6  O   UNL     1      -1.000   1.094  26.606  0.00  0.00    -0.467 OA
ATOM     31  C   UNL     1       0.099   2.010  26.673  0.00  0.00    +0.280 C 
ENDBRANCH  23   6
ENDBRANCH  19  23
ENDBRANCH  10  19
ENDBRANCH  13  17
TORSDOF 8
ENDMDL
