MODEL 1
REMARK VINA RESULT:      -5.4      0.000      0.000
REMARK  Name = 75536292
REMARK  10 active torsions:
REMARK  status: ('A' for Active; 'I' for Inactive)
REMARK    1  A    between atoms: O_3  and  C_9
REMARK    2  A    between atoms: O_5  and  C_20
REMARK    3  A    between atoms: O_5  and  C_26
REMARK    4  A    between atoms: N_6  and  C_13
REMARK    5  A    between atoms: N_6  and  C_16
REMARK    6  A    between atoms: C_8  and  C_13
REMARK    7  A    between atoms: C_10  and  C_14
REMARK    8  A    between atoms: C_14  and  C_15
REMARK    9  A    between atoms: C_16  and  C_18
REMARK   10  A    between atoms: C_19  and  C_20
REMARK                            x       y       z     vdW  Elec       q    Type
REMARK                         _______ _______ _______ _____ _____    ______ ____
ROOT
ATOM      2  O   UNL     1      -3.506   0.224  23.578  0.00  0.00    -0.369 OA
ATOM      8  C   UNL     1      -4.400  -0.355  24.537  0.00  0.00    +0.161 C 
ATOM      9  C   UNL     1      -3.752  -1.542  25.259  0.00  0.00    +0.145 C 
ATOM     10  C   UNL     1      -2.240   0.635  24.097  0.00  0.00    +0.125 C 
ATOM     11  C   UNL     1      -2.365  -1.207  25.800  0.00  0.00    +0.036 C 
ATOM     12  C   UNL     1      -1.505  -0.549  24.726  0.00  0.00    +0.034 C 
ENDROOT
BRANCH   9   3
ATOM      3  O   UNL     1      -3.610  -2.624  24.333  0.00  0.00    -0.389 OA
ATOM     28  H   UNL     1      -2.712  -2.578  23.964  0.00  0.00    +0.210 HD
ENDBRANCH   9   3
BRANCH   8  13
ATOM     13  C   UNL     1      -4.940   0.705  25.495  0.00  0.00    +0.115 C 
BRANCH  13   6
ATOM      6  N   UNL     1      -5.292   1.922  24.779  0.00  0.00    -0.309 NA
ATOM     27  H   UNL     1      -4.747   1.973  23.918  0.00  0.00    +0.122 HD
BRANCH   6  16
ATOM     16  C   UNL     1      -5.039   3.101  25.597  0.00  0.00    +0.116 C 
BRANCH  16  18
ATOM      1  F   UNL     1      -0.299   2.782  26.715  0.00  0.00    -0.205 F 
ATOM     18  C   UNL     1      -3.620   3.583  25.461  0.00  0.00    -0.031 A 
ATOM     21  C   UNL     1      -2.597   2.946  26.164  0.00  0.00    +0.043 A 
ATOM     22  C   UNL     1      -3.327   4.667  24.633  0.00  0.00    +0.005 A 
ATOM     23  C   UNL     1      -1.281   3.393  26.039  0.00  0.00    +0.124 A 
ATOM     24  C   UNL     1      -2.011   5.113  24.508  0.00  0.00    +0.003 A 
ATOM     25  C   UNL     1      -0.988   4.477  25.211  0.00  0.00    +0.038 A 
ENDBRANCH  16  18
ENDBRANCH   6  16
ENDBRANCH  13   6
ENDBRANCH   8  13
BRANCH  10  14
ATOM     14  C   UNL     1      -1.437   1.221  22.942  0.00  0.00    +0.090 C 
BRANCH  14  15
ATOM      4  O   UNL     1       2.059   1.321  23.811  0.00  0.00    -0.357 OA
ATOM      7  N   UNL     1       0.763   1.820  23.866  0.00  0.00    -0.083 NA
ATOM     15  C   UNL     1       0.040   0.987  23.112  0.00  0.00    +0.086 A 
ATOM     17  C   UNL     1       0.817  -0.046  22.562  0.00  0.00    +0.073 A 
ATOM     19  C   UNL     1       2.079   0.210  23.032  0.00  0.00    +0.163 A 
BRANCH  19  20
ATOM     20  C   UNL     1       3.379  -0.449  22.865  0.00  0.00    +0.236 C 
BRANCH  20   5
ATOM      5  O   UNL     1       4.431   0.521  22.865  0.00  0.00    -0.375 OA
ATOM     26  C   UNL     1       5.462   0.158  23.769  0.00  0.00    +0.194 C 
ENDBRANCH  20   5
ENDBRANCH  19  20
ENDBRANCH  14  15
ENDBRANCH  10  14
TORSDOF 9
ENDMDL
MODEL 2
REMARK VINA RESULT:      -5.4      1.987      4.277
REMARK  Name = 75536292
REMARK  10 active torsions:
REMARK  status: ('A' for Active; 'I' for Inactive)
REMARK    1  A    between atoms: O_3  and  C_9
REMARK    2  A    between atoms: O_5  and  C_20
REMARK    3  A    between atoms: O_5  and  C_26
REMARK    4  A    between atoms: N_6  and  C_13
REMARK    5  A    between atoms: N_6  and  C_16
REMARK    6  A    between atoms: C_8  and  C_13
REMARK    7  A    between atoms: C_10  and  C_14
REMARK    8  A    between atoms: C_14  and  C_15
REMARK    9  A    between atoms: C_16  and  C_18
REMARK   10  A    between atoms: C_19  and  C_20
REMARK                            x       y       z     vdW  Elec       q    Type
REMARK                         _______ _______ _______ _____ _____    ______ ____
ROOT
ATOM      2  O   UNL     1      -2.202   2.327  25.682  0.00  0.00    -0.369 OA
ATOM      8  C   UNL     1      -3.478   2.903  25.374  0.00  0.00    +0.161 C 
ATOM      9  C   UNL     1      -3.443   4.432  25.489  0.00  0.00    +0.145 C 
ATOM     10  C   UNL     1      -1.108   2.824  24.908  0.00  0.00    +0.125 C 
ATOM     11  C   UNL     1      -2.267   5.045  24.735  0.00  0.00    +0.036 C 
ATOM     12  C   UNL     1      -0.963   4.335  25.086  0.00  0.00    +0.034 C 
ENDROOT
BRANCH   9   3
ATOM      3  O   UNL     1      -3.310   4.788  26.868  0.00  0.00    -0.389 OA
ATOM     28  H   UNL     1      -4.200   4.974  27.211  0.00  0.00    +0.210 HD
ENDBRANCH   9   3
BRANCH   8  13
ATOM     13  C   UNL     1      -3.988   2.417  24.020  0.00  0.00    +0.115 C 
BRANCH  13   6
ATOM      6  N   UNL     1      -5.024   1.409  24.185  0.00  0.00    -0.309 NA
ATOM     27  H   UNL     1      -5.927   1.871  24.289  0.00  0.00    +0.122 HD
BRANCH   6  16
ATOM     16  C   UNL     1      -4.758   0.572  25.348  0.00  0.00    +0.116 C 
BRANCH  16  18
ATOM      1  F   UNL     1      -0.582  -1.931  25.679  0.00  0.00    -0.205 F 
ATOM     18  C   UNL     1      -3.907  -0.619  24.999  0.00  0.00    -0.031 A 
ATOM     21  C   UNL     1      -2.614  -0.725  25.511  0.00  0.00    +0.043 A 
ATOM     22  C   UNL     1      -4.411  -1.617  24.166  0.00  0.00    +0.005 A 
ATOM     23  C   UNL     1      -1.824  -1.830  25.189  0.00  0.00    +0.124 A 
ATOM     24  C   UNL     1      -3.621  -2.721  23.844  0.00  0.00    +0.003 A 
ATOM     25  C   UNL     1      -2.327  -2.828  24.355  0.00  0.00    +0.038 A 
ENDBRANCH  16  18
ENDBRANCH   6  16
ENDBRANCH  13   6
ENDBRANCH   8  13
BRANCH  10  14
ATOM     14  C   UNL     1       0.150   2.099  25.373  0.00  0.00    +0.090 C 
BRANCH  14  15
ATOM      4  O   UNL     1       0.931  -0.177  22.689  0.00  0.00    -0.357 OA
ATOM      7  N   UNL     1       0.070   0.349  23.644  0.00  0.00    -0.083 NA
ATOM     15  C   UNL     1       0.777   1.301  24.261  0.00  0.00    +0.086 A 
ATOM     17  C   UNL     1       2.078   1.420  23.743  0.00  0.00    +0.073 A 
ATOM     19  C   UNL     1       2.123   0.468  22.758  0.00  0.00    +0.163 A 
BRANCH  19  20
ATOM     20  C   UNL     1       3.158   0.034  21.811  0.00  0.00    +0.236 C 
BRANCH  20   5
ATOM      5  O   UNL     1       4.402   0.676  22.107  0.00  0.00    -0.375 OA
ATOM     26  C   UNL     1       5.046   0.061  23.210  0.00  0.00    +0.194 C 
ENDBRANCH  20   5
ENDBRANCH  19  20
ENDBRANCH  14  15
ENDBRANCH  10  14
TORSDOF 9
ENDMDL
MODEL 3
REMARK VINA RESULT:      -5.1      2.537      5.969
REMARK  Name = 75536292
REMARK  10 active torsions:
REMARK  status: ('A' for Active; 'I' for Inactive)
REMARK    1  A    between atoms: O_3  and  C_9
REMARK    2  A    between atoms: O_5  and  C_20
REMARK    3  A    between atoms: O_5  and  C_26
REMARK    4  A    between atoms: N_6  and  C_13
REMARK    5  A    between atoms: N_6  and  C_16
REMARK    6  A    between atoms: C_8  and  C_13
REMARK    7  A    between atoms: C_10  and  C_14
REMARK    8  A    between atoms: C_14  and  C_15
REMARK    9  A    between atoms: C_16  and  C_18
REMARK   10  A    between atoms: C_19  and  C_20
REMARK                            x       y       z     vdW  Elec       q    Type
REMARK                         _______ _______ _______ _____ _____    ______ ____
ROOT
ATOM      2  O   UNL     1      -2.800   0.151  25.094  0.00  0.00    -0.369 OA
ATOM      8  C   UNL     1      -1.825  -0.858  24.803  0.00  0.00    +0.161 C 
ATOM      9  C   UNL     1      -2.470  -2.246  24.704  0.00  0.00    +0.145 C 
ATOM     10  C   UNL     1      -3.900   0.216  24.183  0.00  0.00    +0.125 C 
ATOM     11  C   UNL     1      -3.692  -2.256  23.790  0.00  0.00    +0.036 C 
ATOM     12  C   UNL     1      -4.645  -1.117  24.141  0.00  0.00    +0.034 C 
ENDROOT
BRANCH   9   3
ATOM      3  O   UNL     1      -2.897  -2.649  26.008  0.00  0.00    -0.389 OA
ATOM     28  H   UNL     1      -2.221  -2.357  26.643  0.00  0.00    +0.210 HD
ENDBRANCH   9   3
BRANCH   8  13
ATOM     13  C   UNL     1      -1.006  -0.491  23.567  0.00  0.00    +0.115 C 
BRANCH  13   6
ATOM      6  N   UNL     1       0.417  -0.489  23.868  0.00  0.00    -0.309 NA
ATOM     27  H   UNL     1       0.606   0.206  24.591  0.00  0.00    +0.122 HD
BRANCH   6  16
ATOM     16  C   UNL     1       1.203  -0.191  22.678  0.00  0.00    +0.116 C 
BRANCH  16  18
ATOM      1  F   UNL     1       5.334  -2.251  24.264  0.00  0.00    -0.205 F 
ATOM     18  C   UNL     1       2.676  -0.122  22.981  0.00  0.00    -0.031 A 
ATOM     21  C   UNL     1       3.335  -1.241  23.491  0.00  0.00    +0.043 A 
ATOM     22  C   UNL     1       3.381   1.059  22.752  0.00  0.00    +0.005 A 
ATOM     23  C   UNL     1       4.701  -1.178  23.772  0.00  0.00    +0.124 A 
ATOM     24  C   UNL     1       4.747   1.121  23.032  0.00  0.00    +0.003 A 
ATOM     25  C   UNL     1       5.407   0.003  23.543  0.00  0.00    +0.038 A 
ENDBRANCH  16  18
ENDBRANCH   6  16
ENDBRANCH  13   6
ENDBRANCH   8  13
BRANCH  10  14
ATOM     14  C   UNL     1      -4.819   1.338  24.651  0.00  0.00    +0.090 C 
BRANCH  14  15
ATOM      4  O   UNL     1      -3.469   4.267  26.260  0.00  0.00    -0.357 OA
ATOM      7  N   UNL     1      -4.369   3.211  26.182  0.00  0.00    -0.083 NA
ATOM     15  C   UNL     1      -4.043   2.561  25.061  0.00  0.00    +0.086 A 
ATOM     17  C   UNL     1      -2.956   3.155  24.397  0.00  0.00    +0.073 A 
ATOM     19  C   UNL     1      -2.633   4.223  25.192  0.00  0.00    +0.163 A 
BRANCH  19  20
ATOM     20  C   UNL     1      -1.612   5.275  25.116  0.00  0.00    +0.236 C 
BRANCH  20   5
ATOM      5  O   UNL     1      -0.337   4.706  24.805  0.00  0.00    -0.375 OA
ATOM     26  C   UNL     1      -0.172   3.445  25.431  0.00  0.00    +0.194 C 
ENDBRANCH  20   5
ENDBRANCH  19  20
ENDBRANCH  14  15
ENDBRANCH  10  14
TORSDOF 9
ENDMDL
MODEL 4
REMARK VINA RESULT:      -4.9      2.287      4.303
REMARK  Name = 75536292
REMARK  10 active torsions:
REMARK  status: ('A' for Active; 'I' for Inactive)
REMARK    1  A    between atoms: O_3  and  C_9
REMARK    2  A    between atoms: O_5  and  C_20
REMARK    3  A    between atoms: O_5  and  C_26
REMARK    4  A    between atoms: N_6  and  C_13
REMARK    5  A    between atoms: N_6  and  C_16
REMARK    6  A    between atoms: C_8  and  C_13
REMARK    7  A    between atoms: C_10  and  C_14
REMARK    8  A    between atoms: C_14  and  C_15
REMARK    9  A    between atoms: C_16  and  C_18
REMARK   10  A    between atoms: C_19  and  C_20
REMARK                            x       y       z     vdW  Elec       q    Type
REMARK                         _______ _______ _______ _____ _____    ______ ____
ROOT
ATOM      2  O   UNL     1      -1.976   1.348  24.880  0.00  0.00    -0.369 OA
ATOM      8  C   UNL     1      -2.640   2.579  25.193  0.00  0.00    +0.161 C 
ATOM      9  C   UNL     1      -1.631   3.699  25.479  0.00  0.00    +0.145 C 
ATOM     10  C   UNL     1      -1.045   1.417  23.798  0.00  0.00    +0.125 C 
ATOM     11  C   UNL     1      -0.562   3.808  24.396  0.00  0.00    +0.036 C 
ATOM     12  C   UNL     1       0.049   2.443  24.093  0.00  0.00    +0.034 C 
ENDROOT
BRANCH   9   3
ATOM      3  O   UNL     1      -0.972   3.422  26.717  0.00  0.00    -0.389 OA
ATOM     28  H   UNL     1      -0.654   2.504  26.682  0.00  0.00    +0.210 HD
ENDBRANCH   9   3
BRANCH   8  13
ATOM     13  C   UNL     1      -3.654   2.948  24.113  0.00  0.00    +0.115 C 
BRANCH  13   6
ATOM      6  N   UNL     1      -4.754   1.996  24.085  0.00  0.00    -0.309 NA
ATOM     27  H   UNL     1      -5.630   2.501  23.947  0.00  0.00    +0.122 HD
BRANCH   6  16
ATOM     16  C   UNL     1      -4.814   1.231  25.323  0.00  0.00    +0.116 C 
BRANCH  16  18
ATOM      1  F   UNL     1      -4.459  -2.833  22.644  0.00  0.00    -0.205 F 
ATOM     18  C   UNL     1      -4.331  -0.183  25.133  0.00  0.00    -0.031 A 
ATOM     21  C   UNL     1      -4.624  -0.866  23.953  0.00  0.00    +0.043 A 
ATOM     22  C   UNL     1      -3.591  -0.808  26.136  0.00  0.00    +0.005 A 
ATOM     23  C   UNL     1      -4.177  -2.176  23.776  0.00  0.00    +0.124 A 
ATOM     24  C   UNL     1      -3.144  -2.117  25.959  0.00  0.00    +0.003 A 
ATOM     25  C   UNL     1      -3.436  -2.802  24.779  0.00  0.00    +0.038 A 
ENDBRANCH  16  18
ENDBRANCH   6  16
ENDBRANCH  13   6
ENDBRANCH   8  13
BRANCH  10  14
ATOM     14  C   UNL     1      -0.450   0.026  23.614  0.00  0.00    +0.090 C 
BRANCH  14  15
ATOM      4  O   UNL     1       2.409  -0.148  21.426  0.00  0.00    -0.357 OA
ATOM      7  N   UNL     1       1.060  -0.334  21.705  0.00  0.00    -0.083 NA
ATOM     15  C   UNL     1       0.908   0.081  22.966  0.00  0.00    +0.086 A 
ATOM     17  C   UNL     1       2.113   0.535  23.528  0.00  0.00    +0.073 A 
ATOM     19  C   UNL     1       3.025   0.370  22.518  0.00  0.00    +0.163 A 
BRANCH  19  20
ATOM     20  C   UNL     1       4.465   0.631  22.396  0.00  0.00    +0.236 C 
BRANCH  20   5
ATOM      5  O   UNL     1       5.051   0.794  23.691  0.00  0.00    -0.375 OA
ATOM     26  C   UNL     1       5.608  -0.423  24.158  0.00  0.00    +0.194 C 
ENDBRANCH  20   5
ENDBRANCH  19  20
ENDBRANCH  14  15
ENDBRANCH  10  14
TORSDOF 9
ENDMDL
MODEL 5
REMARK VINA RESULT:      -4.7      2.693      6.261
REMARK  Name = 75536292
REMARK  10 active torsions:
REMARK  status: ('A' for Active; 'I' for Inactive)
REMARK    1  A    between atoms: O_3  and  C_9
REMARK    2  A    between atoms: O_5  and  C_20
REMARK    3  A    between atoms: O_5  and  C_26
REMARK    4  A    between atoms: N_6  and  C_13
REMARK    5  A    between atoms: N_6  and  C_16
REMARK    6  A    between atoms: C_8  and  C_13
REMARK    7  A    between atoms: C_10  and  C_14
REMARK    8  A    between atoms: C_14  and  C_15
REMARK    9  A    between atoms: C_16  and  C_18
REMARK   10  A    between atoms: C_19  and  C_20
REMARK                            x       y       z     vdW  Elec       q    Type
REMARK                         _______ _______ _______ _____ _____    ______ ____
ROOT
ATOM      2  O   UNL     1      -0.293   1.045  23.364  0.00  0.00    -0.369 OA
ATOM      8  C   UNL     1       0.104  -0.329  23.277  0.00  0.00    +0.161 C 
ATOM      9  C   UNL     1       1.464  -0.474  22.583  0.00  0.00    +0.145 C 
ATOM     10  C   UNL     1       0.648   1.911  24.005  0.00  0.00    +0.125 C 
ATOM     11  C   UNL     1       2.519   0.459  23.170  0.00  0.00    +0.036 C 
ATOM     12  C   UNL     1       1.989   1.886  23.273  0.00  0.00    +0.034 C 
ENDROOT
BRANCH   9   3
ATOM      3  O   UNL     1       1.313  -0.147  21.199  0.00  0.00    -0.389 OA
ATOM     28  H   UNL     1       1.043  -0.957  20.734  0.00  0.00    +0.210 HD
ENDBRANCH   9   3
BRANCH   8  13
ATOM     13  C   UNL     1       0.057  -1.003  24.647  0.00  0.00    +0.115 C 
BRANCH  13   6
ATOM      6  N   UNL     1      -0.384  -0.068  25.671  0.00  0.00    -0.309 NA
ATOM     27  H   UNL     1       0.378   0.091  26.330  0.00  0.00    +0.122 HD
BRANCH   6  16
ATOM     16  C   UNL     1      -1.551  -0.580  26.378  0.00  0.00    +0.116 C 
BRANCH  16  18
ATOM      1  F   UNL     1      -4.005  -4.108  24.065  0.00  0.00    -0.205 F 
ATOM     18  C   UNL     1      -2.631  -1.028  25.429  0.00  0.00    -0.031 A 
ATOM     21  C   UNL     1      -2.822  -2.387  25.183  0.00  0.00    +0.043 A 
ATOM     22  C   UNL     1      -3.440  -0.084  24.797  0.00  0.00    +0.005 A 
ATOM     23  C   UNL     1      -3.822  -2.803  24.304  0.00  0.00    +0.124 A 
ATOM     24  C   UNL     1      -4.440  -0.499  23.918  0.00  0.00    +0.003 A 
ATOM     25  C   UNL     1      -4.632  -1.859  23.671  0.00  0.00    +0.038 A 
ENDBRANCH  16  18
ENDBRANCH   6  16
ENDBRANCH  13   6
ENDBRANCH   8  13
BRANCH  10  14
ATOM     14  C   UNL     1       0.055   3.315  24.004  0.00  0.00    +0.090 C 
BRANCH  14  15
ATOM      4  O   UNL     1      -2.623   3.248  26.416  0.00  0.00    -0.357 OA
ATOM      7  N   UNL     1      -1.287   3.112  26.057  0.00  0.00    -0.083 NA
ATOM     15  C   UNL     1      -1.254   3.368  24.746  0.00  0.00    +0.086 A 
ATOM     17  C   UNL     1      -2.526   3.669  24.229  0.00  0.00    +0.073 A 
ATOM     19  C   UNL     1      -3.350   3.580  25.319  0.00  0.00    +0.163 A 
BRANCH  19  20
ATOM     20  C   UNL     1      -4.792   3.763  25.522  0.00  0.00    +0.236 C 
BRANCH  20   5
ATOM      5  O   UNL     1      -5.514   2.649  24.988  0.00  0.00    -0.375 OA
ATOM     26  C   UNL     1      -6.228   1.967  26.006  0.00  0.00    +0.194 C 
ENDBRANCH  20   5
ENDBRANCH  19  20
ENDBRANCH  14  15
ENDBRANCH  10  14
TORSDOF 9
ENDMDL
MODEL 6
REMARK VINA RESULT:      -3.6      2.563      6.033
REMARK  Name = 75536292
REMARK  10 active torsions:
REMARK  status: ('A' for Active; 'I' for Inactive)
REMARK    1  A    between atoms: O_3  and  C_9
REMARK    2  A    between atoms: O_5  and  C_20
REMARK    3  A    between atoms: O_5  and  C_26
REMARK    4  A    between atoms: N_6  and  C_13
REMARK    5  A    between atoms: N_6  and  C_16
REMARK    6  A    between atoms: C_8  and  C_13
REMARK    7  A    between atoms: C_10  and  C_14
REMARK    8  A    between atoms: C_14  and  C_15
REMARK    9  A    between atoms: C_16  and  C_18
REMARK   10  A    between atoms: C_19  and  C_20
REMARK                            x       y       z     vdW  Elec       q    Type
REMARK                         _______ _______ _______ _____ _____    ______ ____
ROOT
ATOM      2  O   UNL     1      -2.208   2.867  24.368  0.00  0.00    -0.369 OA
ATOM      8  C   UNL     1      -1.142   3.634  24.939  0.00  0.00    +0.161 C 
ATOM      9  C   UNL     1      -1.608   5.046  25.315  0.00  0.00    +0.145 C 
ATOM     10  C   UNL     1      -3.385   2.766  25.173  0.00  0.00    +0.125 C 
ATOM     11  C   UNL     1      -2.896   5.035  26.133  0.00  0.00    +0.036 C 
ATOM     12  C   UNL     1      -3.953   4.152  25.475  0.00  0.00    +0.034 C 
ENDROOT
BRANCH   9   3
ATOM      3  O   UNL     1      -1.860   5.783  24.115  0.00  0.00    -0.389 OA
ATOM     28  H   UNL     1      -1.013   6.156  23.816  0.00  0.00    +0.210 HD
ENDBRANCH   9   3
BRANCH   8  13
ATOM     13  C   UNL     1      -0.492   2.890  26.104  0.00  0.00    +0.115 C 
BRANCH  13   6
ATOM      6  N   UNL     1       0.475   1.915  25.624  0.00  0.00    -0.309 NA
ATOM     27  H   UNL     1       1.288   2.406  25.252  0.00  0.00    +0.122 HD
BRANCH   6  16
ATOM     16  C   UNL     1      -0.106   1.066  24.592  0.00  0.00    +0.116 C 
BRANCH  16  18
ATOM      1  F   UNL     1       4.428   1.192  22.793  0.00  0.00    -0.205 F 
ATOM     18  C   UNL     1       0.913   0.656  23.564  0.00  0.00    -0.031 A 
ATOM     21  C   UNL     1       2.225   1.123  23.657  0.00  0.00    +0.043 A 
ATOM     22  C   UNL     1       0.547  -0.191  22.518  0.00  0.00    +0.005 A 
ATOM     23  C   UNL     1       3.170   0.743  22.704  0.00  0.00    +0.124 A 
ATOM     24  C   UNL     1       1.493  -0.571  21.565  0.00  0.00    +0.003 A 
ATOM     25  C   UNL     1       2.805  -0.104  21.658  0.00  0.00    +0.038 A 
ENDBRANCH  16  18
ENDBRANCH   6  16
ENDBRANCH  13   6
ENDBRANCH   8  13
BRANCH  10  14
ATOM     14  C   UNL     1      -4.395   1.920  24.407  0.00  0.00    +0.090 C 
BRANCH  14  15
ATOM      4  O   UNL     1      -4.056  -1.436  25.679  0.00  0.00    -0.357 OA
ATOM      7  N   UNL     1      -4.346  -0.085  25.833  0.00  0.00    -0.083 NA
ATOM     15  C   UNL     1      -4.166   0.447  24.620  0.00  0.00    +0.086 A 
ATOM     17  C   UNL     1      -3.767  -0.509  23.671  0.00  0.00    +0.073 A 
ATOM     19  C   UNL     1      -3.713  -1.676  24.387  0.00  0.00    +0.163 A 
BRANCH  19  20
ATOM     20  C   UNL     1      -3.374  -3.063  24.047  0.00  0.00    +0.236 C 
BRANCH  20   5
ATOM      5  O   UNL     1      -1.970  -3.184  23.801  0.00  0.00    -0.375 OA
ATOM     26  C   UNL     1      -1.217  -2.473  24.770  0.00  0.00    +0.194 C 
ENDBRANCH  20   5
ENDBRANCH  19  20
ENDBRANCH  14  15
ENDBRANCH  10  14
TORSDOF 9
ENDMDL
MODEL 7
REMARK VINA RESULT:      -3.6      2.258      3.564
REMARK  Name = 75536292
REMARK  10 active torsions:
REMARK  status: ('A' for Active; 'I' for Inactive)
REMARK    1  A    between atoms: O_3  and  C_9
REMARK    2  A    between atoms: O_5  and  C_20
REMARK    3  A    between atoms: O_5  and  C_26
REMARK    4  A    between atoms: N_6  and  C_13
REMARK    5  A    between atoms: N_6  and  C_16
REMARK    6  A    between atoms: C_8  and  C_13
REMARK    7  A    between atoms: C_10  and  C_14
REMARK    8  A    between atoms: C_14  and  C_15
REMARK    9  A    between atoms: C_16  and  C_18
REMARK   10  A    between atoms: C_19  and  C_20
REMARK                            x       y       z     vdW  Elec       q    Type
REMARK                         _______ _______ _______ _____ _____    ______ ____
ROOT
ATOM      2  O   UNL     1      -0.225  -0.196  24.743  0.00  0.00    -0.369 OA
ATOM      8  C   UNL     1      -0.857   0.431  25.866  0.00  0.00    +0.161 C 
ATOM      9  C   UNL     1      -0.521   1.926  25.933  0.00  0.00    +0.145 C 
ATOM     10  C   UNL     1      -0.508   0.399  23.475  0.00  0.00    +0.125 C 
ATOM     11  C   UNL     1      -0.742   2.632  24.599  0.00  0.00    +0.036 C 
ATOM     12  C   UNL     1      -0.078   1.865  23.458  0.00  0.00    +0.034 C 
ENDROOT
BRANCH   9   3
ATOM      3  O   UNL     1       0.859   2.073  26.281  0.00  0.00    -0.389 OA
ATOM     28  H   UNL     1       1.196   1.194  26.524  0.00  0.00    +0.210 HD
ENDBRANCH   9   3
BRANCH   8  13
ATOM     13  C   UNL     1      -2.359   0.156  25.875  0.00  0.00    +0.115 C 
BRANCH  13   6
ATOM      6  N   UNL     1      -2.710  -0.848  24.883  0.00  0.00    -0.309 NA
ATOM     27  H   UNL     1      -1.903  -1.023  24.284  0.00  0.00    +0.122 HD
BRANCH   6  16
ATOM     16  C   UNL     1      -3.841  -0.413  24.075  0.00  0.00    +0.116 C 
BRANCH  16  18
ATOM      1  F   UNL     1      -3.850   4.463  23.863  0.00  0.00    -0.205 F 
ATOM     18  C   UNL     1      -4.370   0.923  24.524  0.00  0.00    -0.031 A 
ATOM     21  C   UNL     1      -3.856   2.097  23.974  0.00  0.00    +0.043 A 
ATOM     22  C   UNL     1      -5.375   0.987  25.489  0.00  0.00    +0.005 A 
ATOM     23  C   UNL     1      -4.346   3.336  24.390  0.00  0.00    +0.124 A 
ATOM     24  C   UNL     1      -5.865   2.225  25.905  0.00  0.00    +0.003 A 
ATOM     25  C   UNL     1      -5.351   3.400  25.355  0.00  0.00    +0.038 A 
ENDBRANCH  16  18
ENDBRANCH   6  16
ENDBRANCH  13   6
ENDBRANCH   8  13
BRANCH  10  14
ATOM     14  C   UNL     1       0.243  -0.399  22.415  0.00  0.00    +0.090 C 
BRANCH  14  15
ATOM      4  O   UNL     1       3.672   0.307  21.557  0.00  0.00    -0.357 OA
ATOM      7  N   UNL     1       2.371  -0.054  21.228  0.00  0.00    -0.083 NA
ATOM     15  C   UNL     1       1.708  -0.051  22.388  0.00  0.00    +0.086 A 
ATOM     17  C   UNL     1       2.530   0.299  23.472  0.00  0.00    +0.073 A 
ATOM     19  C   UNL     1       3.754   0.514  22.896  0.00  0.00    +0.163 A 
BRANCH  19  20
ATOM     20  C   UNL     1       5.069   0.905  23.418  0.00  0.00    +0.236 C 
BRANCH  20   5
ATOM      5  O   UNL     1       5.472   0.015  24.464  0.00  0.00    -0.375 OA
ATOM     26  C   UNL     1       5.322  -1.339  24.070  0.00  0.00    +0.194 C 
ENDBRANCH  20   5
ENDBRANCH  19  20
ENDBRANCH  14  15
ENDBRANCH  10  14
TORSDOF 9
ENDMDL
MODEL 8
REMARK VINA RESULT:      -3.4      1.738      2.787
REMARK  Name = 75536292
REMARK  10 active torsions:
REMARK  status: ('A' for Active; 'I' for Inactive)
REMARK    1  A    between atoms: O_3  and  C_9
REMARK    2  A    between atoms: O_5  and  C_20
REMARK    3  A    between atoms: O_5  and  C_26
REMARK    4  A    between atoms: N_6  and  C_13
REMARK    5  A    between atoms: N_6  and  C_16
REMARK    6  A    between atoms: C_8  and  C_13
REMARK    7  A    between atoms: C_10  and  C_14
REMARK    8  A    between atoms: C_14  and  C_15
REMARK    9  A    between atoms: C_16  and  C_18
REMARK   10  A    between atoms: C_19  and  C_20
REMARK                            x       y       z     vdW  Elec       q    Type
REMARK                         _______ _______ _______ _____ _____    ______ ____
ROOT
ATOM      2  O   UNL     1      -4.450   1.081  23.842  0.00  0.00    -0.369 OA
ATOM      8  C   UNL     1      -5.136   2.332  23.971  0.00  0.00    +0.161 C 
ATOM      9  C   UNL     1      -6.273   2.242  24.996  0.00  0.00    +0.145 C 
ATOM     10  C   UNL     1      -3.932   0.542  25.061  0.00  0.00    +0.125 C 
ATOM     11  C   UNL     1      -5.820   1.623  26.315  0.00  0.00    +0.036 C 
ATOM     12  C   UNL     1      -5.054   0.325  26.075  0.00  0.00    +0.034 C 
ENDROOT
BRANCH   9   3
ATOM      3  O   UNL     1      -7.312   1.416  24.461  0.00  0.00    -0.389 OA
ATOM     28  H   UNL     1      -8.146   1.682  24.885  0.00  0.00    +0.210 HD
ENDBRANCH   9   3
BRANCH   8  13
ATOM     13  C   UNL     1      -4.158   3.468  24.263  0.00  0.00    +0.115 C 
BRANCH  13   6
ATOM      6  N   UNL     1      -4.672   4.342  25.306  0.00  0.00    -0.309 NA
ATOM     27  H   UNL     1      -4.866   5.261  24.907  0.00  0.00    +0.122 HD
BRANCH   6  16
ATOM     16  C   UNL     1      -3.718   4.468  26.400  0.00  0.00    +0.116 C 
BRANCH  16  18
ATOM      1  F   UNL     1       0.352   1.775  26.408  0.00  0.00    -0.205 F 
ATOM     18  C   UNL     1      -2.305   4.217  25.944  0.00  0.00    -0.031 A 
ATOM     21  C   UNL     1      -1.618   3.090  26.396  0.00  0.00    +0.043 A 
ATOM     22  C   UNL     1      -1.685   5.109  25.071  0.00  0.00    +0.005 A 
ATOM     23  C   UNL     1      -0.309   2.856  25.973  0.00  0.00    +0.124 A 
ATOM     24  C   UNL     1      -0.376   4.875  24.648  0.00  0.00    +0.003 A 
ATOM     25  C   UNL     1       0.313   3.748  25.100  0.00  0.00    +0.038 A 
ENDBRANCH  16  18
ENDBRANCH   6  16
ENDBRANCH  13   6
ENDBRANCH   8  13
BRANCH  10  14
ATOM     14  C   UNL     1      -3.241  -0.774  24.725  0.00  0.00    +0.090 C 
BRANCH  14  15
ATOM      4  O   UNL     1       0.326  -1.014  24.273  0.00  0.00    -0.357 OA
ATOM      7  N   UNL     1      -0.892  -1.508  24.722  0.00  0.00    -0.083 NA
ATOM     15  C   UNL     1      -1.788  -0.573  24.389  0.00  0.00    +0.086 A 
ATOM     17  C   UNL     1      -1.198   0.522  23.735  0.00  0.00    +0.073 A 
ATOM     19  C   UNL     1       0.131   0.195  23.687  0.00  0.00    +0.163 A 
BRANCH  19  20
ATOM     20  C   UNL     1       1.324   0.864  23.153  0.00  0.00    +0.236 C 
BRANCH  20   5
ATOM      5  O   UNL     1       2.283  -0.105  22.719  0.00  0.00    -0.375 OA
ATOM     26  C   UNL     1       3.555   0.488  22.517  0.00  0.00    +0.194 C 
ENDBRANCH  20   5
ENDBRANCH  19  20
ENDBRANCH  14  15
ENDBRANCH  10  14
TORSDOF 9
ENDMDL
MODEL 9
REMARK VINA RESULT:      -3.3      2.457      6.606
REMARK  Name = 75536292
REMARK  10 active torsions:
REMARK  status: ('A' for Active; 'I' for Inactive)
REMARK    1  A    between atoms: O_3  and  C_9
REMARK    2  A    between atoms: O_5  and  C_20
REMARK    3  A    between atoms: O_5  and  C_26
REMARK    4  A    between atoms: N_6  and  C_13
REMARK    5  A    between atoms: N_6  and  C_16
REMARK    6  A    between atoms: C_8  and  C_13
REMARK    7  A    between atoms: C_10  and  C_14
REMARK    8  A    between atoms: C_14  and  C_15
REMARK    9  A    between atoms: C_16  and  C_18
REMARK   10  A    between atoms: C_19  and  C_20
REMARK                            x       y       z     vdW  Elec       q    Type
REMARK                         _______ _______ _______ _____ _____    ______ ____
ROOT
ATOM      2  O   UNL     1      -1.718   2.588  23.770  0.00  0.00    -0.369 OA
ATOM      8  C   UNL     1      -0.303   2.732  23.947  0.00  0.00    +0.161 C 
ATOM      9  C   UNL     1       0.080   4.193  24.217  0.00  0.00    +0.145 C 
ATOM     10  C   UNL     1      -2.519   3.085  24.845  0.00  0.00    +0.125 C 
ATOM     11  C   UNL     1      -0.769   4.822  25.318  0.00  0.00    +0.036 C 
ATOM     12  C   UNL     1      -2.254   4.572  25.073  0.00  0.00    +0.034 C 
ENDROOT
BRANCH   9   3
ATOM      3  O   UNL     1      -0.124   4.952  23.021  0.00  0.00    -0.389 OA
ATOM     28  H   UNL     1       0.704   5.425  22.829  0.00  0.00    +0.210 HD
ENDBRANCH   9   3
BRANCH   8  13
ATOM     13  C   UNL     1       0.219   1.771  25.012  0.00  0.00    +0.115 C 
BRANCH  13   6
ATOM      6  N   UNL     1       0.260   0.408  24.507  0.00  0.00    -0.309 NA
ATOM     27  H   UNL     1       0.820  -0.166  25.138  0.00  0.00    +0.122 HD
BRANCH   6  16
ATOM     16  C   UNL     1       0.826   0.364  23.165  0.00  0.00    +0.116 C 
BRANCH  16  18
ATOM      1  F   UNL     1       4.832  -2.274  24.065  0.00  0.00    -0.205 F 
ATOM     18  C   UNL     1       2.323   0.212  23.192  0.00  0.00    -0.031 A 
ATOM     21  C   UNL     1       2.895  -0.985  23.624  0.00  0.00    +0.043 A 
ATOM     22  C   UNL     1       3.139   1.268  22.785  0.00  0.00    +0.005 A 
ATOM     23  C   UNL     1       4.283  -1.126  23.648  0.00  0.00    +0.124 A 
ATOM     24  C   UNL     1       4.526   1.126  22.809  0.00  0.00    +0.003 A 
ATOM     25  C   UNL     1       5.099  -0.071  23.241  0.00  0.00    +0.038 A 
ENDBRANCH  16  18
ENDBRANCH   6  16
ENDBRANCH  13   6
ENDBRANCH   8  13
BRANCH  10  14
ATOM     14  C   UNL     1      -3.979   2.843  24.480  0.00  0.00    +0.090 C 
BRANCH  14  15
ATOM      4  O   UNL     1      -5.426  -0.441  24.818  0.00  0.00    -0.357 OA
ATOM      7  N   UNL     1      -5.427   0.932  25.033  0.00  0.00    -0.083 NA
ATOM     15  C   UNL     1      -4.310   1.375  24.448  0.00  0.00    +0.086 A 
ATOM     17  C   UNL     1      -3.572   0.338  23.854  0.00  0.00    +0.073 A 
ATOM     19  C   UNL     1      -4.316  -0.783  24.115  0.00  0.00    +0.163 A 
BRANCH  19  20
ATOM     20  C   UNL     1      -4.155  -2.207  23.798  0.00  0.00    +0.236 C 
BRANCH  20   5
ATOM      5  O   UNL     1      -3.378  -2.855  24.810  0.00  0.00    -0.375 OA
ATOM     26  C   UNL     1      -2.010  -2.492  24.715  0.00  0.00    +0.194 C 
ENDBRANCH  20   5
ENDBRANCH  19  20
ENDBRANCH  14  15
ENDBRANCH  10  14
TORSDOF 9
ENDMDL
MODEL 10
REMARK VINA RESULT:      -2.2      2.445      5.603
REMARK  Name = 75536292
REMARK  10 active torsions:
REMARK  status: ('A' for Active; 'I' for Inactive)
REMARK    1  A    between atoms: O_3  and  C_9
REMARK    2  A    between atoms: O_5  and  C_20
REMARK    3  A    between atoms: O_5  and  C_26
REMARK    4  A    between atoms: N_6  and  C_13
REMARK    5  A    between atoms: N_6  and  C_16
REMARK    6  A    between atoms: C_8  and  C_13
REMARK    7  A    between atoms: C_10  and  C_14
REMARK    8  A    between atoms: C_14  and  C_15
REMARK    9  A    between atoms: C_16  and  C_18
REMARK   10  A    between atoms: C_19  and  C_20
REMARK                            x       y       z     vdW  Elec       q    Type
REMARK                         _______ _______ _______ _____ _____    ______ ____
ROOT
ATOM      2  O   UNL     1      -3.609   2.345  23.928  0.00  0.00    -0.369 OA
ATOM      8  C   UNL     1      -2.892   3.537  24.273  0.00  0.00    +0.161 C 
ATOM      9  C   UNL     1      -3.809   4.562  24.953  0.00  0.00    +0.145 C 
ATOM     10  C   UNL     1      -4.290   1.709  25.011  0.00  0.00    +0.125 C 
ATOM     11  C   UNL     1      -4.620   3.952  26.092  0.00  0.00    +0.036 C 
ATOM     12  C   UNL     1      -5.302   2.662  25.646  0.00  0.00    +0.034 C 
ENDROOT
BRANCH   9   3
ATOM      3  O   UNL     1      -4.730   5.071  23.984  0.00  0.00    -0.389 OA
ATOM     28  H   UNL     1      -5.368   5.635  24.453  0.00  0.00    +0.210 HD
ENDBRANCH   9   3
BRANCH   8  13
ATOM     13  C   UNL     1      -1.647   3.212  25.095  0.00  0.00    +0.115 C 
BRANCH  13   6
ATOM      6  N   UNL     1      -0.503   2.967  24.231  0.00  0.00    -0.309 NA
ATOM     27  H   UNL     1      -0.833   2.642  23.323  0.00  0.00    +0.122 HD
BRANCH   6  16
ATOM     16  C   UNL     1       0.393   1.978  24.817  0.00  0.00    +0.116 C 
BRANCH  16  18
ATOM      1  F   UNL     1       4.434   0.770  22.362  0.00  0.00    -0.205 F 
ATOM     18  C   UNL     1       1.100   1.168  23.763  0.00  0.00    -0.031 A 
ATOM     21  C   UNL     1       2.466   1.347  23.547  0.00  0.00    +0.043 A 
ATOM     22  C   UNL     1       0.389   0.239  23.003  0.00  0.00    +0.005 A 
ATOM     23  C   UNL     1       3.123   0.597  22.571  0.00  0.00    +0.124 A 
ATOM     24  C   UNL     1       1.046  -0.511  22.027  0.00  0.00    +0.003 A 
ATOM     25  C   UNL     1       2.412  -0.332  21.810  0.00  0.00    +0.038 A 
ENDBRANCH  16  18
ENDBRANCH   6  16
ENDBRANCH  13   6
ENDBRANCH   8  13
BRANCH  10  14
ATOM     14  C   UNL     1      -4.984   0.471  24.454  0.00  0.00    +0.090 C 
BRANCH  14  15
ATOM      4  O   UNL     1      -3.414  -2.747  24.044  0.00  0.00    -0.357 OA
ATOM      7  N   UNL     1      -4.503  -1.888  23.951  0.00  0.00    -0.083 NA
ATOM     15  C   UNL     1      -4.058  -0.715  24.410  0.00  0.00    +0.086 A 
ATOM     17  C   UNL     1      -2.711  -0.772  24.804  0.00  0.00    +0.073 A 
ATOM     19  C   UNL     1      -2.353  -2.070  24.553  0.00  0.00    +0.163 A 
BRANCH  19  20
ATOM     20  C   UNL     1      -1.110  -2.833  24.721  0.00  0.00    +0.236 C 
BRANCH  20   5
ATOM      5  O   UNL     1      -0.127  -2.038  25.391  0.00  0.00    -0.375 OA
ATOM     26  C   UNL     1      -0.732  -1.139  26.306  0.00  0.00    +0.194 C 
ENDBRANCH  20   5
ENDBRANCH  19  20
ENDBRANCH  14  15
ENDBRANCH  10  14
TORSDOF 9
ENDMDL
