MODEL 1
REMARK VINA RESULT:      -6.7      0.000      0.000
REMARK  Name = 11913381
REMARK  7 active torsions:
REMARK  status: ('A' for Active; 'I' for Inactive)
REMARK    1  A    between atoms: N_4  and  C_10
REMARK    2  A    between atoms: N_4  and  C_14
REMARK    3  A    between atoms: N_5  and  C_11
REMARK    4  A    between atoms: C_14  and  C_15
REMARK    5  A    between atoms: C_15  and  C_17
REMARK    6  A    between atoms: C_17  and  C_18
REMARK    7  A    between atoms: C_19  and  C_24
REMARK                            x       y       z     vdW  Elec       q    Type
REMARK                         _______ _______ _______ _____ _____    ______ ____
ROOT
ATOM      2  O   UNL     1      -0.973   2.588  23.334  0.00  0.00    -0.370 OA
ATOM      3  O   UNL     1      -0.864   4.138  26.017  0.00  0.00    -0.370 OA
ATOM      8  C   UNL     1      -1.257   2.794  25.682  0.00  0.00    +0.168 C 
ATOM      9  C   UNL     1      -1.964   2.854  24.342  0.00  0.00    +0.171 C 
ATOM     10  C   UNL     1      -0.036   1.941  25.421  0.00  0.00    +0.111 C 
ATOM     11  C   UNL     1      -2.439   4.285  24.241  0.00  0.00    +0.130 C 
ATOM     12  C   UNL     1       0.274   2.276  23.971  0.00  0.00    +0.181 C 
ATOM     13  C   UNL     1      -1.385   5.041  25.030  0.00  0.00    +0.185 C 
ENDROOT
BRANCH  11   5
ATOM      5  N   UNL     1      -3.733   4.422  24.873  0.00  0.00    -0.306 N 
ATOM      6  N   UNL     1      -4.032   2.099  25.017  0.00  0.00    -0.214 NA
ATOM      7  N   UNL     1      -5.712   3.616  25.842  0.00  0.00    -0.223 NA
ATOM     16  C   UNL     1      -4.515   3.348  25.256  0.00  0.00    +0.216 A 
ATOM     19  C   UNL     1      -4.821   1.074  25.402  0.00  0.00    +0.076 A 
ATOM     20  C   UNL     1      -6.450   2.545  26.202  0.00  0.00    +0.116 A 
ATOM     21  C   UNL     1      -6.051   1.239  26.005  0.00  0.00    +0.048 A 
ATOM     34  H   UNL     1      -4.080   5.346  25.103  0.00  0.00    +0.149 HD
BRANCH  19  24
ATOM      1  F   UNL     1      -4.414  -2.819  22.573  0.00  0.00    -0.205 F 
ATOM     24  C   UNL     1      -4.288  -0.240  25.142  0.00  0.00    +0.003 A 
ATOM     28  C   UNL     1      -4.615  -0.909  23.959  0.00  0.00    +0.048 A 
ATOM     29  C   UNL     1      -3.441  -0.851  26.071  0.00  0.00    +0.010 A 
ATOM     30  C   UNL     1      -4.099  -2.180  23.708  0.00  0.00    +0.124 A 
ATOM     31  C   UNL     1      -2.926  -2.123  25.819  0.00  0.00    +0.003 A 
ATOM     32  C   UNL     1      -3.255  -2.787  24.637  0.00  0.00    +0.038 A 
ENDBRANCH  19  24
ENDBRANCH  11   5
BRANCH  10   4
ATOM      4  N   UNL     1      -0.367   0.522  25.539  0.00  0.00    -0.309 NA
ATOM     33  H   UNL     1      -1.197   0.412  26.122  0.00  0.00    +0.122 HD
BRANCH   4  14
ATOM     14  C   UNL     1      -0.610  -0.063  24.229  0.00  0.00    +0.081 C 
BRANCH  14  15
ATOM     15  C   UNL     1       0.556  -0.964  23.826  0.00  0.00    +0.020 C 
BRANCH  15  17
ATOM     17  C   UNL     1       1.375  -0.332  22.697  0.00  0.00    +0.036 C 
BRANCH  17  18
ATOM     18  C   UNL     1       2.842  -0.270  23.040  0.00  0.00    -0.047 A 
ATOM     22  C   UNL     1       3.559   0.883  22.755  0.00  0.00    +0.003 A 
ATOM     23  C   UNL     1       3.450  -1.365  23.633  0.00  0.00    +0.003 A 
ATOM     25  C   UNL     1       4.916   0.941  23.072  0.00  0.00    +0.000 A 
ATOM     26  C   UNL     1       4.809  -1.307  23.950  0.00  0.00    +0.000 A 
ATOM     27  C   UNL     1       5.541  -0.153  23.670  0.00  0.00    +0.000 A 
ENDBRANCH  17  18
ENDBRANCH  15  17
ENDBRANCH  14  15
ENDBRANCH   4  14
ENDBRANCH  10   4
TORSDOF 7
ENDMDL
MODEL 2
REMARK VINA RESULT:      -5.8     15.748     19.435
REMARK  Name = 11913381
REMARK  7 active torsions:
REMARK  status: ('A' for Active; 'I' for Inactive)
REMARK    1  A    between atoms: N_4  and  C_10
REMARK    2  A    between atoms: N_4  and  C_14
REMARK    3  A    between atoms: N_5  and  C_11
REMARK    4  A    between atoms: C_14  and  C_15
REMARK    5  A    between atoms: C_15  and  C_17
REMARK    6  A    between atoms: C_17  and  C_18
REMARK    7  A    between atoms: C_19  and  C_24
REMARK                            x       y       z     vdW  Elec       q    Type
REMARK                         _______ _______ _______ _____ _____    ______ ____
ROOT
ATOM      2  O   UNL     1      15.987  -7.155  31.420  0.00  0.00    -0.370 OA
ATOM      3  O   UNL     1      15.231  -4.151  31.556  0.00  0.00    -0.370 OA
ATOM      8  C   UNL     1      14.749  -5.242  30.751  0.00  0.00    +0.168 C 
ATOM      9  C   UNL     1      15.941  -6.119  30.423  0.00  0.00    +0.171 C 
ATOM     10  C   UNL     1      13.844  -6.137  31.569  0.00  0.00    +0.111 C 
ATOM     11  C   UNL     1      17.128  -5.196  30.575  0.00  0.00    +0.130 C 
ATOM     12  C   UNL     1      14.848  -7.028  32.283  0.00  0.00    +0.181 C 
ATOM     13  C   UNL     1      16.661  -4.229  31.648  0.00  0.00    +0.185 C 
ENDROOT
BRANCH  11   5
ATOM      5  N   UNL     1      17.369  -4.491  29.335  0.00  0.00    -0.306 N 
ATOM      6  N   UNL     1      16.661  -6.312  28.034  0.00  0.00    -0.214 NA
ATOM      7  N   UNL     1      17.405  -4.267  26.999  0.00  0.00    -0.223 NA
ATOM     16  C   UNL     1      17.138  -5.039  28.086  0.00  0.00    +0.216 A 
ATOM     19  C   UNL     1      16.447  -6.815  26.801  0.00  0.00    +0.076 A 
ATOM     20  C   UNL     1      17.169  -4.832  25.797  0.00  0.00    +0.116 A 
ATOM     21  C   UNL     1      16.685  -6.115  25.636  0.00  0.00    +0.048 A 
ATOM     34  H   UNL     1      17.674  -3.525  29.362  0.00  0.00    +0.149 HD
BRANCH  19  24
ATOM      1  F   UNL     1      14.491 -10.523  24.403  0.00  0.00    -0.205 F 
ATOM     24  C   UNL     1      15.940  -8.165  26.769  0.00  0.00    +0.003 A 
ATOM     28  C   UNL     1      15.451  -8.704  25.577  0.00  0.00    +0.048 A 
ATOM     29  C   UNL     1      15.936  -8.939  27.932  0.00  0.00    +0.010 A 
ATOM     30  C   UNL     1      14.960 -10.009  25.547  0.00  0.00    +0.124 A 
ATOM     31  C   UNL     1      15.444 -10.245  27.902  0.00  0.00    +0.003 A 
ATOM     32  C   UNL     1      14.957 -10.780  26.709  0.00  0.00    +0.038 A 
ENDBRANCH  19  24
ENDBRANCH  11   5
BRANCH  10   4
ATOM      4  N   UNL     1      12.999  -6.949  30.694  0.00  0.00    -0.309 NA
ATOM     33  H   UNL     1      13.269  -7.929  30.772  0.00  0.00    +0.122 HD
BRANCH   4  14
ATOM     14  C   UNL     1      11.595  -6.800  31.048  0.00  0.00    +0.081 C 
BRANCH  14  15
ATOM     15  C   UNL     1      11.239  -7.725  32.210  0.00  0.00    +0.020 C 
BRANCH  15  17
ATOM     17  C   UNL     1      10.376  -8.898  31.736  0.00  0.00    +0.036 C 
BRANCH  17  18
ATOM     18  C   UNL     1       8.908  -8.627  31.939  0.00  0.00    -0.047 A 
ATOM     22  C   UNL     1       8.514  -7.513  32.666  0.00  0.00    +0.003 A 
ATOM     23  C   UNL     1       7.973  -9.496  31.398  0.00  0.00    +0.003 A 
ATOM     25  C   UNL     1       7.156  -7.262  32.854  0.00  0.00    +0.000 A 
ATOM     26  C   UNL     1       6.613  -9.245  31.587  0.00  0.00    +0.000 A 
ATOM     27  C   UNL     1       6.205  -8.127  32.315  0.00  0.00    +0.000 A 
ENDBRANCH  17  18
ENDBRANCH  15  17
ENDBRANCH  14  15
ENDBRANCH   4  14
ENDBRANCH  10   4
TORSDOF 7
ENDMDL
MODEL 3
REMARK VINA RESULT:      -4.0      2.278      4.447
REMARK  Name = 11913381
REMARK  7 active torsions:
REMARK  status: ('A' for Active; 'I' for Inactive)
REMARK    1  A    between atoms: N_4  and  C_10
REMARK    2  A    between atoms: N_4  and  C_14
REMARK    3  A    between atoms: N_5  and  C_11
REMARK    4  A    between atoms: C_14  and  C_15
REMARK    5  A    between atoms: C_15  and  C_17
REMARK    6  A    between atoms: C_17  and  C_18
REMARK    7  A    between atoms: C_19  and  C_24
REMARK                            x       y       z     vdW  Elec       q    Type
REMARK                         _______ _______ _______ _____ _____    ______ ____
ROOT
ATOM      2  O   UNL     1      -0.996  -0.921  26.227  0.00  0.00    -0.370 OA
ATOM      3  O   UNL     1      -2.676  -2.622  24.254  0.00  0.00    -0.370 OA
ATOM      8  C   UNL     1      -2.086  -1.313  24.155  0.00  0.00    +0.168 C 
ATOM      9  C   UNL     1      -2.217  -0.657  25.515  0.00  0.00    +0.171 C 
ATOM     10  C   UNL     1      -0.593  -1.426  23.939  0.00  0.00    +0.111 C 
ATOM     11  C   UNL     1      -3.368  -1.389  26.166  0.00  0.00    +0.130 C 
ATOM     12  C   UNL     1      -0.086  -1.614  25.361  0.00  0.00    +0.181 C 
ATOM     13  C   UNL     1      -3.270  -2.774  25.552  0.00  0.00    +0.185 C 
ENDROOT
BRANCH  11   5
ATOM      5  N   UNL     1      -4.621  -0.766  25.800  0.00  0.00    -0.306 N 
ATOM      6  N   UNL     1      -3.585   1.281  25.307  0.00  0.00    -0.214 NA
ATOM      7  N   UNL     1      -5.966   1.009  25.061  0.00  0.00    -0.223 NA
ATOM     16  C   UNL     1      -4.728   0.547  25.376  0.00  0.00    +0.216 A 
ATOM     19  C   UNL     1      -3.725   2.557  24.890  0.00  0.00    +0.076 A 
ATOM     20  C   UNL     1      -6.034   2.293  24.652  0.00  0.00    +0.116 A 
ATOM     21  C   UNL     1      -4.936   3.122  24.547  0.00  0.00    +0.048 A 
ATOM     34  H   UNL     1      -5.471  -1.318  25.798  0.00  0.00    +0.149 HD
BRANCH  19  24
ATOM      1  F   UNL     1       1.001   2.850  23.942  0.00  0.00    -0.205 F 
ATOM     24  C   UNL     1      -2.501   3.317  24.822  0.00  0.00    +0.003 A 
ATOM     28  C   UNL     1      -1.317   2.704  24.406  0.00  0.00    +0.048 A 
ATOM     29  C   UNL     1      -2.495   4.670  25.172  0.00  0.00    +0.010 A 
ATOM     30  C   UNL     1      -0.133   3.440  24.341  0.00  0.00    +0.124 A 
ATOM     31  C   UNL     1      -1.311   5.405  25.106  0.00  0.00    +0.003 A 
ATOM     32  C   UNL     1      -0.130   4.790  24.690  0.00  0.00    +0.038 A 
ENDBRANCH  19  24
ENDBRANCH  11   5
BRANCH  10   4
ATOM      4  N   UNL     1      -0.058  -0.184  23.385  0.00  0.00    -0.309 NA
ATOM     33  H   UNL     1       0.823   0.044  23.845  0.00  0.00    +0.122 HD
BRANCH   4  14
ATOM     14  C   UNL     1       0.156  -0.307  21.951  0.00  0.00    +0.081 C 
BRANCH  14  15
ATOM     15  C   UNL     1       1.649  -0.408  21.645  0.00  0.00    +0.020 C 
BRANCH  15  17
ATOM     17  C   UNL     1       2.437   0.682  22.377  0.00  0.00    +0.036 C 
BRANCH  17  18
ATOM     18  C   UNL     1       3.679   0.130  23.027  0.00  0.00    -0.047 A 
ATOM     22  C   UNL     1       4.794   0.944  23.167  0.00  0.00    +0.003 A 
ATOM     23  C   UNL     1       3.690  -1.183  23.473  0.00  0.00    +0.003 A 
ATOM     25  C   UNL     1       5.944   0.433  23.768  0.00  0.00    +0.000 A 
ATOM     26  C   UNL     1       4.841  -1.694  24.075  0.00  0.00    +0.000 A 
ATOM     27  C   UNL     1       5.968  -0.885  24.222  0.00  0.00    +0.000 A 
ENDBRANCH  17  18
ENDBRANCH  15  17
ENDBRANCH  14  15
ENDBRANCH   4  14
ENDBRANCH  10   4
TORSDOF 7
ENDMDL
