MODEL 1
REMARK VINA RESULT:       3.7      0.000      0.000
REMARK  Name = 71693713
REMARK  9 active torsions:
REMARK  status: ('A' for Active; 'I' for Inactive)
REMARK    1  A    between atoms: O_3  and  C_16
REMARK    2  A    between atoms: N_6  and  C_8
REMARK    3  A    between atoms: N_7  and  C_23
REMARK    4  A    between atoms: C_9  and  C_16
REMARK    5  A    between atoms: C_10  and  C_18
REMARK    6  A    between atoms: C_24  and  C_25
REMARK    7  A    between atoms: C_24  and  C_26
REMARK    8  A    between atoms: C_25  and  C_27
REMARK    9  A    between atoms: C_25  and  C_28
REMARK                            x       y       z     vdW  Elec       q    Type
REMARK                         _______ _______ _______ _____ _____    ______ ____
ROOT
ATOM      1  O   UNL     1      -3.106   3.729  23.773  0.00  0.00    -0.361 OA
ATOM      4  O   UNL     1      -5.911   1.795  23.447  0.00  0.00    -0.273 OA
ATOM      6  N   UNL     1      -4.144   1.521  24.947  0.00  0.00    -0.288 N 
ATOM      9  C   UNL     1      -3.122   2.200  25.751  0.00  0.00    +0.135 C 
ATOM     10  C   UNL     1      -2.399   3.311  24.946  0.00  0.00    +0.171 C 
ATOM     13  C   UNL     1      -4.941   2.239  24.059  0.00  0.00    +0.242 C 
ATOM     17  C   UNL     1      -4.511   3.679  23.908  0.00  0.00    +0.256 C 
ENDROOT
BRANCH   6   8
ATOM      2  O   UNL     1      -3.496  -2.608  25.042  0.00  0.00    -0.380 OA
ATOM      8  C   UNL     1      -4.389   0.123  25.200  0.00  0.00    +0.081 C 
ATOM     11  C   UNL     1      -4.422  -0.677  23.897  0.00  0.00    +0.050 C 
ATOM     12  C   UNL     1      -3.338  -0.452  26.149  0.00  0.00    +0.050 C 
ATOM     14  C   UNL     1      -4.549  -2.168  24.185  0.00  0.00    +0.161 C 
ATOM     15  C   UNL     1      -3.524  -1.955  26.311  0.00  0.00    +0.161 C 
ENDBRANCH   6   8
BRANCH  10  18
ATOM     18  C   UNL     1      -1.022   2.858  24.499  0.00  0.00    -0.017 A 
ATOM     19  C   UNL     1      -0.135   3.774  23.933  0.00  0.00    +0.008 A 
ATOM     20  C   UNL     1      -0.642   1.524  24.654  0.00  0.00    +0.008 A 
ATOM     21  C   UNL     1       1.131   3.357  23.522  0.00  0.00    +0.023 A 
ATOM     22  C   UNL     1       0.624   1.108  24.243  0.00  0.00    +0.023 A 
ATOM     23  C   UNL     1       1.511   2.024  23.678  0.00  0.00    +0.033 A 
BRANCH  23   7
ATOM      5  O   UNL     1       2.323  -0.226  21.865  0.00  0.00    -0.275 OA
ATOM      7  N   UNL     1       2.778   1.607  23.267  0.00  0.00    -0.285 N 
ATOM     26  C   UNL     1       3.107   0.550  22.404  0.00  0.00    +0.217 C 
ATOM     30  H   UNL     1       3.549   2.133  23.670  0.00  0.00    +0.155 HD
BRANCH  26  24
ATOM     24  C   UNL     1       4.617   0.436  22.220  0.00  0.00    +0.099 C 
BRANCH  24  25
ATOM     25  C   UNL     1       5.319  -0.369  23.325  0.00  0.00    -0.008 C 
ATOM     27  C   UNL     1       4.395  -1.476  23.836  0.00  0.00    +0.008 C 
ATOM     28  C   UNL     1       5.737   0.532  24.490  0.00  0.00    +0.008 C 
ENDBRANCH  24  25
ENDBRANCH  26  24
ENDBRANCH  23   7
ENDBRANCH  10  18
BRANCH   9  16
ATOM     16  C   UNL     1      -3.732   2.759  27.043  0.00  0.00    +0.181 C 
BRANCH  16   3
ATOM      3  O   UNL     1      -3.580   4.164  27.031  0.00  0.00    -0.393 OA
ATOM     29  H   UNL     1      -4.389   4.538  26.644  0.00  0.00    +0.209 HD
ENDBRANCH  16   3
ENDBRANCH   9  16
TORSDOF 7
ENDMDL
MODEL 2
REMARK VINA RESULT:       4.7      1.649      3.736
REMARK  Name = 71693713
REMARK  9 active torsions:
REMARK  status: ('A' for Active; 'I' for Inactive)
REMARK    1  A    between atoms: O_3  and  C_16
REMARK    2  A    between atoms: N_6  and  C_8
REMARK    3  A    between atoms: N_7  and  C_23
REMARK    4  A    between atoms: C_9  and  C_16
REMARK    5  A    between atoms: C_10  and  C_18
REMARK    6  A    between atoms: C_24  and  C_25
REMARK    7  A    between atoms: C_24  and  C_26
REMARK    8  A    between atoms: C_25  and  C_27
REMARK    9  A    between atoms: C_25  and  C_28
REMARK                            x       y       z     vdW  Elec       q    Type
REMARK                         _______ _______ _______ _____ _____    ______ ____
ROOT
ATOM      1  O   UNL     1      -3.051  -0.654  23.748  0.00  0.00    -0.361 OA
ATOM      4  O   UNL     1      -5.305   0.225  26.168  0.00  0.00    -0.273 OA
ATOM      6  N   UNL     1      -3.964   1.632  24.875  0.00  0.00    -0.288 N 
ATOM      9  C   UNL     1      -3.316   1.827  23.574  0.00  0.00    +0.135 C 
ATOM     10  C   UNL     1      -2.610   0.535  23.083  0.00  0.00    +0.171 C 
ATOM     13  C   UNL     1      -4.616   0.438  25.172  0.00  0.00    +0.242 C 
ATOM     17  C   UNL     1      -4.414  -0.625  24.118  0.00  0.00    +0.256 C 
ENDROOT
BRANCH   6   8
ATOM      2  O   UNL     1      -3.833   5.595  26.203  0.00  0.00    -0.380 OA
ATOM      8  C   UNL     1      -4.024   2.755  25.778  0.00  0.00    +0.081 C 
ATOM     11  C   UNL     1      -2.683   3.487  25.839  0.00  0.00    +0.050 C 
ATOM     12  C   UNL     1      -5.138   3.721  25.375  0.00  0.00    +0.050 C 
ATOM     14  C   UNL     1      -2.796   4.745  26.691  0.00  0.00    +0.161 C 
ATOM     15  C   UNL     1      -5.114   4.966  26.252  0.00  0.00    +0.161 C 
ENDBRANCH   6   8
BRANCH  10  18
ATOM     18  C   UNL     1      -1.107   0.623  23.277  0.00  0.00    -0.017 A 
ATOM     19  C   UNL     1      -0.544   1.760  23.855  0.00  0.00    +0.008 A 
ATOM     20  C   UNL     1      -0.290  -0.434  22.877  0.00  0.00    +0.008 A 
ATOM     21  C   UNL     1       0.837   1.841  24.034  0.00  0.00    +0.023 A 
ATOM     22  C   UNL     1       1.090  -0.353  23.056  0.00  0.00    +0.023 A 
ATOM     23  C   UNL     1       1.654   0.784  23.634  0.00  0.00    +0.033 A 
BRANCH  23   7
ATOM      5  O   UNL     1       3.885   0.638  21.631  0.00  0.00    -0.275 OA
ATOM      7  N   UNL     1       3.036   0.864  23.813  0.00  0.00    -0.285 N 
ATOM     26  C   UNL     1       4.044   0.802  22.837  0.00  0.00    +0.217 C 
ATOM     30  H   UNL     1       3.334   0.959  24.781  0.00  0.00    +0.155 HD
BRANCH  26  24
ATOM     24  C   UNL     1       5.429   0.931  23.463  0.00  0.00    +0.099 C 
BRANCH  24  25
ATOM     25  C   UNL     1       6.053  -0.412  23.873  0.00  0.00    -0.008 C 
ATOM     27  C   UNL     1       7.125  -0.823  22.861  0.00  0.00    +0.008 C 
ATOM     28  C   UNL     1       4.992  -1.511  23.977  0.00  0.00    +0.008 C 
ENDBRANCH  24  25
ENDBRANCH  26  24
ENDBRANCH  23   7
ENDBRANCH  10  18
BRANCH   9  16
ATOM     16  C   UNL     1      -4.324   2.336  22.536  0.00  0.00    +0.181 C 
BRANCH  16   3
ATOM      3  O   UNL     1      -3.966   3.657  22.184  0.00  0.00    -0.393 OA
ATOM     29  H   UNL     1      -4.123   4.216  22.963  0.00  0.00    +0.209 HD
ENDBRANCH  16   3
ENDBRANCH   9  16
TORSDOF 7
ENDMDL
MODEL 3
REMARK VINA RESULT:       4.8      1.678      4.102
REMARK  Name = 71693713
REMARK  9 active torsions:
REMARK  status: ('A' for Active; 'I' for Inactive)
REMARK    1  A    between atoms: O_3  and  C_16
REMARK    2  A    between atoms: N_6  and  C_8
REMARK    3  A    between atoms: N_7  and  C_23
REMARK    4  A    between atoms: C_9  and  C_16
REMARK    5  A    between atoms: C_10  and  C_18
REMARK    6  A    between atoms: C_24  and  C_25
REMARK    7  A    between atoms: C_24  and  C_26
REMARK    8  A    between atoms: C_25  and  C_27
REMARK    9  A    between atoms: C_25  and  C_28
REMARK                            x       y       z     vdW  Elec       q    Type
REMARK                         _______ _______ _______ _____ _____    ______ ____
ROOT
ATOM      1  O   UNL     1      -2.914  -1.207  26.148  0.00  0.00    -0.361 OA
ATOM      4  O   UNL     1      -5.389   1.006  26.978  0.00  0.00    -0.273 OA
ATOM      6  N   UNL     1      -4.396   0.679  24.891  0.00  0.00    -0.288 N 
ATOM      9  C   UNL     1      -3.775  -0.294  23.985  0.00  0.00    +0.135 C 
ATOM     10  C   UNL     1      -2.758  -1.203  24.724  0.00  0.00    +0.171 C 
ATOM     13  C   UNL     1      -4.742   0.317  26.190  0.00  0.00    +0.242 C 
ATOM     17  C   UNL     1      -4.253  -1.059  26.573  0.00  0.00    +0.256 C 
ENDROOT
BRANCH   6   8
ATOM      2  O   UNL     1      -4.122   4.749  23.975  0.00  0.00    -0.380 OA
ATOM      8  C   UNL     1      -4.758   1.968  24.357  0.00  0.00    +0.081 C 
ATOM     11  C   UNL     1      -4.906   3.005  25.472  0.00  0.00    +0.050 C 
ATOM     12  C   UNL     1      -3.733   2.440  23.327  0.00  0.00    +0.050 C 
ATOM     14  C   UNL     1      -5.157   4.390  24.888  0.00  0.00    +0.161 C 
ATOM     15  C   UNL     1      -4.049   3.856  22.863  0.00  0.00    +0.161 C 
ENDBRANCH   6   8
BRANCH  10  18
ATOM     18  C   UNL     1      -1.330  -0.780  24.433  0.00  0.00    -0.017 A 
ATOM     19  C   UNL     1      -0.300  -1.718  24.494  0.00  0.00    +0.008 A 
ATOM     20  C   UNL     1      -1.049   0.546  24.105  0.00  0.00    +0.008 A 
ATOM     21  C   UNL     1       1.014  -1.329  24.226  0.00  0.00    +0.023 A 
ATOM     22  C   UNL     1       0.264   0.934  23.837  0.00  0.00    +0.023 A 
ATOM     23  C   UNL     1       1.295  -0.003  23.897  0.00  0.00    +0.033 A 
BRANCH  23   7
ATOM      5  O   UNL     1       2.833  -0.006  21.320  0.00  0.00    -0.275 OA
ATOM      7  N   UNL     1       2.608   0.385  23.629  0.00  0.00    -0.285 N 
ATOM     26  C   UNL     1       3.282   0.376  22.397  0.00  0.00    +0.217 C 
ATOM     30  H   UNL     1       3.136   0.691  24.443  0.00  0.00    +0.155 HD
BRANCH  26  24
ATOM     24  C   UNL     1       4.713   0.883  22.545  0.00  0.00    +0.099 C 
BRANCH  24  25
ATOM     25  C   UNL     1       5.534   0.125  23.600  0.00  0.00    -0.008 C 
ATOM     27  C   UNL     1       6.953  -0.122  23.083  0.00  0.00    +0.008 C 
ATOM     28  C   UNL     1       4.878  -1.210  23.964  0.00  0.00    +0.008 C 
ENDBRANCH  24  25
ENDBRANCH  26  24
ENDBRANCH  23   7
ENDBRANCH  10  18
BRANCH   9  16
ATOM     16  C   UNL     1      -4.844  -1.127  23.268  0.00  0.00    +0.181 C 
BRANCH  16   3
ATOM      3  O   UNL     1      -4.615  -2.490  23.564  0.00  0.00    -0.393 OA
ATOM     29  H   UNL     1      -3.768  -2.543  24.039  0.00  0.00    +0.209 HD
ENDBRANCH  16   3
ENDBRANCH   9  16
TORSDOF 7
ENDMDL
MODEL 4
REMARK VINA RESULT:       5.0      1.970      4.272
REMARK  Name = 71693713
REMARK  9 active torsions:
REMARK  status: ('A' for Active; 'I' for Inactive)
REMARK    1  A    between atoms: O_3  and  C_16
REMARK    2  A    between atoms: N_6  and  C_8
REMARK    3  A    between atoms: N_7  and  C_23
REMARK    4  A    between atoms: C_9  and  C_16
REMARK    5  A    between atoms: C_10  and  C_18
REMARK    6  A    between atoms: C_24  and  C_25
REMARK    7  A    between atoms: C_24  and  C_26
REMARK    8  A    between atoms: C_25  and  C_27
REMARK    9  A    between atoms: C_25  and  C_28
REMARK                            x       y       z     vdW  Elec       q    Type
REMARK                         _______ _______ _______ _____ _____    ______ ____
ROOT
ATOM      1  O   UNL     1      -4.101   0.237  24.922  0.00  0.00    -0.361 OA
ATOM      4  O   UNL     1      -5.267   2.958  26.639  0.00  0.00    -0.273 OA
ATOM      6  N   UNL     1      -3.846   2.929  24.787  0.00  0.00    -0.288 N 
ATOM      9  C   UNL     1      -3.489   2.233  23.546  0.00  0.00    +0.135 C 
ATOM     10  C   UNL     1      -3.428   0.695  23.745  0.00  0.00    +0.171 C 
ATOM     13  C   UNL     1      -4.796   2.393  25.653  0.00  0.00    +0.242 C 
ATOM     17  C   UNL     1      -5.238   1.003  25.261  0.00  0.00    +0.256 C 
ENDROOT
BRANCH   6   8
ATOM      2  O   UNL     1      -1.483   6.328  24.206  0.00  0.00    -0.380 OA
ATOM      8  C   UNL     1      -3.290   4.239  25.015  0.00  0.00    +0.081 C 
ATOM     11  C   UNL     1      -1.782   4.162  25.264  0.00  0.00    +0.050 C 
ATOM     12  C   UNL     1      -3.586   5.170  23.840  0.00  0.00    +0.050 C 
ATOM     14  C   UNL     1      -1.184   5.560  25.371  0.00  0.00    +0.161 C 
ATOM     15  C   UNL     1      -2.888   6.510  24.026  0.00  0.00    +0.161 C 
ENDBRANCH   6   8
BRANCH  10  18
ATOM     18  C   UNL     1      -1.993   0.210  23.834  0.00  0.00    -0.017 A 
ATOM     19  C   UNL     1      -0.948   1.050  23.452  0.00  0.00    +0.008 A 
ATOM     20  C   UNL     1      -1.720  -1.077  24.298  0.00  0.00    +0.008 A 
ATOM     21  C   UNL     1       0.372   0.604  23.535  0.00  0.00    +0.023 A 
ATOM     22  C   UNL     1      -0.401  -1.522  24.380  0.00  0.00    +0.023 A 
ATOM     23  C   UNL     1       0.645  -0.682  23.999  0.00  0.00    +0.033 A 
BRANCH  23   7
ATOM      5  O   UNL     1       3.020  -0.054  22.275  0.00  0.00    -0.275 OA
ATOM      7  N   UNL     1       1.965  -1.128  24.082  0.00  0.00    -0.285 N 
ATOM     26  C   UNL     1       3.048  -0.794  23.253  0.00  0.00    +0.217 C 
ATOM     30  H   UNL     1       2.142  -1.795  24.829  0.00  0.00    +0.155 HD
BRANCH  26  24
ATOM     24  C   UNL     1       4.322  -1.507  23.694  0.00  0.00    +0.099 C 
BRANCH  24  25
ATOM     25  C   UNL     1       5.488  -0.557  24.013  0.00  0.00    -0.008 C 
ATOM     27  C   UNL     1       5.038   0.897  23.856  0.00  0.00    +0.008 C 
ATOM     28  C   UNL     1       6.690  -0.826  23.104  0.00  0.00    +0.008 C 
ENDBRANCH  24  25
ENDBRANCH  26  24
ENDBRANCH  23   7
ENDBRANCH  10  18
BRANCH   9  16
ATOM     16  C   UNL     1      -4.457   2.607  22.416  0.00  0.00    +0.181 C 
BRANCH  16   3
ATOM      3  O   UNL     1      -3.696   3.071  21.319  0.00  0.00    -0.393 OA
ATOM     29  H   UNL     1      -4.322   3.419  20.661  0.00  0.00    +0.209 HD
ENDBRANCH  16   3
ENDBRANCH   9  16
TORSDOF 7
ENDMDL
MODEL 5
REMARK VINA RESULT:       5.1      2.051      4.269
REMARK  Name = 71693713
REMARK  9 active torsions:
REMARK  status: ('A' for Active; 'I' for Inactive)
REMARK    1  A    between atoms: O_3  and  C_16
REMARK    2  A    between atoms: N_6  and  C_8
REMARK    3  A    between atoms: N_7  and  C_23
REMARK    4  A    between atoms: C_9  and  C_16
REMARK    5  A    between atoms: C_10  and  C_18
REMARK    6  A    between atoms: C_24  and  C_25
REMARK    7  A    between atoms: C_24  and  C_26
REMARK    8  A    between atoms: C_25  and  C_27
REMARK    9  A    between atoms: C_25  and  C_28
REMARK                            x       y       z     vdW  Elec       q    Type
REMARK                         _______ _______ _______ _____ _____    ______ ____
ROOT
ATOM      1  O   UNL     1      -1.507  -1.181  23.563  0.00  0.00    -0.361 OA
ATOM      4  O   UNL     1      -3.697  -0.345  26.056  0.00  0.00    -0.273 OA
ATOM      6  N   UNL     1      -2.556   1.086  24.608  0.00  0.00    -0.288 N 
ATOM      9  C   UNL     1      -1.997   1.252  23.262  0.00  0.00    +0.135 C 
ATOM     10  C   UNL     1      -1.208  -0.003  22.806  0.00  0.00    +0.171 C 
ATOM     13  C   UNL     1      -3.083  -0.139  25.011  0.00  0.00    +0.242 C 
ATOM     17  C   UNL     1      -2.845  -1.244  24.010  0.00  0.00    +0.256 C 
ENDROOT
BRANCH   6   8
ATOM      2  O   UNL     1      -3.188   5.073  25.697  0.00  0.00    -0.380 OA
ATOM      8  C   UNL     1      -2.666   2.254  25.446  0.00  0.00    +0.081 C 
ATOM     11  C   UNL     1      -1.640   3.317  25.050  0.00  0.00    +0.050 C 
ATOM     12  C   UNL     1      -4.079   2.833  25.392  0.00  0.00    +0.050 C 
ATOM     14  C   UNL     1      -1.853   4.594  25.853  0.00  0.00    +0.161 C 
ATOM     15  C   UNL     1      -4.156   4.137  26.175  0.00  0.00    +0.161 C 
ENDBRANCH   6   8
BRANCH  10  18
ATOM     18  C   UNL     1       0.290   0.224  22.906  0.00  0.00    -0.017 A 
ATOM     19  C   UNL     1       1.161  -0.507  22.099  0.00  0.00    +0.008 A 
ATOM     20  C   UNL     1       0.794   1.163  23.806  0.00  0.00    +0.008 A 
ATOM     21  C   UNL     1       2.538  -0.298  22.190  0.00  0.00    +0.023 A 
ATOM     22  C   UNL     1       2.170   1.371  23.898  0.00  0.00    +0.023 A 
ATOM     23  C   UNL     1       3.042   0.641  23.090  0.00  0.00    +0.033 A 
BRANCH  23   7
ATOM      5  O   UNL     1       5.174  -1.013  24.403  0.00  0.00    -0.275 OA
ATOM      7  N   UNL     1       4.419   0.849  23.181  0.00  0.00    -0.285 N 
ATOM     26  C   UNL     1       5.381   0.035  23.800  0.00  0.00    +0.217 C 
ATOM     30  H   UNL     1       4.746   1.715  22.760  0.00  0.00    +0.155 HD
BRANCH  26  24
ATOM     24  C   UNL     1       6.778   0.634  23.670  0.00  0.00    +0.099 C 
BRANCH  24  25
ATOM     25  C   UNL     1       7.879  -0.407  23.410  0.00  0.00    -0.008 C 
ATOM     27  C   UNL     1       9.218   0.293  23.175  0.00  0.00    +0.008 C 
ATOM     28  C   UNL     1       7.538  -1.288  22.205  0.00  0.00    +0.008 C 
ENDBRANCH  24  25
ENDBRANCH  26  24
ENDBRANCH  23   7
ENDBRANCH  10  18
BRANCH   9  16
ATOM     16  C   UNL     1      -3.100   1.609  22.257  0.00  0.00    +0.181 C 
BRANCH  16   3
ATOM      3  O   UNL     1      -2.486   2.128  21.094  0.00  0.00    -0.393 OA
ATOM     29  H   UNL     1      -3.073   1.929  20.345  0.00  0.00    +0.209 HD
ENDBRANCH  16   3
ENDBRANCH   9  16
TORSDOF 7
ENDMDL
