MODEL 1
REMARK VINA RESULT:      -4.5      0.000      0.000
REMARK  Name = 45783702
REMARK  6 active torsions:
REMARK  status: ('A' for Active; 'I' for Inactive)
REMARK    1  A    between atoms: O_2  and  C_24
REMARK    2  A    between atoms: O_2  and  C_25
REMARK    3  A    between atoms: N_3  and  C_12
REMARK    4  A    between atoms: C_8  and  C_13
REMARK    5  A    between atoms: C_12  and  C_14
REMARK    6  A    between atoms: C_15  and  C_18
REMARK                            x       y       z     vdW  Elec       q    Type
REMARK                         _______ _______ _______ _____ _____    ______ ____
ROOT
ATOM      1  O   UNL     1      -2.126   2.636  25.583  0.00  0.00    -0.336 OA
ATOM      4  N   UNL     1      -1.857   1.699  23.566  0.00  0.00    -0.190 NA
ATOM      5  N   UNL     1      -0.770   2.299  25.488  0.00  0.00    -0.056 NA
ATOM     13  C   UNL     1      -2.693   2.248  24.410  0.00  0.00    +0.245 A 
ATOM     15  C   UNL     1      -0.690   1.752  24.271  0.00  0.00    +0.204 A 
ENDROOT
BRANCH  15  18
ATOM      7  N   UNL     1       2.900   1.568  23.319  0.00  0.00    -0.221 NA
ATOM     18  C   UNL     1       0.540   1.248  23.733  0.00  0.00    +0.041 A 
ATOM     21  C   UNL     1       0.594   0.002  23.116  0.00  0.00    +0.018 A 
ATOM     22  C   UNL     1       1.711   1.984  23.808  0.00  0.00    +0.126 A 
ATOM     23  C   UNL     1       1.799  -0.462  22.602  0.00  0.00    +0.068 A 
ATOM     24  C   UNL     1       2.914   0.352  22.728  0.00  0.00    +0.214 A 
BRANCH  24   2
ATOM      2  O   UNL     1       4.114  -0.082  22.228  0.00  0.00    -0.480 OA
ATOM     25  C   UNL     1       5.252   0.082  23.065  0.00  0.00    +0.279 C 
ENDBRANCH  24   2
ENDBRANCH  15  18
BRANCH  13   8
ATOM      3  N   UNL     1      -5.002   1.546  25.017  0.00  0.00    -0.287 NA
ATOM      8  C   UNL     1      -4.178   2.508  24.260  0.00  0.00    +0.146 C 
ATOM      9  C   UNL     1      -4.596   3.889  24.798  0.00  0.00    +0.030 C 
ATOM     10  C   UNL     1      -5.701   3.605  25.805  0.00  0.00    +0.017 C 
ATOM     11  C   UNL     1      -6.231   2.251  25.381  0.00  0.00    +0.085 C 
BRANCH   3  12
ATOM     12  C   UNL     1      -5.273   0.318  24.279  0.00  0.00    +0.121 C 
BRANCH  12  14
ATOM      6  N   UNL     1      -2.472  -1.560  26.000  0.00  0.00    -0.263 NA
ATOM     14  C   UNL     1      -4.266  -0.757  24.592  0.00  0.00    -0.015 A 
ATOM     16  C   UNL     1      -4.178  -1.906  23.812  0.00  0.00    +0.008 A 
ATOM     17  C   UNL     1      -3.398  -0.633  25.665  0.00  0.00    +0.115 A 
ATOM     19  C   UNL     1      -3.237  -2.881  24.125  0.00  0.00    +0.020 A 
ATOM     20  C   UNL     1      -2.416  -2.662  25.219  0.00  0.00    +0.111 A 
ENDBRANCH  12  14
ENDBRANCH   3  12
ENDBRANCH  13   8
TORSDOF 5
ENDMDL
MODEL 2
REMARK VINA RESULT:      -2.8      1.641      2.237
REMARK  Name = 45783702
REMARK  6 active torsions:
REMARK  status: ('A' for Active; 'I' for Inactive)
REMARK    1  A    between atoms: O_2  and  C_24
REMARK    2  A    between atoms: O_2  and  C_25
REMARK    3  A    between atoms: N_3  and  C_12
REMARK    4  A    between atoms: C_8  and  C_13
REMARK    5  A    between atoms: C_12  and  C_14
REMARK    6  A    between atoms: C_15  and  C_18
REMARK                            x       y       z     vdW  Elec       q    Type
REMARK                         _______ _______ _______ _____ _____    ______ ____
ROOT
ATOM      1  O   UNL     1      -1.695   0.505  23.548  0.00  0.00    -0.336 OA
ATOM      4  N   UNL     1      -0.071   2.021  23.843  0.00  0.00    -0.190 NA
ATOM      5  N   UNL     1      -0.490  -0.159  23.287  0.00  0.00    -0.056 NA
ATOM     13  C   UNL     1      -1.359   1.783  23.866  0.00  0.00    +0.245 A 
ATOM     15  C   UNL     1       0.421   0.800  23.482  0.00  0.00    +0.204 A 
ENDROOT
BRANCH  15  18
ATOM      7  N   UNL     1       3.691  -0.968  23.387  0.00  0.00    -0.221 NA
ATOM     18  C   UNL     1       1.828   0.571  23.323  0.00  0.00    +0.041 A 
ATOM     21  C   UNL     1       2.685   1.607  22.970  0.00  0.00    +0.018 A 
ATOM     22  C   UNL     1       2.376  -0.686  23.519  0.00  0.00    +0.126 A 
ATOM     23  C   UNL     1       4.045   1.357  22.824  0.00  0.00    +0.068 A 
ATOM     24  C   UNL     1       4.494   0.064  23.041  0.00  0.00    +0.214 A 
BRANCH  24   2
ATOM      2  O   UNL     1       5.830  -0.208  22.904  0.00  0.00    -0.480 OA
ATOM     25  C   UNL     1       6.489  -0.768  24.034  0.00  0.00    +0.279 C 
ENDBRANCH  24   2
ENDBRANCH  15  18
BRANCH  13   8
ATOM      3  N   UNL     1      -3.429   2.152  25.196  0.00  0.00    -0.287 NA
ATOM      8  C   UNL     1      -2.502   2.719  24.197  0.00  0.00    +0.146 C 
ATOM      9  C   UNL     1      -2.024   4.045  24.816  0.00  0.00    +0.030 C 
ATOM     10  C   UNL     1      -2.781   4.167  26.130  0.00  0.00    +0.017 C 
ATOM     11  C   UNL     1      -3.997   3.288  25.923  0.00  0.00    +0.085 C 
BRANCH   3  12
ATOM     12  C   UNL     1      -4.461   1.307  24.607  0.00  0.00    +0.121 C 
BRANCH  12  14
ATOM      6  N   UNL     1      -4.169  -2.373  23.771  0.00  0.00    -0.263 NA
ATOM     14  C   UNL     1      -4.126  -0.155  24.732  0.00  0.00    -0.015 A 
ATOM     16  C   UNL     1      -3.491  -0.651  25.866  0.00  0.00    +0.008 A 
ATOM     17  C   UNL     1      -4.441  -1.050  23.722  0.00  0.00    +0.115 A 
ATOM     19  C   UNL     1      -3.196  -2.007  25.953  0.00  0.00    +0.020 A 
ATOM     20  C   UNL     1      -3.552  -2.818  24.888  0.00  0.00    +0.111 A 
ENDBRANCH  12  14
ENDBRANCH   3  12
ENDBRANCH  13   8
TORSDOF 5
ENDMDL
MODEL 3
REMARK VINA RESULT:      -2.2      1.828      3.796
REMARK  Name = 45783702
REMARK  6 active torsions:
REMARK  status: ('A' for Active; 'I' for Inactive)
REMARK    1  A    between atoms: O_2  and  C_24
REMARK    2  A    between atoms: O_2  and  C_25
REMARK    3  A    between atoms: N_3  and  C_12
REMARK    4  A    between atoms: C_8  and  C_13
REMARK    5  A    between atoms: C_12  and  C_14
REMARK    6  A    between atoms: C_15  and  C_18
REMARK                            x       y       z     vdW  Elec       q    Type
REMARK                         _______ _______ _______ _____ _____    ______ ____
ROOT
ATOM      1  O   UNL     1      -3.243  -0.797  24.692  0.00  0.00    -0.336 OA
ATOM      4  N   UNL     1      -2.056   1.101  24.631  0.00  0.00    -0.190 NA
ATOM      5  N   UNL     1      -2.011  -1.127  24.113  0.00  0.00    -0.056 NA
ATOM     13  C   UNL     1      -3.186   0.532  24.966  0.00  0.00    +0.245 A 
ATOM     15  C   UNL     1      -1.366   0.044  24.111  0.00  0.00    +0.204 A 
ENDROOT
BRANCH  15  18
ATOM      7  N   UNL     1       2.101   1.319  23.684  0.00  0.00    -0.221 NA
ATOM     18  C   UNL     1      -0.036   0.191  23.596  0.00  0.00    +0.041 A 
ATOM     21  C   UNL     1       0.417  -0.602  22.549  0.00  0.00    +0.018 A 
ATOM     22  C   UNL     1       0.837   1.129  24.124  0.00  0.00    +0.126 A 
ATOM     23  C   UNL     1       1.712  -0.438  22.068  0.00  0.00    +0.068 A 
ATOM     24  C   UNL     1       2.507   0.528  22.665  0.00  0.00    +0.214 A 
BRANCH  24   2
ATOM      2  O   UNL     1       3.786   0.710  22.210  0.00  0.00    -0.480 OA
ATOM     25  C   UNL     1       4.836   0.492  23.144  0.00  0.00    +0.279 C 
ENDBRANCH  24   2
ENDBRANCH  15  18
BRANCH  13   8
ATOM      3  N   UNL     1      -4.492   2.603  25.413  0.00  0.00    -0.287 NA
ATOM      8  C   UNL     1      -4.414   1.142  25.609  0.00  0.00    +0.146 C 
ATOM      9  C   UNL     1      -5.727   0.599  25.015  0.00  0.00    +0.030 C 
ATOM     10  C   UNL     1      -6.501   1.830  24.568  0.00  0.00    +0.017 C 
ATOM     11  C   UNL     1      -5.914   2.944  25.408  0.00  0.00    +0.085 C 
BRANCH   3  12
ATOM     12  C   UNL     1      -3.750   3.356  26.418  0.00  0.00    +0.121 C 
BRANCH  12  14
ATOM      6  N   UNL     1      -0.101   3.785  25.504  0.00  0.00    -0.263 NA
ATOM     14  C   UNL     1      -2.489   3.952  25.853  0.00  0.00    -0.015 A 
ATOM     16  C   UNL     1      -2.509   5.169  25.179  0.00  0.00    +0.008 A 
ATOM     17  C   UNL     1      -1.270   3.305  25.987  0.00  0.00    +0.115 A 
ATOM     19  C   UNL     1      -1.327   5.694  24.669  0.00  0.00    +0.020 A 
ATOM     20  C   UNL     1      -0.161   4.969  24.856  0.00  0.00    +0.111 A 
ENDBRANCH  12  14
ENDBRANCH   3  12
ENDBRANCH  13   8
TORSDOF 5
ENDMDL
MODEL 4
REMARK VINA RESULT:      -1.0      1.775      3.976
REMARK  Name = 45783702
REMARK  6 active torsions:
REMARK  status: ('A' for Active; 'I' for Inactive)
REMARK    1  A    between atoms: O_2  and  C_24
REMARK    2  A    between atoms: O_2  and  C_25
REMARK    3  A    between atoms: N_3  and  C_12
REMARK    4  A    between atoms: C_8  and  C_13
REMARK    5  A    between atoms: C_12  and  C_14
REMARK    6  A    between atoms: C_15  and  C_18
REMARK                            x       y       z     vdW  Elec       q    Type
REMARK                         _______ _______ _______ _____ _____    ______ ____
ROOT
ATOM      1  O   UNL     1      -1.460   0.488  23.422  0.00  0.00    -0.336 OA
ATOM      4  N   UNL     1       0.007  -0.971  24.282  0.00  0.00    -0.190 NA
ATOM      5  N   UNL     1      -0.196   0.903  22.984  0.00  0.00    -0.056 NA
ATOM     13  C   UNL     1      -1.251  -0.620  24.181  0.00  0.00    +0.245 A 
ATOM     15  C   UNL     1       0.616  -0.008  23.532  0.00  0.00    +0.204 A 
ENDROOT
BRANCH  15  18
ATOM      7  N   UNL     1       4.167  -1.110  23.537  0.00  0.00    -0.221 NA
ATOM     18  C   UNL     1       2.038   0.020  23.350  0.00  0.00    +0.041 A 
ATOM     21  C   UNL     1       2.672   1.146  22.836  0.00  0.00    +0.018 A 
ATOM     22  C   UNL     1       2.824  -1.072  23.682  0.00  0.00    +0.126 A 
ATOM     23  C   UNL     1       4.053   1.145  22.671  0.00  0.00    +0.068 A 
ATOM     24  C   UNL     1       4.748   0.003  23.034  0.00  0.00    +0.214 A 
BRANCH  24   2
ATOM      2  O   UNL     1       6.110  -0.023  22.882  0.00  0.00    -0.480 OA
ATOM     25  C   UNL     1       6.858  -0.649  23.917  0.00  0.00    +0.279 C 
ENDBRANCH  24   2
ENDBRANCH  15  18
BRANCH  13   8
ATOM      3  N   UNL     1      -3.705  -0.475  24.564  0.00  0.00    -0.287 NA
ATOM      8  C   UNL     1      -2.480  -1.270  24.780  0.00  0.00    +0.146 C 
ATOM      9  C   UNL     1      -2.790  -2.643  24.154  0.00  0.00    +0.030 C 
ATOM     10  C   UNL     1      -4.229  -2.543  23.670  0.00  0.00    +0.017 C 
ATOM     11  C   UNL     1      -4.813  -1.429  24.513  0.00  0.00    +0.085 C 
BRANCH   3  12
ATOM     12  C   UNL     1      -3.910   0.551  25.580  0.00  0.00    +0.121 C 
BRANCH  12  14
ATOM      6  N   UNL     1      -2.514   4.046  25.170  0.00  0.00    -0.263 NA
ATOM     14  C   UNL     1      -3.685   1.934  25.032  0.00  0.00    -0.015 A 
ATOM     16  C   UNL     1      -4.396   2.393  23.927  0.00  0.00    +0.008 A 
ATOM     17  C   UNL     1      -2.764   2.792  25.612  0.00  0.00    +0.115 A 
ATOM     19  C   UNL     1      -4.167   3.677  23.445  0.00  0.00    +0.020 A 
ATOM     20  C   UNL     1      -3.224   4.456  24.096  0.00  0.00    +0.111 A 
ENDBRANCH  12  14
ENDBRANCH   3  12
ENDBRANCH  13   8
TORSDOF 5
ENDMDL
