MODEL 1
REMARK VINA RESULT:      -2.7      0.000      0.000
REMARK  Name = 26744634
REMARK  11 active torsions:
REMARK  status: ('A' for Active; 'I' for Inactive)
REMARK    1  A    between atoms: O_2  and  C_10
REMARK    2  A    between atoms: O_3  and  C_11
REMARK    3  A    between atoms: O_6  and  C_26
REMARK    4  A    between atoms: O_6  and  C_30
REMARK    5  A    between atoms: N_7  and  C_15
REMARK    6  A    between atoms: N_8  and  C_18
REMARK    7  A    between atoms: C_12  and  C_14
REMARK    8  A    between atoms: C_13  and  C_15
REMARK    9  A    between atoms: C_14  and  C_16
REMARK   10  A    between atoms: C_17  and  C_19
REMARK   11  A    between atoms: C_18  and  C_20
REMARK                            x       y       z     vdW  Elec       q    Type
REMARK                         _______ _______ _______ _____ _____    ______ ____
ROOT
ATOM      1  O   UNL     1      -2.738   3.180  23.878  0.00  0.00    -0.366 OA
ATOM     10  C   UNL     1      -1.894   4.524  25.649  0.00  0.00    +0.175 C 
ATOM     11  C   UNL     1      -1.004   3.311  25.471  0.00  0.00    +0.176 C 
ATOM     12  C   UNL     1      -3.159   4.102  24.910  0.00  0.00    +0.158 C 
ATOM     13  C   UNL     1      -1.338   2.895  24.048  0.00  0.00    +0.167 C 
ENDROOT
BRANCH  10   2
ATOM      2  O   UNL     1      -1.339   5.650  24.971  0.00  0.00    -0.387 OA
ATOM     31  H   UNL     1      -0.578   5.333  24.455  0.00  0.00    +0.210 HD
ENDBRANCH  10   2
BRANCH  11   3
ATOM      3  O   UNL     1       0.369   3.596  25.631  0.00  0.00    -0.387 OA
ATOM     32  H   UNL     1       0.828   3.282  24.833  0.00  0.00    +0.210 HD
ENDBRANCH  11   3
BRANCH  12  14
ATOM     14  C   UNL     1      -4.159   3.380  25.802  0.00  0.00    +0.130 C 
BRANCH  14  16
ATOM      4  O   UNL     1      -5.789   2.298  24.380  0.00  0.00    -0.276 OA
ATOM      8  N   UNL     1      -4.155   1.009  25.415  0.00  0.00    -0.310 N 
ATOM     16  C   UNL     1      -4.807   2.195  25.111  0.00  0.00    +0.216 C 
ATOM     34  H   UNL     1      -3.336   1.034  26.016  0.00  0.00    +0.149 HD
BRANCH   8  18
ATOM     18  C   UNL     1      -4.565  -0.274  24.892  0.00  0.00    +0.159 C 
BRANCH  18  20
ATOM      9  N   UNL     1      -2.242  -0.835  25.325  0.00  0.00    -0.258 NA
ATOM     20  C   UNL     1      -3.413  -1.228  24.777  0.00  0.00    +0.058 A 
ATOM     23  C   UNL     1      -3.598  -2.441  24.132  0.00  0.00    +0.025 A 
ATOM     27  C   UNL     1      -2.511  -3.304  24.043  0.00  0.00    +0.003 A 
ATOM     28  C   UNL     1      -1.207  -1.698  25.220  0.00  0.00    +0.111 A 
ATOM     29  C   UNL     1      -1.289  -2.932  24.596  0.00  0.00    +0.020 A 
ENDBRANCH  18  20
ENDBRANCH   8  18
ENDBRANCH  14  16
ENDBRANCH  12  14
BRANCH  13  15
ATOM     15  C   UNL     1      -1.079   1.425  23.773  0.00  0.00    +0.138 C 
BRANCH  15   7
ATOM      5  O   UNL     1       0.392  -0.303  22.014  0.00  0.00    -0.270 OA
ATOM      7  N   UNL     1       0.321   1.125  23.841  0.00  0.00    -0.309 N 
ATOM     17  C   UNL     1       0.954   0.271  22.942  0.00  0.00    +0.244 C 
ATOM     33  H   UNL     1       0.858   1.609  24.552  0.00  0.00    +0.149 HD
BRANCH  17  19
ATOM     19  C   UNL     1       2.405   0.043  23.164  0.00  0.00    +0.037 A 
ATOM     21  C   UNL     1       2.854  -1.194  23.631  0.00  0.00    +0.016 A 
ATOM     22  C   UNL     1       3.319   1.065  22.908  0.00  0.00    +0.016 A 
ATOM     24  C   UNL     1       4.215  -1.407  23.842  0.00  0.00    +0.046 A 
ATOM     25  C   UNL     1       4.682   0.850  23.118  0.00  0.00    +0.046 A 
ATOM     26  C   UNL     1       5.129  -0.385  23.586  0.00  0.00    +0.120 A 
BRANCH  26   6
ATOM      6  O   UNL     1       6.459  -0.593  23.790  0.00  0.00    -0.495 OA
ATOM     30  C   UNL     1       7.293  -0.652  22.635  0.00  0.00    +0.277 C 
ENDBRANCH  26   6
ENDBRANCH  17  19
ENDBRANCH  15   7
ENDBRANCH  13  15
TORSDOF 10
ENDMDL
MODEL 2
REMARK VINA RESULT:      -2.1      1.742      4.390
REMARK  Name = 26744634
REMARK  11 active torsions:
REMARK  status: ('A' for Active; 'I' for Inactive)
REMARK    1  A    between atoms: O_2  and  C_10
REMARK    2  A    between atoms: O_3  and  C_11
REMARK    3  A    between atoms: O_6  and  C_26
REMARK    4  A    between atoms: O_6  and  C_30
REMARK    5  A    between atoms: N_7  and  C_15
REMARK    6  A    between atoms: N_8  and  C_18
REMARK    7  A    between atoms: C_12  and  C_14
REMARK    8  A    between atoms: C_13  and  C_15
REMARK    9  A    between atoms: C_14  and  C_16
REMARK   10  A    between atoms: C_17  and  C_19
REMARK   11  A    between atoms: C_18  and  C_20
REMARK                            x       y       z     vdW  Elec       q    Type
REMARK                         _______ _______ _______ _____ _____    ______ ____
ROOT
ATOM      1  O   UNL     1      -2.570   0.106  25.425  0.00  0.00    -0.366 OA
ATOM     10  C   UNL     1      -3.547  -2.035  25.083  0.00  0.00    +0.175 C 
ATOM     11  C   UNL     1      -2.557  -1.751  23.972  0.00  0.00    +0.176 C 
ATOM     12  C   UNL     1      -3.783  -0.645  25.662  0.00  0.00    +0.158 C 
ATOM     13  C   UNL     1      -1.686  -0.681  24.607  0.00  0.00    +0.167 C 
ENDROOT
BRANCH  10   2
ATOM      2  O   UNL     1      -2.940  -2.838  26.094  0.00  0.00    -0.387 OA
ATOM     31  H   UNL     1      -2.022  -3.007  25.820  0.00  0.00    +0.210 HD
ENDBRANCH  10   2
BRANCH  11   3
ATOM      3  O   UNL     1      -1.809  -2.884  23.587  0.00  0.00    -0.387 OA
ATOM     32  H   UNL     1      -0.875  -2.700  23.786  0.00  0.00    +0.210 HD
ENDBRANCH  11   3
BRANCH  12  14
ATOM     14  C   UNL     1      -4.929   0.096  24.986  0.00  0.00    +0.130 C 
BRANCH  14  16
ATOM      4  O   UNL     1      -4.339   1.931  23.525  0.00  0.00    -0.276 OA
ATOM      8  N   UNL     1      -4.573   2.326  25.803  0.00  0.00    -0.310 N 
ATOM     16  C   UNL     1      -4.581   1.537  24.663  0.00  0.00    +0.216 C 
ATOM     34  H   UNL     1      -4.808   1.907  26.698  0.00  0.00    +0.149 HD
BRANCH   8  18
ATOM     18  C   UNL     1      -4.271   3.739  25.783  0.00  0.00    +0.159 C 
BRANCH  18  20
ATOM      9  N   UNL     1      -1.962   2.986  25.807  0.00  0.00    -0.258 NA
ATOM     20  C   UNL     1      -2.814   3.999  25.533  0.00  0.00    +0.058 A 
ATOM     23  C   UNL     1      -2.418   5.234  25.044  0.00  0.00    +0.025 A 
ATOM     27  C   UNL     1      -1.061   5.442  24.822  0.00  0.00    +0.003 A 
ATOM     28  C   UNL     1      -0.651   3.224  25.579  0.00  0.00    +0.111 A 
ATOM     29  C   UNL     1      -0.154   4.423  25.092  0.00  0.00    +0.020 A 
ENDBRANCH  18  20
ENDBRANCH   8  18
ENDBRANCH  14  16
ENDBRANCH  12  14
BRANCH  13  15
ATOM     15  C   UNL     1      -0.996   0.214  23.593  0.00  0.00    +0.138 C 
BRANCH  15   7
ATOM      5  O   UNL     1       0.932  -0.449  21.572  0.00  0.00    -0.270 OA
ATOM      7  N   UNL     1       0.428   0.172  23.749  0.00  0.00    -0.309 N 
ATOM     17  C   UNL     1       1.292  -0.162  22.710  0.00  0.00    +0.244 C 
ATOM     33  H   UNL     1       0.797   0.454  24.651  0.00  0.00    +0.149 HD
BRANCH  17  19
ATOM     19  C   UNL     1       2.740  -0.184  23.041  0.00  0.00    +0.037 A 
ATOM     21  C   UNL     1       3.528   0.943  22.802  0.00  0.00    +0.016 A 
ATOM     22  C   UNL     1       3.313  -1.332  23.587  0.00  0.00    +0.016 A 
ATOM     24  C   UNL     1       4.888   0.920  23.110  0.00  0.00    +0.046 A 
ATOM     25  C   UNL     1       4.673  -1.354  23.896  0.00  0.00    +0.046 A 
ATOM     26  C   UNL     1       5.460  -0.228  23.656  0.00  0.00    +0.120 A 
BRANCH  26   6
ATOM      6  O   UNL     1       6.788  -0.250  23.958  0.00  0.00    -0.495 OA
ATOM     30  C   UNL     1       7.689  -0.571  22.900  0.00  0.00    +0.277 C 
ENDBRANCH  26   6
ENDBRANCH  17  19
ENDBRANCH  15   7
ENDBRANCH  13  15
TORSDOF 10
ENDMDL
MODEL 3
REMARK VINA RESULT:      -1.8      1.336      1.535
REMARK  Name = 26744634
REMARK  11 active torsions:
REMARK  status: ('A' for Active; 'I' for Inactive)
REMARK    1  A    between atoms: O_2  and  C_10
REMARK    2  A    between atoms: O_3  and  C_11
REMARK    3  A    between atoms: O_6  and  C_26
REMARK    4  A    between atoms: O_6  and  C_30
REMARK    5  A    between atoms: N_7  and  C_15
REMARK    6  A    between atoms: N_8  and  C_18
REMARK    7  A    between atoms: C_12  and  C_14
REMARK    8  A    between atoms: C_13  and  C_15
REMARK    9  A    between atoms: C_14  and  C_16
REMARK   10  A    between atoms: C_17  and  C_19
REMARK   11  A    between atoms: C_18  and  C_20
REMARK                            x       y       z     vdW  Elec       q    Type
REMARK                         _______ _______ _______ _____ _____    ______ ____
ROOT
ATOM      1  O   UNL     1      -4.221   3.503  24.067  0.00  0.00    -0.366 OA
ATOM     10  C   UNL     1      -3.136   4.246  26.048  0.00  0.00    +0.175 C 
ATOM     11  C   UNL     1      -2.315   3.145  25.408  0.00  0.00    +0.176 C 
ATOM     12  C   UNL     1      -4.490   4.067  25.371  0.00  0.00    +0.158 C 
ATOM     13  C   UNL     1      -2.821   3.182  23.976  0.00  0.00    +0.167 C 
ENDROOT
BRANCH  10   2
ATOM      2  O   UNL     1      -2.622   5.525  25.681  0.00  0.00    -0.387 OA
ATOM     31  H   UNL     1      -3.381   6.100  25.488  0.00  0.00    +0.210 HD
ENDBRANCH  10   2
BRANCH  11   3
ATOM      3  O   UNL     1      -0.923   3.370  25.483  0.00  0.00    -0.387 OA
ATOM     32  H   UNL     1      -0.674   3.922  24.722  0.00  0.00    +0.210 HD
ENDBRANCH  11   3
BRANCH  12  14
ATOM     14  C   UNL     1      -5.407   3.107  26.115  0.00  0.00    +0.130 C 
BRANCH  14  16
ATOM      4  O   UNL     1      -6.918   2.010  24.577  0.00  0.00    -0.276 OA
ATOM      8  N   UNL     1      -5.017   0.882  25.297  0.00  0.00    -0.310 N 
ATOM     16  C   UNL     1      -5.885   1.963  25.240  0.00  0.00    +0.216 C 
ATOM     34  H   UNL     1      -4.177   0.951  25.863  0.00  0.00    +0.149 HD
BRANCH   8  18
ATOM     18  C   UNL     1      -5.233  -0.343  24.562  0.00  0.00    +0.159 C 
BRANCH  18  20
ATOM      9  N   UNL     1      -3.247  -1.104  25.734  0.00  0.00    -0.258 NA
ATOM     20  C   UNL     1      -4.065  -1.277  24.672  0.00  0.00    +0.058 A 
ATOM     23  C   UNL     1      -3.882  -2.253  23.704  0.00  0.00    +0.025 A 
ATOM     27  C   UNL     1      -2.790  -3.104  23.836  0.00  0.00    +0.003 A 
ATOM     28  C   UNL     1      -2.196  -1.949  25.829  0.00  0.00    +0.111 A 
ATOM     29  C   UNL     1      -1.927  -2.956  24.916  0.00  0.00    +0.020 A 
ENDBRANCH  18  20
ENDBRANCH   8  18
ENDBRANCH  14  16
ENDBRANCH  12  14
BRANCH  13  15
ATOM     15  C   UNL     1      -2.646   1.865  23.241  0.00  0.00    +0.138 C 
BRANCH  15   7
ATOM      5  O   UNL     1      -0.835   0.407  24.926  0.00  0.00    -0.270 OA
ATOM      7  N   UNL     1      -1.263   1.597  22.981  0.00  0.00    -0.309 N 
ATOM     17  C   UNL     1      -0.455   0.879  23.858  0.00  0.00    +0.244 C 
ATOM     33  H   UNL     1      -0.896   1.911  22.089  0.00  0.00    +0.149 HD
BRANCH  17  19
ATOM     19  C   UNL     1       0.965   0.709  23.455  0.00  0.00    +0.037 A 
ATOM     21  C   UNL     1       1.440  -0.549  23.084  0.00  0.00    +0.016 A 
ATOM     22  C   UNL     1       1.824   1.808  23.450  0.00  0.00    +0.016 A 
ATOM     24  C   UNL     1       2.773  -0.709  22.708  0.00  0.00    +0.046 A 
ATOM     25  C   UNL     1       3.158   1.648  23.074  0.00  0.00    +0.046 A 
ATOM     26  C   UNL     1       3.632   0.390  22.704  0.00  0.00    +0.120 A 
BRANCH  26   6
ATOM      6  O   UNL     1       4.934   0.235  22.336  0.00  0.00    -0.495 OA
ATOM     30  C   UNL     1       5.849  -0.184  23.347  0.00  0.00    +0.277 C 
ENDBRANCH  26   6
ENDBRANCH  17  19
ENDBRANCH  15   7
ENDBRANCH  13  15
TORSDOF 10
ENDMDL
MODEL 4
REMARK VINA RESULT:      -1.2      2.779      7.799
REMARK  Name = 26744634
REMARK  11 active torsions:
REMARK  status: ('A' for Active; 'I' for Inactive)
REMARK    1  A    between atoms: O_2  and  C_10
REMARK    2  A    between atoms: O_3  and  C_11
REMARK    3  A    between atoms: O_6  and  C_26
REMARK    4  A    between atoms: O_6  and  C_30
REMARK    5  A    between atoms: N_7  and  C_15
REMARK    6  A    between atoms: N_8  and  C_18
REMARK    7  A    between atoms: C_12  and  C_14
REMARK    8  A    between atoms: C_13  and  C_15
REMARK    9  A    between atoms: C_14  and  C_16
REMARK   10  A    between atoms: C_17  and  C_19
REMARK   11  A    between atoms: C_18  and  C_20
REMARK                            x       y       z     vdW  Elec       q    Type
REMARK                         _______ _______ _______ _____ _____    ______ ____
ROOT
ATOM      1  O   UNL     1      -1.425  -2.788  23.662  0.00  0.00    -0.366 OA
ATOM     10  C   UNL     1      -0.213  -1.449  25.207  0.00  0.00    +0.175 C 
ATOM     11  C   UNL     1      -1.698  -1.268  25.443  0.00  0.00    +0.176 C 
ATOM     12  C   UNL     1      -0.184  -2.061  23.812  0.00  0.00    +0.158 C 
ATOM     13  C   UNL     1      -2.263  -2.524  24.801  0.00  0.00    +0.167 C 
ENDROOT
BRANCH  10   2
ATOM      2  O   UNL     1       0.321  -2.404  26.122  0.00  0.00    -0.387 OA
ATOM     31  H   UNL     1      -0.143  -2.288  26.968  0.00  0.00    +0.210 HD
ENDBRANCH  10   2
BRANCH  11   3
ATOM      3  O   UNL     1      -2.040  -1.171  26.809  0.00  0.00    -0.387 OA
ATOM     32  H   UNL     1      -2.428  -0.291  26.951  0.00  0.00    +0.210 HD
ENDBRANCH  11   3
BRANCH  12  14
ATOM     14  C   UNL     1      -0.116  -1.020  22.704  0.00  0.00    +0.130 C 
BRANCH  14  16
ATOM      4  O   UNL     1       1.943   0.245  22.802  0.00  0.00    -0.276 OA
ATOM      8  N   UNL     1       0.019   1.137  23.751  0.00  0.00    -0.310 N 
ATOM     16  C   UNL     1       0.748   0.171  23.075  0.00  0.00    +0.216 C 
ATOM     34  H   UNL     1      -0.974   0.988  23.911  0.00  0.00    +0.149 HD
BRANCH   8  18
ATOM     18  C   UNL     1       0.596   2.375  24.224  0.00  0.00    +0.159 C 
BRANCH  18  20
ATOM      9  N   UNL     1      -1.170   2.712  25.856  0.00  0.00    -0.258 NA
ATOM     20  C   UNL     1      -0.427   3.262  24.870  0.00  0.00    +0.058 A 
ATOM     23  C   UNL     1      -0.560   4.572  24.439  0.00  0.00    +0.025 A 
ATOM     27  C   UNL     1      -1.516   5.369  25.059  0.00  0.00    +0.003 A 
ATOM     28  C   UNL     1      -2.090   3.515  26.436  0.00  0.00    +0.111 A 
ATOM     29  C   UNL     1      -2.300   4.837  26.078  0.00  0.00    +0.020 A 
ENDBRANCH  18  20
ENDBRANCH   8  18
ENDBRANCH  14  16
ENDBRANCH  12  14
BRANCH  13  15
ATOM     15  C   UNL     1      -3.705  -2.373  24.351  0.00  0.00    +0.138 C 
BRANCH  15   7
ATOM      5  O   UNL     1      -3.192   0.127  23.035  0.00  0.00    -0.270 OA
ATOM      7  N   UNL     1      -4.230  -1.091  24.715  0.00  0.00    -0.309 N 
ATOM     17  C   UNL     1      -3.927   0.075  24.018  0.00  0.00    +0.244 C 
ATOM     33  H   UNL     1      -4.889  -1.069  25.485  0.00  0.00    +0.149 HD
BRANCH  17  19
ATOM     19  C   UNL     1      -4.531   1.329  24.538  0.00  0.00    +0.037 A 
ATOM     21  C   UNL     1      -5.396   1.285  25.632  0.00  0.00    +0.016 A 
ATOM     22  C   UNL     1      -4.236   2.549  23.931  0.00  0.00    +0.016 A 
ATOM     24  C   UNL     1      -5.966   2.461  26.118  0.00  0.00    +0.046 A 
ATOM     25  C   UNL     1      -4.806   3.726  24.417  0.00  0.00    +0.046 A 
ATOM     26  C   UNL     1      -5.671   3.681  25.511  0.00  0.00    +0.120 A 
BRANCH  26   6
ATOM      6  O   UNL     1      -6.226   4.831  25.985  0.00  0.00    -0.495 OA
ATOM     30  C   UNL     1      -6.543   5.841  25.030  0.00  0.00    +0.277 C 
ENDBRANCH  26   6
ENDBRANCH  17  19
ENDBRANCH  15   7
ENDBRANCH  13  15
TORSDOF 10
ENDMDL
MODEL 5
REMARK VINA RESULT:       0.1      1.911      6.387
REMARK  Name = 26744634
REMARK  11 active torsions:
REMARK  status: ('A' for Active; 'I' for Inactive)
REMARK    1  A    between atoms: O_2  and  C_10
REMARK    2  A    between atoms: O_3  and  C_11
REMARK    3  A    between atoms: O_6  and  C_26
REMARK    4  A    between atoms: O_6  and  C_30
REMARK    5  A    between atoms: N_7  and  C_15
REMARK    6  A    between atoms: N_8  and  C_18
REMARK    7  A    between atoms: C_12  and  C_14
REMARK    8  A    between atoms: C_13  and  C_15
REMARK    9  A    between atoms: C_14  and  C_16
REMARK   10  A    between atoms: C_17  and  C_19
REMARK   11  A    between atoms: C_18  and  C_20
REMARK                            x       y       z     vdW  Elec       q    Type
REMARK                         _______ _______ _______ _____ _____    ______ ____
ROOT
ATOM      1  O   UNL     1      -1.960   3.515  26.696  0.00  0.00    -0.366 OA
ATOM     10  C   UNL     1      -1.058   4.332  24.653  0.00  0.00    +0.175 C 
ATOM     11  C   UNL     1      -2.555   4.151  24.505  0.00  0.00    +0.176 C 
ATOM     12  C   UNL     1      -0.758   3.497  25.893  0.00  0.00    +0.158 C 
ATOM     13  C   UNL     1      -3.008   4.165  25.955  0.00  0.00    +0.167 C 
ENDROOT
BRANCH  10   2
ATOM      2  O   UNL     1      -0.752   5.694  24.951  0.00  0.00    -0.387 OA
ATOM     31  H   UNL     1      -0.740   6.181  24.110  0.00  0.00    +0.210 HD
ENDBRANCH  10   2
BRANCH  11   3
ATOM      3  O   UNL     1      -3.169   5.171  23.748  0.00  0.00    -0.387 OA
ATOM     32  H   UNL     1      -3.834   5.597  24.316  0.00  0.00    +0.210 HD
ENDBRANCH  11   3
BRANCH  12  14
ATOM     14  C   UNL     1      -0.434   2.045  25.570  0.00  0.00    +0.130 C 
BRANCH  14  16
ATOM      4  O   UNL     1       0.849   2.857  23.687  0.00  0.00    -0.276 OA
ATOM      8  N   UNL     1       0.551   0.568  23.952  0.00  0.00    -0.310 N 
ATOM     16  C   UNL     1       0.392   1.899  24.305  0.00  0.00    +0.216 C 
ATOM     34  H   UNL     1       0.148  -0.153  24.544  0.00  0.00    +0.149 HD
BRANCH   8  18
ATOM     18  C   UNL     1       1.293   0.143  22.788  0.00  0.00    +0.159 C 
BRANCH  18  20
ATOM      9  N   UNL     1       3.122  -1.250  23.570  0.00  0.00    -0.258 NA
ATOM     20  C   UNL     1       2.752  -0.043  23.088  0.00  0.00    +0.058 A 
ATOM     23  C   UNL     1       3.631   1.004  22.860  0.00  0.00    +0.025 A 
ATOM     27  C   UNL     1       4.976   0.799  23.147  0.00  0.00    +0.003 A 
ATOM     28  C   UNL     1       4.437  -1.413  23.838  0.00  0.00    +0.111 A 
ATOM     29  C   UNL     1       5.395  -0.431  23.646  0.00  0.00    +0.020 A 
ENDBRANCH  18  20
ENDBRANCH   8  18
ENDBRANCH  14  16
ENDBRANCH  12  14
BRANCH  13  15
ATOM     15  C   UNL     1      -4.321   3.438  26.182  0.00  0.00    +0.138 C 
BRANCH  15   7
ATOM      5  O   UNL     1      -4.076   2.148  23.628  0.00  0.00    -0.270 OA
ATOM      7  N   UNL     1      -4.183   2.032  25.943  0.00  0.00    -0.309 N 
ATOM     17  C   UNL     1      -4.070   1.490  24.666  0.00  0.00    +0.244 C 
ATOM     33  H   UNL     1      -4.115   1.434  26.760  0.00  0.00    +0.149 HD
BRANCH  17  19
ATOM     19  C   UNL     1      -3.959   0.011  24.586  0.00  0.00    +0.037 A 
ATOM     21  C   UNL     1      -3.263  -0.691  25.570  0.00  0.00    +0.016 A 
ATOM     22  C   UNL     1      -4.549  -0.676  23.524  0.00  0.00    +0.016 A 
ATOM     24  C   UNL     1      -3.157  -2.079  25.494  0.00  0.00    +0.046 A 
ATOM     25  C   UNL     1      -4.443  -2.065  23.448  0.00  0.00    +0.046 A 
ATOM     26  C   UNL     1      -3.746  -2.766  24.433  0.00  0.00    +0.120 A 
BRANCH  26   6
ATOM      6  O   UNL     1      -3.644  -4.122  24.357  0.00  0.00    -0.495 OA
ATOM     30  C   UNL     1      -2.952  -4.659  23.232  0.00  0.00    +0.277 C 
ENDBRANCH  26   6
ENDBRANCH  17  19
ENDBRANCH  15   7
ENDBRANCH  13  15
TORSDOF 10
ENDMDL
MODEL 6
REMARK VINA RESULT:       0.1      2.586      4.790
REMARK  Name = 26744634
REMARK  11 active torsions:
REMARK  status: ('A' for Active; 'I' for Inactive)
REMARK    1  A    between atoms: O_2  and  C_10
REMARK    2  A    between atoms: O_3  and  C_11
REMARK    3  A    between atoms: O_6  and  C_26
REMARK    4  A    between atoms: O_6  and  C_30
REMARK    5  A    between atoms: N_7  and  C_15
REMARK    6  A    between atoms: N_8  and  C_18
REMARK    7  A    between atoms: C_12  and  C_14
REMARK    8  A    between atoms: C_13  and  C_15
REMARK    9  A    between atoms: C_14  and  C_16
REMARK   10  A    between atoms: C_17  and  C_19
REMARK   11  A    between atoms: C_18  and  C_20
REMARK                            x       y       z     vdW  Elec       q    Type
REMARK                         _______ _______ _______ _____ _____    ______ ____
ROOT
ATOM      1  O   UNL     1      -3.236   1.771  25.629  0.00  0.00    -0.366 OA
ATOM     10  C   UNL     1      -5.128   3.209  25.727  0.00  0.00    +0.175 C 
ATOM     11  C   UNL     1      -5.369   2.131  24.691  0.00  0.00    +0.176 C 
ATOM     12  C   UNL     1      -3.617   3.137  25.915  0.00  0.00    +0.158 C 
ATOM     13  C   UNL     1      -4.383   1.061  25.130  0.00  0.00    +0.167 C 
ENDROOT
BRANCH  10   2
ATOM      2  O   UNL     1      -5.746   2.856  26.963  0.00  0.00    -0.387 OA
ATOM     31  H   UNL     1      -5.053   2.493  27.541  0.00  0.00    +0.210 HD
ENDBRANCH  10   2
BRANCH  11   3
ATOM      3  O   UNL     1      -6.698   1.654  24.679  0.00  0.00    -0.387 OA
ATOM     32  H   UNL     1      -7.038   1.716  25.588  0.00  0.00    +0.210 HD
ENDBRANCH  11   3
BRANCH  12  14
ATOM     14  C   UNL     1      -2.852   4.044  24.960  0.00  0.00    +0.130 C 
BRANCH  14  16
ATOM      4  O   UNL     1      -0.796   3.685  23.739  0.00  0.00    -0.276 OA
ATOM      8  N   UNL     1      -0.861   3.209  26.013  0.00  0.00    -0.310 N 
ATOM     16  C   UNL     1      -1.399   3.636  24.808  0.00  0.00    +0.216 C 
ATOM     34  H   UNL     1      -1.441   3.225  26.847  0.00  0.00    +0.149 HD
BRANCH   8  18
ATOM     18  C   UNL     1       0.505   2.762  26.153  0.00  0.00    +0.159 C 
BRANCH  18  20
ATOM      9  N   UNL     1       2.259   2.828  27.832  0.00  0.00    -0.258 NA
ATOM     20  C   UNL     1       0.934   2.706  27.590  0.00  0.00    +0.058 A 
ATOM     23  C   UNL     1      -0.023   2.539  28.578  0.00  0.00    +0.025 A 
ATOM     27  C   UNL     1       0.408   2.494  29.900  0.00  0.00    +0.003 A 
ATOM     28  C   UNL     1       2.640   2.779  29.128  0.00  0.00    +0.111 A 
ATOM     29  C   UNL     1       1.763   2.615  30.188  0.00  0.00    +0.020 A 
ENDBRANCH  18  20
ENDBRANCH   8  18
ENDBRANCH  14  16
ENDBRANCH  12  14
BRANCH  13  15
ATOM     15  C   UNL     1      -3.960   0.134  24.005  0.00  0.00    +0.138 C 
BRANCH  15   7
ATOM      5  O   UNL     1      -1.778  -1.695  24.375  0.00  0.00    -0.270 OA
ATOM      7  N   UNL     1      -2.591   0.351  23.642  0.00  0.00    -0.309 N 
ATOM     17  C   UNL     1      -1.593  -0.595  23.860  0.00  0.00    +0.244 C 
ATOM     33  H   UNL     1      -2.378   1.217  23.160  0.00  0.00    +0.149 HD
BRANCH  17  19
ATOM     19  C   UNL     1      -0.219  -0.208  23.450  0.00  0.00    +0.037 A 
ATOM     21  C   UNL     1       0.376  -0.814  22.343  0.00  0.00    +0.016 A 
ATOM     22  C   UNL     1       0.477   0.760  24.173  0.00  0.00    +0.016 A 
ATOM     24  C   UNL     1       1.667  -0.452  21.961  0.00  0.00    +0.046 A 
ATOM     25  C   UNL     1       1.769   1.122  23.790  0.00  0.00    +0.046 A 
ATOM     26  C   UNL     1       2.364   0.516  22.684  0.00  0.00    +0.120 A 
BRANCH  26   6
ATOM      6  O   UNL     1       3.624   0.870  22.311  0.00  0.00    -0.495 OA
ATOM     30  C   UNL     1       4.691   0.477  23.172  0.00  0.00    +0.277 C 
ENDBRANCH  26   6
ENDBRANCH  17  19
ENDBRANCH  15   7
ENDBRANCH  13  15
TORSDOF 10
ENDMDL
MODEL 7
REMARK VINA RESULT:       0.9      2.450      8.132
REMARK  Name = 26744634
REMARK  11 active torsions:
REMARK  status: ('A' for Active; 'I' for Inactive)
REMARK    1  A    between atoms: O_2  and  C_10
REMARK    2  A    between atoms: O_3  and  C_11
REMARK    3  A    between atoms: O_6  and  C_26
REMARK    4  A    between atoms: O_6  and  C_30
REMARK    5  A    between atoms: N_7  and  C_15
REMARK    6  A    between atoms: N_8  and  C_18
REMARK    7  A    between atoms: C_12  and  C_14
REMARK    8  A    between atoms: C_13  and  C_15
REMARK    9  A    between atoms: C_14  and  C_16
REMARK   10  A    between atoms: C_17  and  C_19
REMARK   11  A    between atoms: C_18  and  C_20
REMARK                            x       y       z     vdW  Elec       q    Type
REMARK                         _______ _______ _______ _____ _____    ______ ____
ROOT
ATOM      1  O   UNL     1      -1.407  -2.552  23.738  0.00  0.00    -0.366 OA
ATOM     10  C   UNL     1      -0.125  -1.258  25.267  0.00  0.00    +0.175 C 
ATOM     11  C   UNL     1      -1.581  -1.233  25.685  0.00  0.00    +0.176 C 
ATOM     12  C   UNL     1      -0.217  -1.734  23.822  0.00  0.00    +0.158 C 
ATOM     13  C   UNL     1      -2.119  -2.470  24.986  0.00  0.00    +0.167 C 
ENDROOT
BRANCH  10   2
ATOM      2  O   UNL     1       0.588  -2.243  26.014  0.00  0.00    -0.387 OA
ATOM     31  H   UNL     1       0.248  -2.221  26.924  0.00  0.00    +0.210 HD
ENDBRANCH  10   2
BRANCH  11   3
ATOM      3  O   UNL     1      -1.762  -1.294  27.084  0.00  0.00    -0.387 OA
ATOM     32  H   UNL     1      -0.908  -1.086  27.499  0.00  0.00    +0.210 HD
ENDBRANCH  11   3
BRANCH  12  14
ATOM     14  C   UNL     1      -0.365  -0.592  22.826  0.00  0.00    +0.130 C 
BRANCH  14  16
ATOM      4  O   UNL     1       1.347  -0.569  21.118  0.00  0.00    -0.276 OA
ATOM      8  N   UNL     1       1.658   0.684  23.050  0.00  0.00    -0.310 N 
ATOM     16  C   UNL     1       0.960  -0.176  22.215  0.00  0.00    +0.216 C 
ATOM     34  H   UNL     1       1.240   0.965  23.932  0.00  0.00    +0.149 HD
BRANCH   8  18
ATOM     18  C   UNL     1       2.952   1.233  22.715  0.00  0.00    +0.159 C 
BRANCH  18  20
ATOM      9  N   UNL     1       5.236   1.045  23.517  0.00  0.00    -0.258 NA
ATOM     20  C   UNL     1       4.074   0.403  23.266  0.00  0.00    +0.058 A 
ATOM     23  C   UNL     1       3.872  -0.950  23.488  0.00  0.00    +0.025 A 
ATOM     27  C   UNL     1       4.932  -1.691  24.001  0.00  0.00    +0.003 A 
ATOM     28  C   UNL     1       6.244   0.294  24.015  0.00  0.00    +0.111 A 
ATOM     29  C   UNL     1       6.144  -1.064  24.272  0.00  0.00    +0.020 A 
ENDBRANCH  18  20
ENDBRANCH   8  18
ENDBRANCH  14  16
ENDBRANCH  12  14
BRANCH  13  15
ATOM     15  C   UNL     1      -3.612  -2.408  24.718  0.00  0.00    +0.138 C 
BRANCH  15   7
ATOM      5  O   UNL     1      -3.554  -0.070  23.053  0.00  0.00    -0.270 OA
ATOM      7  N   UNL     1      -4.143  -1.117  25.039  0.00  0.00    -0.309 N 
ATOM     17  C   UNL     1      -4.070  -0.033  24.167  0.00  0.00    +0.244 C 
ATOM     33  H   UNL     1      -4.633  -1.030  25.922  0.00  0.00    +0.149 HD
BRANCH  17  19
ATOM     19  C   UNL     1      -4.645   1.246  24.659  0.00  0.00    +0.037 A 
ATOM     21  C   UNL     1      -4.107   2.461  24.235  0.00  0.00    +0.016 A 
ATOM     22  C   UNL     1      -5.721   1.231  25.546  0.00  0.00    +0.016 A 
ATOM     24  C   UNL     1      -4.645   3.661  24.698  0.00  0.00    +0.046 A 
ATOM     25  C   UNL     1      -6.259   2.432  26.010  0.00  0.00    +0.046 A 
ATOM     26  C   UNL     1      -5.721   3.646  25.586  0.00  0.00    +0.120 A 
BRANCH  26   6
ATOM      6  O   UNL     1      -6.247   4.818  26.039  0.00  0.00    -0.495 OA
ATOM     30  C   UNL     1      -6.368   5.882  25.097  0.00  0.00    +0.277 C 
ENDBRANCH  26   6
ENDBRANCH  17  19
ENDBRANCH  15   7
ENDBRANCH  13  15
TORSDOF 10
ENDMDL
