MODEL 1
REMARK VINA RESULT:      -0.4      0.000      0.000
REMARK  Name = 45783990
REMARK  10 active torsions:
REMARK  status: ('A' for Active; 'I' for Inactive)
REMARK    1  A    between atoms: N_4  and  C_13
REMARK    2  A    between atoms: N_7  and  C_31
REMARK    3  A    between atoms: C_8  and  C_12
REMARK    4  A    between atoms: C_9  and  C_13
REMARK    5  A    between atoms: C_11  and  C_16
REMARK    6  A    between atoms: C_12  and  C_19
REMARK    7  A    between atoms: C_12  and  C_20
REMARK    8  A    between atoms: C_15  and  C_23
REMARK    9  A    between atoms: C_16  and  C_24
REMARK   10  A    between atoms: C_25  and  C_26
REMARK                            x       y       z     vdW  Elec       q    Type
REMARK                         _______ _______ _______ _____ _____    ______ ____
ROOT
ATOM      8  C   UNL     1      -3.239   2.933  24.257  0.00  0.00    +0.000 C 
ATOM      9  C   UNL     1      -4.007   3.758  25.317  0.00  0.00    +0.029 C 
ATOM     10  C   UNL     1      -3.202   1.451  24.654  0.00  0.00    +0.012 C 
ATOM     11  C   UNL     1      -4.604   0.838  24.866  0.00  0.00    +0.024 C 
ATOM     14  C   UNL     1      -5.277   3.083  25.768  0.00  0.00    -0.023 C 
ATOM     15  C   UNL     1      -5.567   1.784  25.566  0.00  0.00    -0.073 C 
ATOM     23  C   UNL     1      -6.903   1.232  25.982  0.00  0.00    +0.039 C 
ENDROOT
BRANCH   8  12
ATOM     12  C   UNL     1      -3.845   3.119  22.858  0.00  0.00    -0.013 C 
ATOM     19  C   UNL     1      -2.897   2.578  21.794  0.00  0.00    +0.007 C 
ATOM     20  C   UNL     1      -4.160   4.590  22.607  0.00  0.00    +0.007 C 
ENDBRANCH   8  12
BRANCH   9  13
ATOM     13  C   UNL     1      -3.134   4.060  26.539  0.00  0.00    +0.092 C 
BRANCH  13   4
ATOM      4  N   UNL     1      -1.777   4.392  26.133  0.00  0.00    -0.302 NA
ATOM     17  C   UNL     1      -1.009   3.213  25.734  0.00  0.00    +0.084 C 
ATOM     18  C   UNL     1      -1.744   5.278  24.970  0.00  0.00    +0.084 C 
ATOM     21  C   UNL     1       0.182   3.814  25.002  0.00  0.00    +0.017 C 
ATOM     22  C   UNL     1      -0.299   5.172  24.503  0.00  0.00    +0.017 C 
ENDBRANCH  13   4
ENDBRANCH   9  13
BRANCH  11  16
ATOM     16  C   UNL     1      -4.447  -0.501  25.595  0.00  0.00    +0.105 C 
BRANCH  16  24
ATOM      1  O   UNL     1      -2.140  -0.411  24.800  0.00  0.00    -0.420 OA
ATOM      5  N   UNL     1      -2.905  -2.483  25.162  0.00  0.00    -0.112 NA
ATOM      6  N   UNL     1      -1.599  -2.580  24.719  0.00  0.00    -0.107 NA
ATOM     24  C   UNL     1      -3.178  -1.200  25.194  0.00  0.00    +0.218 A 
ATOM     25  C   UNL     1      -1.193  -1.348  24.521  0.00  0.00    +0.248 A 
BRANCH  25  26
ATOM     26  C   UNL     1       0.070  -0.845  24.065  0.00  0.00    +0.039 A 
ATOM     27  C   UNL     1       1.192  -1.674  24.069  0.00  0.00    +0.015 A 
ATOM     28  C   UNL     1       0.177   0.471  23.618  0.00  0.00    +0.015 A 
ATOM     29  C   UNL     1       2.421  -1.186  23.626  0.00  0.00    +0.033 A 
ATOM     30  C   UNL     1       1.405   0.960  23.175  0.00  0.00    +0.033 A 
ATOM     31  C   UNL     1       2.528   0.132  23.179  0.00  0.00    +0.126 A 
BRANCH  31   7
ATOM      2  O   UNL     1       4.679   0.869  23.564  0.00  0.00    -0.126 OA
ATOM      3  O   UNL     1       3.948   0.815  21.495  0.00  0.00    -0.126 OA
ATOM      7  N   UNL     1       3.779   0.628  22.724  0.00  0.00    +0.056 N 
ENDBRANCH  31   7
ENDBRANCH  25  26
ENDBRANCH  16  24
ENDBRANCH  11  16
TORSDOF 7
ENDMDL
MODEL 2
REMARK VINA RESULT:       0.6      2.022      4.031
REMARK  Name = 45783990
REMARK  10 active torsions:
REMARK  status: ('A' for Active; 'I' for Inactive)
REMARK    1  A    between atoms: N_4  and  C_13
REMARK    2  A    between atoms: N_7  and  C_31
REMARK    3  A    between atoms: C_8  and  C_12
REMARK    4  A    between atoms: C_9  and  C_13
REMARK    5  A    between atoms: C_11  and  C_16
REMARK    6  A    between atoms: C_12  and  C_19
REMARK    7  A    between atoms: C_12  and  C_20
REMARK    8  A    between atoms: C_15  and  C_23
REMARK    9  A    between atoms: C_16  and  C_24
REMARK   10  A    between atoms: C_25  and  C_26
REMARK                            x       y       z     vdW  Elec       q    Type
REMARK                         _______ _______ _______ _____ _____    ______ ____
ROOT
ATOM      8  C   UNL     1      -2.890   2.402  25.911  0.00  0.00    +0.000 C 
ATOM      9  C   UNL     1      -4.393   2.344  25.549  0.00  0.00    +0.029 C 
ATOM     10  C   UNL     1      -2.043   1.787  24.788  0.00  0.00    +0.012 C 
ATOM     11  C   UNL     1      -2.267   2.456  23.415  0.00  0.00    +0.024 C 
ATOM     14  C   UNL     1      -4.661   2.742  24.120  0.00  0.00    -0.023 C 
ATOM     15  C   UNL     1      -3.724   2.810  23.156  0.00  0.00    -0.073 C 
ATOM     23  C   UNL     1      -4.085   3.303  21.782  0.00  0.00    +0.039 C 
ENDROOT
BRANCH   8  12
ATOM     12  C   UNL     1      -2.444   3.838  26.219  0.00  0.00    -0.013 C 
ATOM     19  C   UNL     1      -3.626   4.795  26.115  0.00  0.00    +0.007 C 
ATOM     20  C   UNL     1      -1.321   4.260  25.276  0.00  0.00    +0.007 C 
ENDBRANCH   8  12
BRANCH   9  13
ATOM     13  C   UNL     1      -4.982   0.953  25.804  0.00  0.00    +0.092 C 
BRANCH  13   4
ATOM      4  N   UNL     1      -4.152  -0.076  25.198  0.00  0.00    -0.302 NA
ATOM     17  C   UNL     1      -3.744  -1.102  26.156  0.00  0.00    +0.084 C 
ATOM     18  C   UNL     1      -4.850  -0.803  24.137  0.00  0.00    +0.084 C 
ATOM     21  C   UNL     1      -3.250  -2.229  25.260  0.00  0.00    +0.017 C 
ATOM     22  C   UNL     1      -3.973  -2.030  23.932  0.00  0.00    +0.017 C 
ENDBRANCH  13   4
ENDBRANCH   9  13
BRANCH  11  16
ATOM     16  C   UNL     1      -1.670   1.554  22.328  0.00  0.00    +0.105 C 
BRANCH  16  24
ATOM      1  O   UNL     1       0.645   0.868  22.685  0.00  0.00    -0.420 OA
ATOM      5  N   UNL     1      -0.868  -0.504  23.598  0.00  0.00    -0.112 NA
ATOM      6  N   UNL     1       0.389  -1.008  23.875  0.00  0.00    -0.107 NA
ATOM     24  C   UNL     1      -0.670   0.591  22.902  0.00  0.00    +0.218 A 
ATOM     25  C   UNL     1       1.241  -0.176  23.324  0.00  0.00    +0.248 A 
BRANCH  25  26
ATOM     26  C   UNL     1       2.674  -0.196  23.291  0.00  0.00    +0.039 A 
ATOM     27  C   UNL     1       3.366  -1.311  23.764  0.00  0.00    +0.015 A 
ATOM     28  C   UNL     1       3.376   0.898  22.786  0.00  0.00    +0.015 A 
ATOM     29  C   UNL     1       4.760  -1.332  23.732  0.00  0.00    +0.033 A 
ATOM     30  C   UNL     1       4.770   0.878  22.755  0.00  0.00    +0.033 A 
ATOM     31  C   UNL     1       5.463  -0.237  23.228  0.00  0.00    +0.126 A 
BRANCH  31   7
ATOM      2  O   UNL     1       7.522   0.423  24.030  0.00  0.00    -0.126 OA
ATOM      3  O   UNL     1       7.457  -0.957  22.324  0.00  0.00    -0.126 OA
ATOM      7  N   UNL     1       6.882  -0.259  23.193  0.00  0.00    +0.056 N 
ENDBRANCH  31   7
ENDBRANCH  25  26
ENDBRANCH  16  24
ENDBRANCH  11  16
TORSDOF 7
ENDMDL
MODEL 3
REMARK VINA RESULT:       0.9      2.094      4.553
REMARK  Name = 45783990
REMARK  10 active torsions:
REMARK  status: ('A' for Active; 'I' for Inactive)
REMARK    1  A    between atoms: N_4  and  C_13
REMARK    2  A    between atoms: N_7  and  C_31
REMARK    3  A    between atoms: C_8  and  C_12
REMARK    4  A    between atoms: C_9  and  C_13
REMARK    5  A    between atoms: C_11  and  C_16
REMARK    6  A    between atoms: C_12  and  C_19
REMARK    7  A    between atoms: C_12  and  C_20
REMARK    8  A    between atoms: C_15  and  C_23
REMARK    9  A    between atoms: C_16  and  C_24
REMARK   10  A    between atoms: C_25  and  C_26
REMARK                            x       y       z     vdW  Elec       q    Type
REMARK                         _______ _______ _______ _____ _____    ______ ____
ROOT
ATOM      8  C   UNL     1      -4.287   1.889  25.716  0.00  0.00    +0.000 C 
ATOM      9  C   UNL     1      -4.404   0.597  24.873  0.00  0.00    +0.029 C 
ATOM     10  C   UNL     1      -2.883   2.495  25.580  0.00  0.00    +0.012 C 
ATOM     11  C   UNL     1      -2.486   2.798  24.118  0.00  0.00    +0.024 C 
ATOM     14  C   UNL     1      -3.793   0.744  23.502  0.00  0.00    -0.023 C 
ATOM     15  C   UNL     1      -2.945   1.725  23.142  0.00  0.00    -0.073 C 
ATOM     23  C   UNL     1      -2.462   1.826  21.722  0.00  0.00    +0.039 C 
ENDROOT
BRANCH   8  12
ATOM     12  C   UNL     1      -5.370   2.907  25.333  0.00  0.00    -0.013 C 
ATOM     19  C   UNL     1      -4.932   4.317  25.712  0.00  0.00    +0.007 C 
ATOM     20  C   UNL     1      -6.693   2.553  26.005  0.00  0.00    +0.007 C 
ENDBRANCH   8  12
BRANCH   9  13
ATOM     13  C   UNL     1      -3.767  -0.601  25.583  0.00  0.00    +0.092 C 
BRANCH  13   4
ATOM      4  N   UNL     1      -3.084  -1.461  24.630  0.00  0.00    -0.302 NA
ATOM     17  C   UNL     1      -1.801  -1.949  25.136  0.00  0.00    +0.084 C 
ATOM     18  C   UNL     1      -3.851  -2.666  24.315  0.00  0.00    +0.084 C 
ATOM     21  C   UNL     1      -1.473  -3.092  24.187  0.00  0.00    +0.017 C 
ATOM     22  C   UNL     1      -2.819  -3.561  23.644  0.00  0.00    +0.017 C 
ENDBRANCH  13   4
ENDBRANCH   9  13
BRANCH  11  16
ATOM     16  C   UNL     1      -0.975   3.048  24.064  0.00  0.00    +0.105 C 
BRANCH  16  24
ATOM      1  O   UNL     1       1.140   1.869  23.749  0.00  0.00    -0.420 OA
ATOM      5  N   UNL     1      -0.670   0.566  23.574  0.00  0.00    -0.112 NA
ATOM      6  N   UNL     1       0.447  -0.224  23.376  0.00  0.00    -0.107 NA
ATOM     24  C   UNL     1      -0.218   1.779  23.788  0.00  0.00    +0.218 A 
ATOM     25  C   UNL     1       1.480   0.578  23.487  0.00  0.00    +0.248 A 
BRANCH  25  26
ATOM     26  C   UNL     1       2.884   0.309  23.377  0.00  0.00    +0.039 A 
ATOM     27  C   UNL     1       3.384  -0.942  23.737  0.00  0.00    +0.015 A 
ATOM     28  C   UNL     1       3.749   1.297  22.910  0.00  0.00    +0.015 A 
ATOM     29  C   UNL     1       4.749  -1.205  23.631  0.00  0.00    +0.033 A 
ATOM     30  C   UNL     1       5.115   1.036  22.804  0.00  0.00    +0.033 A 
ATOM     31  C   UNL     1       5.615  -0.216  23.165  0.00  0.00    +0.126 A 
BRANCH  31   7
ATOM      2  O   UNL     1       7.408  -1.233  22.132  0.00  0.00    -0.126 OA
ATOM      3  O   UNL     1       7.793   0.036  23.881  0.00  0.00    -0.126 OA
ATOM      7  N   UNL     1       7.006  -0.483  23.053  0.00  0.00    +0.056 N 
ENDBRANCH  31   7
ENDBRANCH  25  26
ENDBRANCH  16  24
ENDBRANCH  11  16
TORSDOF 7
ENDMDL
MODEL 4
REMARK VINA RESULT:       2.2      1.596      4.748
REMARK  Name = 45783990
REMARK  10 active torsions:
REMARK  status: ('A' for Active; 'I' for Inactive)
REMARK    1  A    between atoms: N_4  and  C_13
REMARK    2  A    between atoms: N_7  and  C_31
REMARK    3  A    between atoms: C_8  and  C_12
REMARK    4  A    between atoms: C_9  and  C_13
REMARK    5  A    between atoms: C_11  and  C_16
REMARK    6  A    between atoms: C_12  and  C_19
REMARK    7  A    between atoms: C_12  and  C_20
REMARK    8  A    between atoms: C_15  and  C_23
REMARK    9  A    between atoms: C_16  and  C_24
REMARK   10  A    between atoms: C_25  and  C_26
REMARK                            x       y       z     vdW  Elec       q    Type
REMARK                         _______ _______ _______ _____ _____    ______ ____
ROOT
ATOM      8  C   UNL     1      -4.630   1.069  25.440  0.00  0.00    +0.000 C 
ATOM      9  C   UNL     1      -4.253   1.114  23.940  0.00  0.00    +0.029 C 
ATOM     10  C   UNL     1      -3.918   2.192  26.207  0.00  0.00    +0.012 C 
ATOM     11  C   UNL     1      -4.213   3.600  25.645  0.00  0.00    +0.024 C 
ATOM     14  C   UNL     1      -4.268   2.514  23.381  0.00  0.00    -0.023 C 
ATOM     15  C   UNL     1      -4.262   3.636  24.125  0.00  0.00    -0.073 C 
ATOM     23  C   UNL     1      -4.366   4.983  23.465  0.00  0.00    +0.039 C 
ENDROOT
BRANCH   8  12
ATOM     12  C   UNL     1      -6.151   1.140  25.636  0.00  0.00    -0.013 C 
ATOM     19  C   UNL     1      -6.826   1.663  24.373  0.00  0.00    +0.007 C 
ATOM     20  C   UNL     1      -6.491   2.019  26.835  0.00  0.00    +0.007 C 
ENDBRANCH   8  12
BRANCH   9  13
ATOM     13  C   UNL     1      -2.881   0.483  23.683  0.00  0.00    +0.092 C 
BRANCH  13   4
ATOM      4  N   UNL     1      -2.930  -0.956  23.888  0.00  0.00    -0.302 NA
ATOM     17  C   UNL     1      -2.633  -1.334  25.270  0.00  0.00    +0.084 C 
ATOM     18  C   UNL     1      -4.256  -1.514  23.619  0.00  0.00    +0.084 C 
ATOM     21  C   UNL     1      -3.116  -2.776  25.340  0.00  0.00    +0.017 C 
ATOM     22  C   UNL     1      -4.179  -2.895  24.254  0.00  0.00    +0.017 C 
ENDBRANCH  13   4
ENDBRANCH   9  13
BRANCH  11  16
ATOM     16  C   UNL     1      -3.195   4.584  26.233  0.00  0.00    +0.105 C 
BRANCH  16  24
ATOM      1  O   UNL     1      -1.419   3.268  25.197  0.00  0.00    -0.420 OA
ATOM      5  N   UNL     1      -1.083   5.479  25.123  0.00  0.00    -0.112 NA
ATOM      6  N   UNL     1      -0.011   4.863  24.506  0.00  0.00    -0.107 NA
ATOM     24  C   UNL     1      -1.880   4.510  25.510  0.00  0.00    +0.218 A 
ATOM     25  C   UNL     1      -0.249   3.574  24.572  0.00  0.00    +0.248 A 
BRANCH  25  26
ATOM     26  C   UNL     1       0.518   2.460  24.097  0.00  0.00    +0.039 A 
ATOM     27  C   UNL     1       1.789   2.666  23.561  0.00  0.00    +0.015 A 
ATOM     28  C   UNL     1      -0.005   1.169  24.172  0.00  0.00    +0.015 A 
ATOM     29  C   UNL     1       2.536   1.583  23.099  0.00  0.00    +0.033 A 
ATOM     30  C   UNL     1       0.740   0.086  23.709  0.00  0.00    +0.033 A 
ATOM     31  C   UNL     1       2.011   0.293  23.172  0.00  0.00    +0.126 A 
BRANCH  31   7
ATOM      2  O   UNL     1       2.520  -1.289  21.572  0.00  0.00    -0.126 OA
ATOM      3  O   UNL     1       3.676  -1.280  23.438  0.00  0.00    -0.126 OA
ATOM      7  N   UNL     1       2.773  -0.811  22.705  0.00  0.00    +0.056 N 
ENDBRANCH  31   7
ENDBRANCH  25  26
ENDBRANCH  16  24
ENDBRANCH  11  16
TORSDOF 7
ENDMDL
MODEL 5
REMARK VINA RESULT:       2.4      2.616      5.250
REMARK  Name = 45783990
REMARK  10 active torsions:
REMARK  status: ('A' for Active; 'I' for Inactive)
REMARK    1  A    between atoms: N_4  and  C_13
REMARK    2  A    between atoms: N_7  and  C_31
REMARK    3  A    between atoms: C_8  and  C_12
REMARK    4  A    between atoms: C_9  and  C_13
REMARK    5  A    between atoms: C_11  and  C_16
REMARK    6  A    between atoms: C_12  and  C_19
REMARK    7  A    between atoms: C_12  and  C_20
REMARK    8  A    between atoms: C_15  and  C_23
REMARK    9  A    between atoms: C_16  and  C_24
REMARK   10  A    between atoms: C_25  and  C_26
REMARK                            x       y       z     vdW  Elec       q    Type
REMARK                         _______ _______ _______ _____ _____    ______ ____
ROOT
ATOM      8  C   UNL     1      -1.337   3.851  24.326  0.00  0.00    +0.000 C 
ATOM      9  C   UNL     1      -0.916   2.843  25.422  0.00  0.00    +0.029 C 
ATOM     10  C   UNL     1      -2.848   4.114  24.389  0.00  0.00    +0.012 C 
ATOM     11  C   UNL     1      -3.324   4.624  25.767  0.00  0.00    +0.024 C 
ATOM     14  C   UNL     1      -1.560   3.134  26.754  0.00  0.00    -0.023 C 
ATOM     15  C   UNL     1      -2.627   3.935  26.931  0.00  0.00    -0.073 C 
ATOM     23  C   UNL     1      -3.136   4.225  28.315  0.00  0.00    +0.039 C 
ENDROOT
BRANCH   8  12
ATOM     12  C   UNL     1      -0.541   5.159  24.434  0.00  0.00    -0.013 C 
ATOM     19  C   UNL     1      -1.484   6.338  24.652  0.00  0.00    +0.007 C 
ATOM     20  C   UNL     1       0.309   5.368  23.185  0.00  0.00    +0.007 C 
ENDBRANCH   8  12
BRANCH   9  13
ATOM     13  C   UNL     1      -1.231   1.400  25.014  0.00  0.00    +0.092 C 
BRANCH  13   4
ATOM      4  N   UNL     1      -0.363   0.971  23.928  0.00  0.00    -0.302 NA
ATOM     17  C   UNL     1       0.975   1.555  24.020  0.00  0.00    +0.084 C 
ATOM     18  C   UNL     1      -0.147  -0.475  23.924  0.00  0.00    +0.084 C 
ATOM     21  C   UNL     1       1.788   0.694  23.063  0.00  0.00    +0.017 C 
ATOM     22  C   UNL     1       1.049  -0.638  22.997  0.00  0.00    +0.017 C 
ENDBRANCH  13   4
ENDBRANCH   9  13
BRANCH  11  16
ATOM     16  C   UNL     1      -4.851   4.506  25.831  0.00  0.00    +0.105 C 
BRANCH  16  24
ATOM      1  O   UNL     1      -4.412   2.156  25.338  0.00  0.00    -0.420 OA
ATOM      5  N   UNL     1      -6.419   2.542  26.249  0.00  0.00    -0.112 NA
ATOM      6  N   UNL     1      -6.306   1.183  26.025  0.00  0.00    -0.107 NA
ATOM     24  C   UNL     1      -5.291   3.070  25.834  0.00  0.00    +0.218 A 
ATOM     25  C   UNL     1      -5.119   1.003  25.493  0.00  0.00    +0.248 A 
BRANCH  25  26
ATOM     26  C   UNL     1      -4.466  -0.196  25.057  0.00  0.00    +0.039 A 
ATOM     27  C   UNL     1      -4.705  -0.694  23.777  0.00  0.00    +0.015 A 
ATOM     28  C   UNL     1      -3.590  -0.864  25.913  0.00  0.00    +0.015 A 
ATOM     29  C   UNL     1      -4.071  -1.861  23.352  0.00  0.00    +0.033 A 
ATOM     30  C   UNL     1      -2.955  -2.031  25.489  0.00  0.00    +0.033 A 
ATOM     31  C   UNL     1      -3.196  -2.530  24.209  0.00  0.00    +0.126 A 
BRANCH  31   7
ATOM      2  O   UNL     1      -3.243  -4.692  23.407  0.00  0.00    -0.126 OA
ATOM      3  O   UNL     1      -1.292  -3.757  23.776  0.00  0.00    -0.126 OA
ATOM      7  N   UNL     1      -2.546  -3.717  23.776  0.00  0.00    +0.056 N 
ENDBRANCH  31   7
ENDBRANCH  25  26
ENDBRANCH  16  24
ENDBRANCH  11  16
TORSDOF 7
ENDMDL
MODEL 6
REMARK VINA RESULT:       2.4      1.283      2.274
REMARK  Name = 45783990
REMARK  10 active torsions:
REMARK  status: ('A' for Active; 'I' for Inactive)
REMARK    1  A    between atoms: N_4  and  C_13
REMARK    2  A    between atoms: N_7  and  C_31
REMARK    3  A    between atoms: C_8  and  C_12
REMARK    4  A    between atoms: C_9  and  C_13
REMARK    5  A    between atoms: C_11  and  C_16
REMARK    6  A    between atoms: C_12  and  C_19
REMARK    7  A    between atoms: C_12  and  C_20
REMARK    8  A    between atoms: C_15  and  C_23
REMARK    9  A    between atoms: C_16  and  C_24
REMARK   10  A    between atoms: C_25  and  C_26
REMARK                            x       y       z     vdW  Elec       q    Type
REMARK                         _______ _______ _______ _____ _____    ______ ____
ROOT
ATOM      8  C   UNL     1      -4.568   1.841  24.272  0.00  0.00    +0.000 C 
ATOM      9  C   UNL     1      -3.212   2.107  24.968  0.00  0.00    +0.029 C 
ATOM     10  C   UNL     1      -4.633   0.397  23.757  0.00  0.00    +0.012 C 
ATOM     11  C   UNL     1      -4.407  -0.658  24.862  0.00  0.00    +0.024 C 
ATOM     14  C   UNL     1      -2.797   0.979  25.879  0.00  0.00    -0.023 C 
ATOM     15  C   UNL     1      -3.327  -0.258  25.855  0.00  0.00    -0.073 C 
ATOM     23  C   UNL     1      -2.900  -1.284  26.868  0.00  0.00    +0.039 C 
ENDROOT
BRANCH   8  12
ATOM     12  C   UNL     1      -5.746   2.152  25.206  0.00  0.00    -0.013 C 
ATOM     19  C   UNL     1      -7.069   1.873  24.502  0.00  0.00    +0.007 C 
ATOM     20  C   UNL     1      -5.679   3.599  25.682  0.00  0.00    +0.007 C 
ENDBRANCH   8  12
BRANCH   9  13
ATOM     13  C   UNL     1      -2.097   2.370  23.951  0.00  0.00    +0.092 C 
BRANCH  13   4
ATOM      4  N   UNL     1      -1.665   3.758  24.007  0.00  0.00    -0.302 NA
ATOM     17  C   UNL     1      -2.461   4.553  24.943  0.00  0.00    +0.084 C 
ATOM     18  C   UNL     1      -0.285   3.895  24.471  0.00  0.00    +0.084 C 
ATOM     21  C   UNL     1      -1.616   5.805  25.130  0.00  0.00    +0.017 C 
ATOM     22  C   UNL     1      -0.187   5.375  24.817  0.00  0.00    +0.017 C 
ENDBRANCH  13   4
ENDBRANCH   9  13
BRANCH  11  16
ATOM     16  C   UNL     1      -4.134  -2.012  24.197  0.00  0.00    +0.105 C 
BRANCH  16  24
ATOM      1  O   UNL     1      -1.808  -1.336  23.900  0.00  0.00    -0.420 OA
ATOM      5  N   UNL     1      -2.072  -3.482  24.474  0.00  0.00    -0.112 NA
ATOM      6  N   UNL     1      -0.718  -3.239  24.341  0.00  0.00    -0.107 NA
ATOM     24  C   UNL     1      -2.669  -2.344  24.208  0.00  0.00    +0.218 A 
ATOM     25  C   UNL     1      -0.610  -1.975  24.005  0.00  0.00    +0.248 A 
BRANCH  25  26
ATOM     26  C   UNL     1       0.551  -1.178  23.738  0.00  0.00    +0.039 A 
ATOM     27  C   UNL     1       1.821  -1.751  23.808  0.00  0.00    +0.015 A 
ATOM     28  C   UNL     1       0.411   0.170  23.406  0.00  0.00    +0.015 A 
ATOM     29  C   UNL     1       2.951  -0.976  23.548  0.00  0.00    +0.033 A 
ATOM     30  C   UNL     1       1.541   0.945  23.147  0.00  0.00    +0.033 A 
ATOM     31  C   UNL     1       2.811   0.372  23.218  0.00  0.00    +0.126 A 
BRANCH  31   7
ATOM      2  O   UNL     1       3.883   2.084  22.104  0.00  0.00    -0.126 OA
ATOM      3  O   UNL     1       5.026   0.911  23.565  0.00  0.00    -0.126 OA
ATOM      7  N   UNL     1       3.962   1.161  22.950  0.00  0.00    +0.056 N 
ENDBRANCH  31   7
ENDBRANCH  25  26
ENDBRANCH  16  24
ENDBRANCH  11  16
TORSDOF 7
ENDMDL
