MODEL 1
REMARK VINA RESULT:       6.3      0.000      0.000
REMARK  Name = 40777383
REMARK  9 active torsions:
REMARK  status: ('A' for Active; 'I' for Inactive)
REMARK    1  A    between atoms: O_3  and  C_26
REMARK    2  A    between atoms: O_3  and  C_31
REMARK    3  A    between atoms: O_4  and  C_27
REMARK    4  A    between atoms: O_4  and  C_32
REMARK    5  A    between atoms: C_8  and  C_12
REMARK    6  A    between atoms: C_9  and  C_14
REMARK    7  A    between atoms: C_12  and  C_15
REMARK    8  A    between atoms: C_14  and  C_16
REMARK    9  A    between atoms: C_25  and  C_28
REMARK                            x       y       z     vdW  Elec       q    Type
REMARK                         _______ _______ _______ _____ _____    ______ ____
ROOT
ATOM      5  N   UNL     1      -6.222   3.762  25.748  0.00  0.00    -0.316 NA
ATOM      8  C   UNL     1      -4.260   1.568  25.543  0.00  0.00    +0.004 C 
ATOM      9  C   UNL     1      -3.868   3.057  25.387  0.00  0.00    +0.012 C 
ATOM     10  C   UNL     1      -5.546   1.471  26.381  0.00  0.00    +0.019 C 
ATOM     11  C   UNL     1      -5.050   3.904  24.884  0.00  0.00    +0.085 C 
ATOM     13  C   UNL     1      -6.659   2.370  25.845  0.00  0.00    +0.081 C 
ATOM     36  H   UNL     1      -6.984   4.329  25.379  0.00  0.00    +0.122 HD
ENDROOT
BRANCH   8  12
ATOM     12  C   UNL     1      -4.418   0.822  24.212  0.00  0.00    +0.100 C 
BRANCH  12  15
ATOM      1  O   UNL     1      -3.265   2.236  22.700  0.00  0.00    -0.276 OA
ATOM      6  N   UNL     1      -2.260   0.200  23.185  0.00  0.00    -0.297 N 
ATOM     15  C   UNL     1      -3.269   1.156  23.296  0.00  0.00    +0.216 C 
ATOM     17  C   UNL     1      -2.280  -1.129  23.803  0.00  0.00    +0.113 C 
ATOM     18  C   UNL     1      -1.110   0.461  22.314  0.00  0.00    +0.143 C 
ATOM     19  C   UNL     1      -1.050  -1.309  24.687  0.00  0.00    +0.054 C 
ATOM     20  C   UNL     1       0.189  -0.097  22.841  0.00  0.00    -0.023 A 
ATOM     21  C   UNL     1       0.219  -0.960  23.953  0.00  0.00    -0.038 A 
ATOM     23  C   UNL     1       1.387   0.226  22.189  0.00  0.00    +0.054 A 
ATOM     24  C   UNL     1       1.447  -1.455  24.412  0.00  0.00    +0.053 A 
ATOM     26  C   UNL     1       2.603  -0.283  22.647  0.00  0.00    +0.162 A 
ATOM     27  C   UNL     1       2.633  -1.121  23.758  0.00  0.00    +0.162 A 
BRANCH  26   3
ATOM      3  O   UNL     1       3.754   0.043  21.993  0.00  0.00    -0.491 OA
ATOM     31  C   UNL     1       4.270   1.355  22.206  0.00  0.00    +0.277 C 
ENDBRANCH  26   3
BRANCH  27   4
ATOM      4  O   UNL     1       3.815  -1.621  24.217  0.00  0.00    -0.491 OA
ATOM     32  C   UNL     1       4.936  -0.739  24.208  0.00  0.00    +0.277 C 
ENDBRANCH  27   4
ENDBRANCH  12  15
ENDBRANCH   8  12
BRANCH   9  14
ATOM     14  C   UNL     1      -2.642   3.264  24.498  0.00  0.00    +0.064 C 
BRANCH  14  16
ATOM      2  O   UNL     1       0.722   2.574  25.582  0.00  0.00    -0.354 OA
ATOM      7  N   UNL     1      -0.244   2.736  24.595  0.00  0.00    -0.083 NA
ATOM     16  C   UNL     1      -1.370   3.021  25.257  0.00  0.00    +0.085 A 
ATOM     22  C   UNL     1      -1.177   3.053  26.649  0.00  0.00    +0.076 A 
ATOM     25  C   UNL     1       0.153   2.765  26.800  0.00  0.00    +0.167 A 
BRANCH  25  28
ATOM     28  C   UNL     1       1.034   2.630  27.924  0.00  0.00    +0.020 A 
ATOM     29  C   UNL     1       2.375   2.999  27.808  0.00  0.00    +0.011 A 
ATOM     30  C   UNL     1       0.551   2.130  29.132  0.00  0.00    +0.011 A 
ATOM     33  C   UNL     1       3.231   2.867  28.900  0.00  0.00    +0.001 A 
ATOM     34  C   UNL     1       1.408   1.998  30.225  0.00  0.00    +0.001 A 
ATOM     35  C   UNL     1       2.748   2.366  30.109  0.00  0.00    +0.000 A 
ENDBRANCH  25  28
ENDBRANCH  14  16
ENDBRANCH   9  14
TORSDOF 7
ENDMDL
MODEL 2
REMARK VINA RESULT:       6.8      2.690      4.202
REMARK  Name = 40777383
REMARK  9 active torsions:
REMARK  status: ('A' for Active; 'I' for Inactive)
REMARK    1  A    between atoms: O_3  and  C_26
REMARK    2  A    between atoms: O_3  and  C_31
REMARK    3  A    between atoms: O_4  and  C_27
REMARK    4  A    between atoms: O_4  and  C_32
REMARK    5  A    between atoms: C_8  and  C_12
REMARK    6  A    between atoms: C_9  and  C_14
REMARK    7  A    between atoms: C_12  and  C_15
REMARK    8  A    between atoms: C_14  and  C_16
REMARK    9  A    between atoms: C_25  and  C_28
REMARK                            x       y       z     vdW  Elec       q    Type
REMARK                         _______ _______ _______ _____ _____    ______ ____
ROOT
ATOM      5  N   UNL     1      -5.992   5.490  25.000  0.00  0.00    -0.316 NA
ATOM      8  C   UNL     1      -4.266   3.140  24.546  0.00  0.00    +0.004 C 
ATOM      9  C   UNL     1      -5.757   3.018  24.942  0.00  0.00    +0.012 C 
ATOM     10  C   UNL     1      -4.037   4.497  23.859  0.00  0.00    +0.019 C 
ATOM     11  C   UNL     1      -6.235   4.247  25.734  0.00  0.00    +0.085 C 
ATOM     13  C   UNL     1      -4.575   5.665  24.685  0.00  0.00    +0.081 C 
ATOM     36  H   UNL     1      -6.313   6.279  25.558  0.00  0.00    +0.122 HD
ENDROOT
BRANCH   8  12
ATOM     12  C   UNL     1      -3.291   2.949  25.714  0.00  0.00    +0.100 C 
BRANCH  12  15
ATOM      1  O   UNL     1      -1.431   4.412  25.855  0.00  0.00    -0.276 OA
ATOM      6  N   UNL     1      -1.259   2.661  24.340  0.00  0.00    -0.297 N 
ATOM     15  C   UNL     1      -1.914   3.413  25.315  0.00  0.00    +0.216 C 
ATOM     17  C   UNL     1      -1.840   1.529  23.612  0.00  0.00    +0.113 C 
ATOM     18  C   UNL     1       0.085   3.052  23.906  0.00  0.00    +0.143 C 
ATOM     19  C   UNL     1      -0.972   0.288  23.803  0.00  0.00    +0.054 C 
ATOM     20  C   UNL     1       0.981   1.883  23.579  0.00  0.00    -0.023 A 
ATOM     21  C   UNL     1       0.477   0.571  23.503  0.00  0.00    -0.038 A 
ATOM     23  C   UNL     1       2.338   2.115  23.314  0.00  0.00    +0.054 A 
ATOM     24  C   UNL     1       1.344  -0.487  23.197  0.00  0.00    +0.053 A 
ATOM     26  C   UNL     1       3.189   1.056  22.997  0.00  0.00    +0.162 A 
ATOM     27  C   UNL     1       2.693  -0.244  22.941  0.00  0.00    +0.162 A 
BRANCH  26   3
ATOM      3  O   UNL     1       4.504   1.307  22.739  0.00  0.00    -0.491 OA
ATOM     31  C   UNL     1       5.449   0.877  23.717  0.00  0.00    +0.277 C 
ENDBRANCH  26   3
BRANCH  27   4
ATOM      4  O   UNL     1       3.516  -1.287  22.638  0.00  0.00    -0.491 OA
ATOM     32  C   UNL     1       4.260  -1.858  23.714  0.00  0.00    +0.277 C 
ENDBRANCH  27   4
ENDBRANCH  12  15
ENDBRANCH   8  12
BRANCH   9  14
ATOM     14  C   UNL     1      -6.070   1.731  25.707  0.00  0.00    +0.064 C 
BRANCH  14  16
ATOM      2  O   UNL     1      -4.433  -1.081  24.165  0.00  0.00    -0.354 OA
ATOM      7  N   UNL     1      -5.482  -0.174  24.272  0.00  0.00    -0.083 NA
ATOM     16  C   UNL     1      -5.152   0.616  25.298  0.00  0.00    +0.085 A 
ATOM     22  C   UNL     1      -3.918   0.260  25.870  0.00  0.00    +0.076 A 
ATOM     25  C   UNL     1      -3.509  -0.811  25.122  0.00  0.00    +0.167 A 
BRANCH  25  28
ATOM     28  C   UNL     1      -2.361  -1.671  25.136  0.00  0.00    +0.020 A 
ATOM     29  C   UNL     1      -1.304  -1.409  26.008  0.00  0.00    +0.011 A 
ATOM     30  C   UNL     1      -2.301  -2.769  24.279  0.00  0.00    +0.011 A 
ATOM     33  C   UNL     1      -0.187  -2.244  26.021  0.00  0.00    +0.001 A 
ATOM     34  C   UNL     1      -1.185  -3.605  24.293  0.00  0.00    +0.001 A 
ATOM     35  C   UNL     1      -0.127  -3.342  25.164  0.00  0.00    +0.000 A 
ENDBRANCH  25  28
ENDBRANCH  14  16
ENDBRANCH   9  14
TORSDOF 7
ENDMDL
MODEL 3
REMARK VINA RESULT:       7.2      1.340      1.967
REMARK  Name = 40777383
REMARK  9 active torsions:
REMARK  status: ('A' for Active; 'I' for Inactive)
REMARK    1  A    between atoms: O_3  and  C_26
REMARK    2  A    between atoms: O_3  and  C_31
REMARK    3  A    between atoms: O_4  and  C_27
REMARK    4  A    between atoms: O_4  and  C_32
REMARK    5  A    between atoms: C_8  and  C_12
REMARK    6  A    between atoms: C_9  and  C_14
REMARK    7  A    between atoms: C_12  and  C_15
REMARK    8  A    between atoms: C_14  and  C_16
REMARK    9  A    between atoms: C_25  and  C_28
REMARK                            x       y       z     vdW  Elec       q    Type
REMARK                         _______ _______ _______ _____ _____    ______ ____
ROOT
ATOM      5  N   UNL     1      -6.693   2.449  25.058  0.00  0.00    -0.316 NA
ATOM      8  C   UNL     1      -3.927   1.424  25.109  0.00  0.00    +0.004 C 
ATOM      9  C   UNL     1      -4.258   2.935  25.086  0.00  0.00    +0.012 C 
ATOM     10  C   UNL     1      -5.120   0.657  25.705  0.00  0.00    +0.019 C 
ATOM     11  C   UNL     1      -5.617   3.208  24.419  0.00  0.00    +0.085 C 
ATOM     13  C   UNL     1      -6.439   1.010  25.020  0.00  0.00    +0.081 C 
ATOM     36  H   UNL     1      -7.573   2.649  24.585  0.00  0.00    +0.122 HD
ENDROOT
BRANCH   8  12
ATOM     12  C   UNL     1      -3.537   0.849  23.743  0.00  0.00    +0.100 C 
BRANCH  12  15
ATOM      1  O   UNL     1      -2.918  -1.439  23.789  0.00  0.00    -0.276 OA
ATOM      6  N   UNL     1      -1.234   0.098  24.228  0.00  0.00    -0.297 N 
ATOM     15  C   UNL     1      -2.543  -0.271  23.922  0.00  0.00    +0.216 C 
ATOM     17  C   UNL     1      -0.778   1.468  24.485  0.00  0.00    +0.113 C 
ATOM     18  C   UNL     1      -0.214  -0.939  24.412  0.00  0.00    +0.143 C 
ATOM     19  C   UNL     1       0.350   1.829  23.523  0.00  0.00    +0.054 C 
ATOM     20  C   UNL     1       1.153  -0.540  23.914  0.00  0.00    -0.023 A 
ATOM     21  C   UNL     1       1.433   0.781  23.516  0.00  0.00    -0.038 A 
ATOM     23  C   UNL     1       2.175  -1.499  23.879  0.00  0.00    +0.054 A 
ATOM     24  C   UNL     1       2.716   1.110  23.059  0.00  0.00    +0.053 A 
ATOM     26  C   UNL     1       3.453  -1.158  23.435  0.00  0.00    +0.162 A 
ATOM     27  C   UNL     1       3.722   0.145  23.023  0.00  0.00    +0.162 A 
BRANCH  26   3
ATOM      3  O   UNL     1       4.430  -2.107  23.413  0.00  0.00    -0.491 OA
ATOM     31  C   UNL     1       5.546  -1.908  24.280  0.00  0.00    +0.277 C 
ENDBRANCH  26   3
BRANCH  27   4
ATOM      4  O   UNL     1       4.965   0.488  22.582  0.00  0.00    -0.491 OA
ATOM     32  C   UNL     1       5.930   0.834  23.574  0.00  0.00    +0.277 C 
ENDBRANCH  27   4
ENDBRANCH  12  15
ENDBRANCH   8  12
BRANCH   9  14
ATOM     14  C   UNL     1      -3.161   3.778  24.434  0.00  0.00    +0.064 C 
BRANCH  14  16
ATOM      2  O   UNL     1       0.091   4.325  25.880  0.00  0.00    -0.354 OA
ATOM      7  N   UNL     1      -0.890   4.576  24.927  0.00  0.00    -0.083 NA
ATOM     16  C   UNL     1      -1.906   3.774  25.258  0.00  0.00    +0.085 A 
ATOM     22  C   UNL     1      -1.627   3.003  26.400  0.00  0.00    +0.076 A 
ATOM     25  C   UNL     1      -0.361   3.387  26.750  0.00  0.00    +0.167 A 
BRANCH  25  28
ATOM     28  C   UNL     1       0.549   3.023  27.798  0.00  0.00    +0.020 A 
ATOM     29  C   UNL     1       1.923   3.004  27.553  0.00  0.00    +0.011 A 
ATOM     30  C   UNL     1       0.062   2.688  29.060  0.00  0.00    +0.011 A 
ATOM     33  C   UNL     1       2.808   2.650  28.571  0.00  0.00    +0.001 A 
ATOM     34  C   UNL     1       0.947   2.335  30.079  0.00  0.00    +0.001 A 
ATOM     35  C   UNL     1       2.320   2.315  29.834  0.00  0.00    +0.000 A 
ENDBRANCH  25  28
ENDBRANCH  14  16
ENDBRANCH   9  14
TORSDOF 7
ENDMDL
MODEL 4
REMARK VINA RESULT:       7.3      2.598      4.569
REMARK  Name = 40777383
REMARK  9 active torsions:
REMARK  status: ('A' for Active; 'I' for Inactive)
REMARK    1  A    between atoms: O_3  and  C_26
REMARK    2  A    between atoms: O_3  and  C_31
REMARK    3  A    between atoms: O_4  and  C_27
REMARK    4  A    between atoms: O_4  and  C_32
REMARK    5  A    between atoms: C_8  and  C_12
REMARK    6  A    between atoms: C_9  and  C_14
REMARK    7  A    between atoms: C_12  and  C_15
REMARK    8  A    between atoms: C_14  and  C_16
REMARK    9  A    between atoms: C_25  and  C_28
REMARK                            x       y       z     vdW  Elec       q    Type
REMARK                         _______ _______ _______ _____ _____    ______ ____
ROOT
ATOM      5  N   UNL     1      -5.314   4.221  26.637  0.00  0.00    -0.316 NA
ATOM      8  C   UNL     1      -2.763   4.527  25.186  0.00  0.00    +0.004 C 
ATOM      9  C   UNL     1      -4.129   4.435  24.465  0.00  0.00    +0.012 C 
ATOM     10  C   UNL     1      -2.984   5.043  26.618  0.00  0.00    +0.019 C 
ATOM     11  C   UNL     1      -5.158   3.652  25.298  0.00  0.00    +0.085 C 
ATOM     13  C   UNL     1      -4.048   4.243  27.368  0.00  0.00    +0.081 C 
ATOM     36  H   UNL     1      -5.995   3.672  27.159  0.00  0.00    +0.122 HD
ENDROOT
BRANCH   8  12
ATOM     12  C   UNL     1      -1.973   3.212  25.197  0.00  0.00    +0.100 C 
BRANCH  12  15
ATOM      1  O   UNL     1      -0.045   4.526  24.773  0.00  0.00    -0.276 OA
ATOM      6  N   UNL     1      -0.032   2.363  23.926  0.00  0.00    -0.297 N 
ATOM     15  C   UNL     1      -0.600   3.434  24.616  0.00  0.00    +0.216 C 
ATOM     17  C   UNL     1      -0.700   1.090  23.641  0.00  0.00    +0.113 C 
ATOM     18  C   UNL     1       1.303   2.508  23.339  0.00  0.00    +0.143 C 
ATOM     19  C   UNL     1       0.121  -0.065  24.204  0.00  0.00    +0.054 C 
ATOM     20  C   UNL     1       2.128   1.246  23.389  0.00  0.00    -0.023 A 
ATOM     21  C   UNL     1       1.563   0.015  23.774  0.00  0.00    -0.038 A 
ATOM     23  C   UNL     1       3.478   1.295  23.013  0.00  0.00    +0.054 A 
ATOM     24  C   UNL     1       2.365  -1.134  23.809  0.00  0.00    +0.053 A 
ATOM     26  C   UNL     1       4.263   0.142  23.039  0.00  0.00    +0.162 A 
ATOM     27  C   UNL     1       3.707  -1.071  23.439  0.00  0.00    +0.162 A 
BRANCH  26   3
ATOM      3  O   UNL     1       5.572   0.215  22.665  0.00  0.00    -0.491 OA
ATOM     31  C   UNL     1       6.512   0.592  23.669  0.00  0.00    +0.277 C 
ENDBRANCH  26   3
BRANCH  27   4
ATOM      4  O   UNL     1       4.466  -2.202  23.472  0.00  0.00    -0.491 OA
ATOM     32  C   UNL     1       5.726  -2.116  24.137  0.00  0.00    +0.277 C 
ENDBRANCH  27   4
ENDBRANCH  12  15
ENDBRANCH   8  12
BRANCH   9  14
ATOM     14  C   UNL     1      -4.024   3.852  23.055  0.00  0.00    +0.064 C 
BRANCH  14  16
ATOM      2  O   UNL     1      -3.057   0.441  22.428  0.00  0.00    -0.354 OA
ATOM      7  N   UNL     1      -3.133   1.783  22.074  0.00  0.00    -0.083 NA
ATOM     16  C   UNL     1      -3.763   2.374  23.093  0.00  0.00    +0.085 A 
ATOM     22  C   UNL     1      -4.104   1.465  24.110  0.00  0.00    +0.076 A 
ATOM     25  C   UNL     1      -3.639   0.265  23.642  0.00  0.00    +0.167 A 
BRANCH  25  28
ATOM     28  C   UNL     1      -3.637  -1.079  24.143  0.00  0.00    +0.020 A 
ATOM     29  C   UNL     1      -3.040  -1.366  25.371  0.00  0.00    +0.011 A 
ATOM     30  C   UNL     1      -4.232  -2.100  23.402  0.00  0.00    +0.011 A 
ATOM     33  C   UNL     1      -3.037  -2.672  25.857  0.00  0.00    +0.001 A 
ATOM     34  C   UNL     1      -4.230  -3.407  23.889  0.00  0.00    +0.001 A 
ATOM     35  C   UNL     1      -3.632  -3.693  25.116  0.00  0.00    +0.000 A 
ENDBRANCH  25  28
ENDBRANCH  14  16
ENDBRANCH   9  14
TORSDOF 7
ENDMDL
MODEL 5
REMARK VINA RESULT:       7.9      2.525      5.072
REMARK  Name = 40777383
REMARK  9 active torsions:
REMARK  status: ('A' for Active; 'I' for Inactive)
REMARK    1  A    between atoms: O_3  and  C_26
REMARK    2  A    between atoms: O_3  and  C_31
REMARK    3  A    between atoms: O_4  and  C_27
REMARK    4  A    between atoms: O_4  and  C_32
REMARK    5  A    between atoms: C_8  and  C_12
REMARK    6  A    between atoms: C_9  and  C_14
REMARK    7  A    between atoms: C_12  and  C_15
REMARK    8  A    between atoms: C_14  and  C_16
REMARK    9  A    between atoms: C_25  and  C_28
REMARK                            x       y       z     vdW  Elec       q    Type
REMARK                         _______ _______ _______ _____ _____    ______ ____
ROOT
ATOM      5  N   UNL     1      -6.553   3.263  25.634  0.00  0.00    -0.316 NA
ATOM      8  C   UNL     1      -4.693   5.410  24.837  0.00  0.00    +0.004 C 
ATOM      9  C   UNL     1      -4.874   4.112  24.013  0.00  0.00    +0.012 C 
ATOM     10  C   UNL     1      -5.965   5.663  25.663  0.00  0.00    +0.019 C 
ATOM     11  C   UNL     1      -5.331   2.939  24.897  0.00  0.00    +0.085 C 
ATOM     13  C   UNL     1      -6.380   4.441  26.482  0.00  0.00    +0.081 C 
ATOM     36  H   UNL     1      -6.819   2.467  26.212  0.00  0.00    +0.122 HD
ENDROOT
BRANCH   8  12
ATOM     12  C   UNL     1      -3.450   5.411  25.735  0.00  0.00    +0.100 C 
BRANCH  12  15
ATOM      1  O   UNL     1      -3.949   3.312  26.717  0.00  0.00    -0.276 OA
ATOM      6  N   UNL     1      -1.825   3.553  25.810  0.00  0.00    -0.297 N 
ATOM     15  C   UNL     1      -3.105   4.000  26.136  0.00  0.00    +0.216 C 
ATOM     17  C   UNL     1      -0.770   4.372  25.207  0.00  0.00    +0.113 C 
ATOM     18  C   UNL     1      -1.423   2.188  26.166  0.00  0.00    +0.143 C 
ATOM     19  C   UNL     1      -0.297   3.733  23.905  0.00  0.00    +0.054 C 
ATOM     20  C   UNL     1      -0.512   1.541  25.152  0.00  0.00    -0.023 A 
ATOM     21  C   UNL     1       0.047   2.278  24.091  0.00  0.00    -0.038 A 
ATOM     23  C   UNL     1      -0.191   0.183  25.290  0.00  0.00    +0.054 A 
ATOM     24  C   UNL     1       0.887   1.637  23.170  0.00  0.00    +0.053 A 
ATOM     26  C   UNL     1       0.657  -0.441  24.375  0.00  0.00    +0.162 A 
ATOM     27  C   UNL     1       1.193   0.285  23.315  0.00  0.00    +0.162 A 
BRANCH  26   3
ATOM      3  O   UNL     1       0.957  -1.761  24.533  0.00  0.00    -0.491 OA
ATOM     31  C   UNL     1       0.220  -2.479  25.521  0.00  0.00    +0.277 C 
ENDBRANCH  26   3
BRANCH  27   4
ATOM      4  O   UNL     1       2.019  -0.316  22.412  0.00  0.00    -0.491 OA
ATOM     32  C   UNL     1       3.356   0.176  22.331  0.00  0.00    +0.277 C 
ENDBRANCH  27   4
ENDBRANCH  12  15
ENDBRANCH   8  12
BRANCH   9  14
ATOM     14  C   UNL     1      -3.626   3.730  23.217  0.00  0.00    +0.064 C 
BRANCH  14  16
ATOM      2  O   UNL     1      -2.649   0.322  22.589  0.00  0.00    -0.354 OA
ATOM      7  N   UNL     1      -2.642   1.679  22.288  0.00  0.00    -0.083 NA
ATOM     16  C   UNL     1      -3.405   2.245  23.227  0.00  0.00    +0.085 A 
ATOM     22  C   UNL     1      -3.915   1.304  24.139  0.00  0.00    +0.076 A 
ATOM     25  C   UNL     1      -3.411   0.112  23.693  0.00  0.00    +0.167 A 
BRANCH  25  28
ATOM     28  C   UNL     1      -3.513  -1.251  24.127  0.00  0.00    +0.020 A 
ATOM     29  C   UNL     1      -3.100  -1.607  25.411  0.00  0.00    +0.011 A 
ATOM     30  C   UNL     1      -4.025  -2.221  23.266  0.00  0.00    +0.011 A 
ATOM     33  C   UNL     1      -3.199  -2.932  25.833  0.00  0.00    +0.001 A 
ATOM     34  C   UNL     1      -4.124  -3.547  23.688  0.00  0.00    +0.001 A 
ATOM     35  C   UNL     1      -3.711  -3.903  24.972  0.00  0.00    +0.000 A 
ENDBRANCH  25  28
ENDBRANCH  14  16
ENDBRANCH   9  14
TORSDOF 7
ENDMDL
MODEL 6
REMARK VINA RESULT:       8.1      2.635      4.758
REMARK  Name = 40777383
REMARK  9 active torsions:
REMARK  status: ('A' for Active; 'I' for Inactive)
REMARK    1  A    between atoms: O_3  and  C_26
REMARK    2  A    between atoms: O_3  and  C_31
REMARK    3  A    between atoms: O_4  and  C_27
REMARK    4  A    between atoms: O_4  and  C_32
REMARK    5  A    between atoms: C_8  and  C_12
REMARK    6  A    between atoms: C_9  and  C_14
REMARK    7  A    between atoms: C_12  and  C_15
REMARK    8  A    between atoms: C_14  and  C_16
REMARK    9  A    between atoms: C_25  and  C_28
REMARK                            x       y       z     vdW  Elec       q    Type
REMARK                         _______ _______ _______ _____ _____    ______ ____
ROOT
ATOM      5  N   UNL     1      -3.803   4.121  28.045  0.00  0.00    -0.316 NA
ATOM      8  C   UNL     1      -3.300   4.544  25.169  0.00  0.00    +0.004 C 
ATOM      9  C   UNL     1      -4.719   4.330  25.746  0.00  0.00    +0.012 C 
ATOM     10  C   UNL     1      -2.386   5.100  26.274  0.00  0.00    +0.019 C 
ATOM     11  C   UNL     1      -4.684   3.511  27.048  0.00  0.00    +0.085 C 
ATOM     13  C   UNL     1      -2.435   4.259  27.549  0.00  0.00    +0.081 C 
ATOM     36  H   UNL     1      -3.800   3.548  28.888  0.00  0.00    +0.122 HD
ENDROOT
BRANCH   8  12
ATOM     12  C   UNL     1      -2.687   3.289  24.536  0.00  0.00    +0.100 C 
BRANCH  12  15
ATOM      1  O   UNL     1      -0.735   4.631  24.465  0.00  0.00    -0.276 OA
ATOM      6  N   UNL     1      -0.573   2.518  23.516  0.00  0.00    -0.297 N 
ATOM     15  C   UNL     1      -1.247   3.548  24.172  0.00  0.00    +0.216 C 
ATOM     17  C   UNL     1      -1.177   1.260  23.070  0.00  0.00    +0.113 C 
ATOM     18  C   UNL     1       0.831   2.701  23.136  0.00  0.00    +0.143 C 
ATOM     19  C   UNL     1      -0.432   0.079  23.684  0.00  0.00    +0.054 C 
ATOM     20  C   UNL     1       1.655   1.441  23.238  0.00  0.00    -0.023 A 
ATOM     21  C   UNL     1       1.056   0.189  23.472  0.00  0.00    -0.038 A 
ATOM     23  C   UNL     1       3.045   1.516  23.064  0.00  0.00    +0.054 A 
ATOM     24  C   UNL     1       1.858  -0.957  23.562  0.00  0.00    +0.053 A 
ATOM     26  C   UNL     1       3.832   0.367  23.142  0.00  0.00    +0.162 A 
ATOM     27  C   UNL     1       3.239  -0.868  23.393  0.00  0.00    +0.162 A 
BRANCH  26   3
ATOM      3  O   UNL     1       5.180   0.466  22.966  0.00  0.00    -0.491 OA
ATOM     31  C   UNL     1       5.952   0.879  24.092  0.00  0.00    +0.277 C 
ENDBRANCH  26   3
BRANCH  27   4
ATOM      4  O   UNL     1       3.999  -1.996  23.476  0.00  0.00    -0.491 OA
ATOM     32  C   UNL     1       5.252  -1.883  24.149  0.00  0.00    +0.277 C 
ENDBRANCH  27   4
ENDBRANCH  12  15
ENDBRANCH   8  12
BRANCH   9  14
ATOM     14  C   UNL     1      -5.685   3.699  24.742  0.00  0.00    +0.064 C 
BRANCH  14  16
ATOM      2  O   UNL     1      -6.081   0.125  24.572  0.00  0.00    -0.354 OA
ATOM      7  N   UNL     1      -6.588   1.418  24.616  0.00  0.00    -0.083 NA
ATOM     16  C   UNL     1      -5.514   2.209  24.681  0.00  0.00    +0.085 A 
ATOM     22  C   UNL     1      -4.312   1.479  24.679  0.00  0.00    +0.076 A 
ATOM     25  C   UNL     1      -4.724   0.175  24.610  0.00  0.00    +0.167 A 
BRANCH  25  28
ATOM     28  C   UNL     1      -4.055  -1.093  24.571  0.00  0.00    +0.020 A 
ATOM     29  C   UNL     1      -4.514  -2.098  23.719  0.00  0.00    +0.011 A 
ATOM     30  C   UNL     1      -2.945  -1.321  25.383  0.00  0.00    +0.011 A 
ATOM     33  C   UNL     1      -3.864  -3.331  23.681  0.00  0.00    +0.001 A 
ATOM     34  C   UNL     1      -2.293  -2.553  25.344  0.00  0.00    +0.001 A 
ATOM     35  C   UNL     1      -2.753  -3.559  24.494  0.00  0.00    +0.000 A 
ENDBRANCH  25  28
ENDBRANCH  14  16
ENDBRANCH   9  14
TORSDOF 7
ENDMDL
MODEL 7
REMARK VINA RESULT:       9.0      2.893      5.308
REMARK  Name = 40777383
REMARK  9 active torsions:
REMARK  status: ('A' for Active; 'I' for Inactive)
REMARK    1  A    between atoms: O_3  and  C_26
REMARK    2  A    between atoms: O_3  and  C_31
REMARK    3  A    between atoms: O_4  and  C_27
REMARK    4  A    between atoms: O_4  and  C_32
REMARK    5  A    between atoms: C_8  and  C_12
REMARK    6  A    between atoms: C_9  and  C_14
REMARK    7  A    between atoms: C_12  and  C_15
REMARK    8  A    between atoms: C_14  and  C_16
REMARK    9  A    between atoms: C_25  and  C_28
REMARK                            x       y       z     vdW  Elec       q    Type
REMARK                         _______ _______ _______ _____ _____    ______ ____
ROOT
ATOM      5  N   UNL     1      -0.084   5.968  24.259  0.00  0.00    -0.316 NA
ATOM      8  C   UNL     1      -2.283   4.170  25.056  0.00  0.00    +0.004 C 
ATOM      9  C   UNL     1      -1.068   3.688  24.227  0.00  0.00    +0.012 C 
ATOM     10  C   UNL     1      -1.879   5.414  25.864  0.00  0.00    +0.019 C 
ATOM     11  C   UNL     1      -0.450   4.835  23.409  0.00  0.00    +0.085 C 
ATOM     13  C   UNL     1      -1.235   6.491  24.992  0.00  0.00    +0.081 C 
ATOM     36  H   UNL     1       0.313   6.708  23.682  0.00  0.00    +0.122 HD
ENDROOT
BRANCH   8  12
ATOM     12  C   UNL     1      -3.539   4.447  24.220  0.00  0.00    +0.100 C 
BRANCH  12  15
ATOM      1  O   UNL     1      -4.886   3.113  22.796  0.00  0.00    -0.276 OA
ATOM      6  N   UNL     1      -3.913   2.036  24.610  0.00  0.00    -0.297 N 
ATOM     15  C   UNL     1      -4.177   3.145  23.806  0.00  0.00    +0.216 C 
ATOM     17  C   UNL     1      -3.156   2.060  25.864  0.00  0.00    +0.113 C 
ATOM     18  C   UNL     1      -4.498   0.737  24.263  0.00  0.00    +0.143 C 
ATOM     19  C   UNL     1      -1.980   1.092  25.780  0.00  0.00    +0.054 C 
ATOM     20  C   UNL     1      -3.599  -0.434  24.573  0.00  0.00    -0.023 A 
ATOM     21  C   UNL     1      -2.415  -0.274  25.317  0.00  0.00    -0.038 A 
ATOM     23  C   UNL     1      -3.970  -1.715  24.139  0.00  0.00    +0.054 A 
ATOM     24  C   UNL     1      -1.607  -1.388  25.582  0.00  0.00    +0.053 A 
ATOM     26  C   UNL     1      -3.165  -2.819  24.420  0.00  0.00    +0.162 A 
ATOM     27  C   UNL     1      -1.984  -2.656  25.139  0.00  0.00    +0.162 A 
BRANCH  26   3
ATOM      3  O   UNL     1      -3.549  -4.054  23.990  0.00  0.00    -0.491 OA
ATOM     31  C   UNL     1      -4.627  -4.109  23.057  0.00  0.00    +0.277 C 
ENDBRANCH  26   3
BRANCH  27   4
ATOM      4  O   UNL     1      -1.188  -3.726  25.415  0.00  0.00    -0.491 OA
ATOM     32  C   UNL     1       0.208  -3.472  25.568  0.00  0.00    +0.277 C 
ENDBRANCH  27   4
ENDBRANCH  12  15
ENDBRANCH   8  12
BRANCH   9  14
ATOM     14  C   UNL     1      -1.394   2.498  23.323  0.00  0.00    +0.064 C 
BRANCH  14  16
ATOM      2  O   UNL     1       0.868  -0.236  22.713  0.00  0.00    -0.354 OA
ATOM      7  N   UNL     1      -0.389   0.355  22.665  0.00  0.00    -0.083 NA
ATOM     16  C   UNL     1      -0.224   1.564  23.208  0.00  0.00    +0.085 A 
ATOM     22  C   UNL     1       1.103   1.791  23.613  0.00  0.00    +0.076 A 
ATOM     25  C   UNL     1       1.747   0.629  23.280  0.00  0.00    +0.167 A 
BRANCH  25  28
ATOM     28  C   UNL     1       3.096   0.155  23.398  0.00  0.00    +0.020 A 
ATOM     29  C   UNL     1       3.340  -1.177  23.735  0.00  0.00    +0.011 A 
ATOM     30  C   UNL     1       4.163   1.025  23.176  0.00  0.00    +0.011 A 
ATOM     33  C   UNL     1       4.651  -1.638  23.850  0.00  0.00    +0.001 A 
ATOM     34  C   UNL     1       5.474   0.564  23.290  0.00  0.00    +0.001 A 
ATOM     35  C   UNL     1       5.719  -0.768  23.628  0.00  0.00    +0.000 A 
ENDBRANCH  25  28
ENDBRANCH  14  16
ENDBRANCH   9  14
TORSDOF 7
ENDMDL
MODEL 8
REMARK VINA RESULT:       9.0      2.557      4.741
REMARK  Name = 40777383
REMARK  9 active torsions:
REMARK  status: ('A' for Active; 'I' for Inactive)
REMARK    1  A    between atoms: O_3  and  C_26
REMARK    2  A    between atoms: O_3  and  C_31
REMARK    3  A    between atoms: O_4  and  C_27
REMARK    4  A    between atoms: O_4  and  C_32
REMARK    5  A    between atoms: C_8  and  C_12
REMARK    6  A    between atoms: C_9  and  C_14
REMARK    7  A    between atoms: C_12  and  C_15
REMARK    8  A    between atoms: C_14  and  C_16
REMARK    9  A    between atoms: C_25  and  C_28
REMARK                            x       y       z     vdW  Elec       q    Type
REMARK                         _______ _______ _______ _____ _____    ______ ____
ROOT
ATOM      5  N   UNL     1      -1.788   5.238  25.789  0.00  0.00    -0.316 NA
ATOM      8  C   UNL     1      -3.433   3.898  23.738  0.00  0.00    +0.004 C 
ATOM      9  C   UNL     1      -4.043   4.564  24.995  0.00  0.00    +0.012 C 
ATOM     10  C   UNL     1      -2.074   4.550  23.433  0.00  0.00    +0.019 C 
ATOM     11  C   UNL     1      -3.045   4.588  26.165  0.00  0.00    +0.085 C 
ATOM     13  C   UNL     1      -1.153   4.574  24.652  0.00  0.00    +0.081 C 
ATOM     36  H   UNL     1      -1.152   5.227  26.585  0.00  0.00    +0.122 HD
ENDROOT
BRANCH   8  12
ATOM     12  C   UNL     1      -3.296   2.374  23.844  0.00  0.00    +0.100 C 
BRANCH  12  15
ATOM      1  O   UNL     1      -2.585   2.094  21.600  0.00  0.00    -0.276 OA
ATOM      6  N   UNL     1      -1.223   1.173  23.240  0.00  0.00    -0.297 N 
ATOM     15  C   UNL     1      -2.344   1.871  22.789  0.00  0.00    +0.216 C 
ATOM     17  C   UNL     1      -0.957   0.810  24.635  0.00  0.00    +0.113 C 
ATOM     18  C   UNL     1      -0.253   0.658  22.269  0.00  0.00    +0.143 C 
ATOM     19  C   UNL     1       0.393   1.372  25.069  0.00  0.00    +0.054 C 
ATOM     20  C   UNL     1       1.174   0.705  22.755  0.00  0.00    -0.023 A 
ATOM     21  C   UNL     1       1.484   1.018  24.092  0.00  0.00    -0.038 A 
ATOM     23  C   UNL     1       2.211   0.399  21.863  0.00  0.00    +0.054 A 
ATOM     24  C   UNL     1       2.824   1.052  24.503  0.00  0.00    +0.053 A 
ATOM     26  C   UNL     1       3.540   0.423  22.285  0.00  0.00    +0.162 A 
ATOM     27  C   UNL     1       3.846   0.751  23.604  0.00  0.00    +0.162 A 
BRANCH  26   3
ATOM      3  O   UNL     1       4.530   0.117  21.400  0.00  0.00    -0.491 OA
ATOM     31  C   UNL     1       5.693  -0.522  21.924  0.00  0.00    +0.277 C 
ENDBRANCH  26   3
BRANCH  27   4
ATOM      4  O   UNL     1       5.141   0.783  24.026  0.00  0.00    -0.491 OA
ATOM     32  C   UNL     1       5.625  -0.368  24.718  0.00  0.00    +0.277 C 
ENDBRANCH  27   4
ENDBRANCH  12  15
ENDBRANCH   8  12
BRANCH   9  14
ATOM     14  C   UNL     1      -5.364   3.927  25.429  0.00  0.00    +0.064 C 
BRANCH  14  16
ATOM      2  O   UNL     1      -6.117   0.479  24.720  0.00  0.00    -0.354 OA
ATOM      7  N   UNL     1      -6.474   1.817  24.836  0.00  0.00    -0.083 NA
ATOM     16  C   UNL     1      -5.353   2.443  25.207  0.00  0.00    +0.085 A 
ATOM     22  C   UNL     1      -4.267   1.559  25.338  0.00  0.00    +0.076 A 
ATOM     25  C   UNL     1      -4.801   0.339  25.021  0.00  0.00    +0.167 A 
BRANCH  25  28
ATOM     28  C   UNL     1      -4.285  -0.998  24.944  0.00  0.00    +0.020 A 
ATOM     29  C   UNL     1      -4.555  -1.786  23.825  0.00  0.00    +0.011 A 
ATOM     30  C   UNL     1      -3.515  -1.509  25.988  0.00  0.00    +0.011 A 
ATOM     33  C   UNL     1      -4.054  -3.084  23.750  0.00  0.00    +0.001 A 
ATOM     34  C   UNL     1      -3.013  -2.808  25.912  0.00  0.00    +0.001 A 
ATOM     35  C   UNL     1      -3.283  -3.596  24.794  0.00  0.00    +0.000 A 
ENDBRANCH  25  28
ENDBRANCH  14  16
ENDBRANCH   9  14
TORSDOF 7
ENDMDL
MODEL 9
REMARK VINA RESULT:       9.0      2.710      4.289
REMARK  Name = 40777383
REMARK  9 active torsions:
REMARK  status: ('A' for Active; 'I' for Inactive)
REMARK    1  A    between atoms: O_3  and  C_26
REMARK    2  A    between atoms: O_3  and  C_31
REMARK    3  A    between atoms: O_4  and  C_27
REMARK    4  A    between atoms: O_4  and  C_32
REMARK    5  A    between atoms: C_8  and  C_12
REMARK    6  A    between atoms: C_9  and  C_14
REMARK    7  A    between atoms: C_12  and  C_15
REMARK    8  A    between atoms: C_14  and  C_16
REMARK    9  A    between atoms: C_25  and  C_28
REMARK                            x       y       z     vdW  Elec       q    Type
REMARK                         _______ _______ _______ _____ _____    ______ ____
ROOT
ATOM      5  N   UNL     1      -3.587  -0.513  22.458  0.00  0.00    -0.316 NA
ATOM      8  C   UNL     1      -4.890  -1.455  24.932  0.00  0.00    +0.004 C 
ATOM      9  C   UNL     1      -5.347  -0.183  24.180  0.00  0.00    +0.012 C 
ATOM     10  C   UNL     1      -4.179  -2.396  23.944  0.00  0.00    +0.019 C 
ATOM     11  C   UNL     1      -4.193   0.448  23.381  0.00  0.00    +0.085 C 
ATOM     13  C   UNL     1      -3.076  -1.689  23.159  0.00  0.00    +0.081 C 
ATOM     36  H   UNL     1      -2.825  -0.062  21.955  0.00  0.00    +0.122 HD
ENDROOT
BRANCH   8  12
ATOM     12  C   UNL     1      -4.003  -1.175  26.152  0.00  0.00    +0.100 C 
BRANCH  12  15
ATOM      1  O   UNL     1      -2.677  -3.139  26.088  0.00  0.00    -0.276 OA
ATOM      6  N   UNL     1      -1.559  -1.124  25.798  0.00  0.00    -0.297 N 
ATOM     15  C   UNL     1      -2.693  -1.907  26.012  0.00  0.00    +0.216 C 
ATOM     17  C   UNL     1      -1.530   0.341  25.798  0.00  0.00    +0.113 C 
ATOM     18  C   UNL     1      -0.252  -1.770  25.649  0.00  0.00    +0.143 C 
ATOM     19  C   UNL     1      -0.972   0.850  24.472  0.00  0.00    +0.054 C 
ATOM     20  C   UNL     1       0.658  -1.078  24.665  0.00  0.00    -0.023 A 
ATOM     21  C   UNL     1       0.332   0.180  24.124  0.00  0.00    -0.038 A 
ATOM     23  C   UNL     1       1.870  -1.687  24.308  0.00  0.00    +0.054 A 
ATOM     24  C   UNL     1       1.205   0.788  23.211  0.00  0.00    +0.053 A 
ATOM     26  C   UNL     1       2.737  -1.066  23.409  0.00  0.00    +0.162 A 
ATOM     27  C   UNL     1       2.404   0.170  22.860  0.00  0.00    +0.162 A 
BRANCH  26   3
ATOM      3  O   UNL     1       3.911  -1.676  23.081  0.00  0.00    -0.491 OA
ATOM     31  C   UNL     1       5.018  -1.464  23.955  0.00  0.00    +0.277 C 
ENDBRANCH  26   3
BRANCH  27   4
ATOM      4  O   UNL     1       3.241   0.783  21.977  0.00  0.00    -0.491 OA
ATOM     32  C   UNL     1       4.307   1.557  22.527  0.00  0.00    +0.277 C 
ENDBRANCH  27   4
ENDBRANCH  12  15
ENDBRANCH   8  12
BRANCH   9  14
ATOM     14  C   UNL     1      -5.995   0.855  25.097  0.00  0.00    +0.064 C 
BRANCH  14  16
ATOM      2  O   UNL     1      -4.430   3.947  26.074  0.00  0.00    -0.354 OA
ATOM      7  N   UNL     1      -5.463   3.018  26.133  0.00  0.00    -0.083 NA
ATOM     16  C   UNL     1      -5.102   2.046  25.291  0.00  0.00    +0.085 A 
ATOM     22  C   UNL     1      -3.863   2.303  24.679  0.00  0.00    +0.076 A 
ATOM     25  C   UNL     1      -3.484   3.509  25.204  0.00  0.00    +0.167 A 
BRANCH  25  28
ATOM     28  C   UNL     1      -2.347   4.369  25.038  0.00  0.00    +0.020 A 
ATOM     29  C   UNL     1      -2.497   5.752  25.151  0.00  0.00    +0.011 A 
ATOM     30  C   UNL     1      -1.094   3.824  24.764  0.00  0.00    +0.011 A 
ATOM     33  C   UNL     1      -1.393   6.588  24.989  0.00  0.00    +0.001 A 
ATOM     34  C   UNL     1       0.011   4.660  24.603  0.00  0.00    +0.001 A 
ATOM     35  C   UNL     1      -0.139   6.042  24.715  0.00  0.00    +0.000 A 
ENDBRANCH  25  28
ENDBRANCH  14  16
ENDBRANCH   9  14
TORSDOF 7
ENDMDL
MODEL 10
REMARK VINA RESULT:       9.3      1.858      5.474
REMARK  Name = 40777383
REMARK  9 active torsions:
REMARK  status: ('A' for Active; 'I' for Inactive)
REMARK    1  A    between atoms: O_3  and  C_26
REMARK    2  A    between atoms: O_3  and  C_31
REMARK    3  A    between atoms: O_4  and  C_27
REMARK    4  A    between atoms: O_4  and  C_32
REMARK    5  A    between atoms: C_8  and  C_12
REMARK    6  A    between atoms: C_9  and  C_14
REMARK    7  A    between atoms: C_12  and  C_15
REMARK    8  A    between atoms: C_14  and  C_16
REMARK    9  A    between atoms: C_25  and  C_28
REMARK                            x       y       z     vdW  Elec       q    Type
REMARK                         _______ _______ _______ _____ _____    ______ ____
ROOT
ATOM      5  N   UNL     1      -3.965  -0.138  25.695  0.00  0.00    -0.316 NA
ATOM      8  C   UNL     1      -4.610   1.680  23.462  0.00  0.00    +0.004 C 
ATOM      9  C   UNL     1      -3.335   0.803  23.484  0.00  0.00    +0.012 C 
ATOM     10  C   UNL     1      -5.681   1.034  24.357  0.00  0.00    +0.019 C 
ATOM     11  C   UNL     1      -2.890   0.486  24.922  0.00  0.00    +0.085 C 
ATOM     13  C   UNL     1      -5.154   0.711  25.755  0.00  0.00    +0.081 C 
ATOM     36  H   UNL     1      -3.636  -0.324  26.641  0.00  0.00    +0.122 HD
ENDROOT
BRANCH   8  12
ATOM     12  C   UNL     1      -4.371   3.140  23.865  0.00  0.00    +0.100 C 
BRANCH  12  15
ATOM      1  O   UNL     1      -5.052   2.952  26.128  0.00  0.00    -0.276 OA
ATOM      6  N   UNL     1      -2.860   3.626  25.758  0.00  0.00    -0.297 N 
ATOM     15  C   UNL     1      -4.134   3.229  25.351  0.00  0.00    +0.216 C 
ATOM     17  C   UNL     1      -1.780   4.052  24.865  0.00  0.00    +0.113 C 
ATOM     18  C   UNL     1      -2.559   3.731  27.189  0.00  0.00    +0.143 C 
ATOM     19  C   UNL     1      -0.547   3.182  25.087  0.00  0.00    +0.054 C 
ATOM     20  C   UNL     1      -1.147   3.334  27.542  0.00  0.00    -0.023 A 
ATOM     21  C   UNL     1      -0.180   3.098  26.546  0.00  0.00    -0.038 A 
ATOM     23  C   UNL     1      -0.782   3.230  28.892  0.00  0.00    +0.054 A 
ATOM     24  C   UNL     1       1.121   2.730  26.917  0.00  0.00    +0.053 A 
ATOM     26  C   UNL     1       0.519   2.876  29.249  0.00  0.00    +0.162 A 
ATOM     27  C   UNL     1       1.469   2.625  28.262  0.00  0.00    +0.162 A 
BRANCH  26   3
ATOM      3  O   UNL     1       0.850   2.786  30.568  0.00  0.00    -0.491 OA
ATOM     31  C   UNL     1       1.642   1.667  30.962  0.00  0.00    +0.277 C 
ENDBRANCH  26   3
BRANCH  27   4
ATOM      4  O   UNL     1       2.741   2.273  28.600  0.00  0.00    -0.491 OA
ATOM     32  C   UNL     1       3.690   3.331  28.737  0.00  0.00    +0.277 C 
ENDBRANCH  27   4
ENDBRANCH  12  15
ENDBRANCH   8  12
BRANCH   9  14
ATOM     14  C   UNL     1      -2.179   1.405  22.684  0.00  0.00    +0.064 C 
BRANCH  14  16
ATOM      2  O   UNL     1       0.438  -0.873  23.644  0.00  0.00    -0.354 OA
ATOM      7  N   UNL     1      -0.901  -0.529  23.497  0.00  0.00    -0.083 NA
ATOM     16  C   UNL     1      -0.886   0.704  22.982  0.00  0.00    +0.085 A 
ATOM     22  C   UNL     1       0.421   1.184  22.783  0.00  0.00    +0.076 A 
ATOM     25  C   UNL     1       1.214   0.155  23.215  0.00  0.00    +0.167 A 
BRANCH  25  28
ATOM     28  C   UNL     1       2.630  -0.056  23.306  0.00  0.00    +0.020 A 
ATOM     29  C   UNL     1       3.125  -1.285  23.745  0.00  0.00    +0.011 A 
ATOM     30  C   UNL     1       3.512   0.966  22.957  0.00  0.00    +0.011 A 
ATOM     33  C   UNL     1       4.501  -1.490  23.834  0.00  0.00    +0.001 A 
ATOM     34  C   UNL     1       4.888   0.760  23.045  0.00  0.00    +0.001 A 
ATOM     35  C   UNL     1       5.384  -0.468  23.484  0.00  0.00    +0.000 A 
ENDBRANCH  25  28
ENDBRANCH  14  16
ENDBRANCH   9  14
TORSDOF 7
ENDMDL
