MODEL 1
REMARK VINA RESULT:      -2.2      0.000      0.000
REMARK  Name = 45783776
REMARK  7 active torsions:
REMARK  status: ('A' for Active; 'I' for Inactive)
REMARK    1  A    between atoms: N_4  and  C_14
REMARK    2  A    between atoms: N_7  and  C_23
REMARK    3  A    between atoms: N_9  and  C_27
REMARK    4  A    between atoms: N_9  and  C_28
REMARK    5  A    between atoms: C_10  and  C_15
REMARK    6  A    between atoms: C_14  and  C_16
REMARK    7  A    between atoms: C_19  and  C_22
REMARK                            x       y       z     vdW  Elec       q    Type
REMARK                         _______ _______ _______ _____ _____    ______ ____
ROOT
ATOM      4  N   UNL     1      -5.298   2.372  25.526  0.00  0.00    -0.287 NA
ATOM     10  C   UNL     1      -4.453   2.989  24.483  0.00  0.00    +0.146 C 
ATOM     11  C   UNL     1      -4.702   4.502  24.622  0.00  0.00    +0.030 C 
ATOM     12  C   UNL     1      -5.743   4.633  25.725  0.00  0.00    +0.017 C 
ATOM     13  C   UNL     1      -6.425   3.280  25.736  0.00  0.00    +0.085 C 
ENDROOT
BRANCH  10  15
ATOM      1  O   UNL     1      -2.400   2.927  25.808  0.00  0.00    -0.336 OA
ATOM      5  N   UNL     1      -2.195   2.039  23.761  0.00  0.00    -0.190 NA
ATOM      6  N   UNL     1      -1.072   2.497  25.701  0.00  0.00    -0.056 NA
ATOM     15  C   UNL     1      -2.992   2.620  24.624  0.00  0.00    +0.245 A 
ATOM     19  C   UNL     1      -1.029   1.985  24.467  0.00  0.00    +0.204 A 
BRANCH  19  22
ATOM      8  N   UNL     1       2.547   1.562  23.538  0.00  0.00    -0.240 NA
ATOM     22  C   UNL     1       0.163   1.412  23.911  0.00  0.00    +0.041 A 
ATOM     24  C   UNL     1       0.123   0.203  23.226  0.00  0.00    +0.016 A 
ATOM     25  C   UNL     1       1.388   2.047  24.038  0.00  0.00    +0.124 A 
ATOM     26  C   UNL     1       1.295  -0.328  22.698  0.00  0.00    +0.044 A 
ATOM     27  C   UNL     1       2.470   0.384  22.879  0.00  0.00    +0.118 A 
BRANCH  27   9
ATOM      9  N   UNL     1       3.654  -0.170  22.335  0.00  0.00    -0.332 N 
ATOM     28  C   UNL     1       4.943   0.051  22.909  0.00  0.00    +0.127 C 
ATOM     29  H   UNL     1       3.601  -0.544  21.394  0.00  0.00    +0.147 HD
ENDBRANCH  27   9
ENDBRANCH  19  22
ENDBRANCH  10  15
BRANCH   4  14
ATOM     14  C   UNL     1      -5.736   1.024  25.188  0.00  0.00    +0.120 C 
BRANCH  14  16
ATOM     16  C   UNL     1      -4.575   0.077  25.040  0.00  0.00    -0.033 A 
ATOM     17  C   UNL     1      -3.729  -0.165  26.123  0.00  0.00    +0.007 A 
ATOM     18  C   UNL     1      -4.347  -0.559  23.820  0.00  0.00    +0.007 A 
ATOM     20  C   UNL     1      -2.654  -1.042  25.984  0.00  0.00    +0.033 A 
ATOM     21  C   UNL     1      -3.270  -1.437  23.682  0.00  0.00    +0.033 A 
ATOM     23  C   UNL     1      -2.424  -1.678  24.764  0.00  0.00    +0.126 A 
BRANCH  23   7
ATOM      2  O   UNL     1      -1.354  -3.423  23.703  0.00  0.00    -0.126 OA
ATOM      3  O   UNL     1      -0.365  -2.482  25.423  0.00  0.00    -0.126 OA
ATOM      7  N   UNL     1      -1.328  -2.571  24.623  0.00  0.00    +0.056 N 
ENDBRANCH  23   7
ENDBRANCH  14  16
ENDBRANCH   4  14
TORSDOF 6
ENDMDL
MODEL 2
REMARK VINA RESULT:       0.1      1.564      2.174
REMARK  Name = 45783776
REMARK  7 active torsions:
REMARK  status: ('A' for Active; 'I' for Inactive)
REMARK    1  A    between atoms: N_4  and  C_14
REMARK    2  A    between atoms: N_7  and  C_23
REMARK    3  A    between atoms: N_9  and  C_27
REMARK    4  A    between atoms: N_9  and  C_28
REMARK    5  A    between atoms: C_10  and  C_15
REMARK    6  A    between atoms: C_14  and  C_16
REMARK    7  A    between atoms: C_19  and  C_22
REMARK                            x       y       z     vdW  Elec       q    Type
REMARK                         _______ _______ _______ _____ _____    ______ ____
ROOT
ATOM      4  N   UNL     1      -3.560   3.107  25.692  0.00  0.00    -0.287 NA
ATOM     10  C   UNL     1      -3.038   3.576  24.393  0.00  0.00    +0.146 C 
ATOM     11  C   UNL     1      -2.452   4.969  24.687  0.00  0.00    +0.030 C 
ATOM     12  C   UNL     1      -2.745   5.220  26.159  0.00  0.00    +0.017 C 
ATOM     13  C   UNL     1      -3.915   4.304  26.453  0.00  0.00    +0.085 C 
ENDROOT
BRANCH  10  15
ATOM      1  O   UNL     1      -2.415   1.926  22.701  0.00  0.00    -0.336 OA
ATOM      5  N   UNL     1      -0.795   2.374  24.182  0.00  0.00    -0.190 NA
ATOM      6  N   UNL     1      -1.323   1.129  22.336  0.00  0.00    -0.056 NA
ATOM     15  C   UNL     1      -2.021   2.627  23.796  0.00  0.00    +0.245 A 
ATOM     19  C   UNL     1      -0.407   1.449  23.256  0.00  0.00    +0.204 A 
BRANCH  19  22
ATOM      8  N   UNL     1       2.277  -1.117  23.447  0.00  0.00    -0.240 NA
ATOM     22  C   UNL     1       0.902   0.865  23.278  0.00  0.00    +0.041 A 
ATOM     24  C   UNL     1       2.040   1.654  23.158  0.00  0.00    +0.016 A 
ATOM     25  C   UNL     1       1.073  -0.503  23.419  0.00  0.00    +0.124 A 
ATOM     26  C   UNL     1       3.297   1.059  23.182  0.00  0.00    +0.044 A 
ATOM     27  C   UNL     1       3.361  -0.318  23.327  0.00  0.00    +0.118 A 
BRANCH  27   9
ATOM      9  N   UNL     1       4.648  -0.908  23.350  0.00  0.00    -0.332 N 
ATOM     28  C   UNL     1       5.843  -0.147  23.525  0.00  0.00    +0.127 C 
ATOM     29  H   UNL     1       4.726  -1.862  23.012  0.00  0.00    +0.147 HD
ENDBRANCH  27   9
ENDBRANCH  19  22
ENDBRANCH  10  15
BRANCH   4  14
ATOM     14  C   UNL     1      -4.682   2.186  25.562  0.00  0.00    +0.120 C 
BRANCH  14  16
ATOM     16  C   UNL     1      -4.230   0.795  25.204  0.00  0.00    -0.033 A 
ATOM     17  C   UNL     1      -4.928   0.058  24.248  0.00  0.00    +0.007 A 
ATOM     18  C   UNL     1      -3.111   0.246  25.829  0.00  0.00    +0.007 A 
ATOM     20  C   UNL     1      -4.508  -1.230  23.918  0.00  0.00    +0.033 A 
ATOM     21  C   UNL     1      -2.691  -1.044  25.499  0.00  0.00    +0.033 A 
ATOM     23  C   UNL     1      -3.389  -1.781  24.543  0.00  0.00    +0.126 A 
BRANCH  23   7
ATOM      2  O   UNL     1      -3.823  -3.995  24.066  0.00  0.00    -0.126 OA
ATOM      3  O   UNL     1      -1.736  -3.314  24.060  0.00  0.00    -0.126 OA
ATOM      7  N   UNL     1      -2.962  -3.093  24.207  0.00  0.00    +0.056 N 
ENDBRANCH  23   7
ENDBRANCH  14  16
ENDBRANCH   4  14
TORSDOF 6
ENDMDL
MODEL 3
REMARK VINA RESULT:       0.2      1.992      4.409
REMARK  Name = 45783776
REMARK  7 active torsions:
REMARK  status: ('A' for Active; 'I' for Inactive)
REMARK    1  A    between atoms: N_4  and  C_14
REMARK    2  A    between atoms: N_7  and  C_23
REMARK    3  A    between atoms: N_9  and  C_27
REMARK    4  A    between atoms: N_9  and  C_28
REMARK    5  A    between atoms: C_10  and  C_15
REMARK    6  A    between atoms: C_14  and  C_16
REMARK    7  A    between atoms: C_19  and  C_22
REMARK                            x       y       z     vdW  Elec       q    Type
REMARK                         _______ _______ _______ _____ _____    ______ ____
ROOT
ATOM      4  N   UNL     1      -4.326  -0.936  23.953  0.00  0.00    -0.287 NA
ATOM     10  C   UNL     1      -3.440  -1.373  25.050  0.00  0.00    +0.146 C 
ATOM     11  C   UNL     1      -3.367  -2.905  24.907  0.00  0.00    +0.030 C 
ATOM     12  C   UNL     1      -4.289  -3.239  23.743  0.00  0.00    +0.017 C 
ATOM     13  C   UNL     1      -5.230  -2.052  23.680  0.00  0.00    +0.085 C 
ENDROOT
BRANCH  10  15
ATOM      1  O   UNL     1      -1.827   0.236  25.935  0.00  0.00    -0.336 OA
ATOM      5  N   UNL     1      -1.086  -0.925  24.168  0.00  0.00    -0.190 NA
ATOM      6  N   UNL     1      -0.526   0.692  25.687  0.00  0.00    -0.056 NA
ATOM     15  C   UNL     1      -2.077  -0.714  24.997  0.00  0.00    +0.245 A 
ATOM     19  C   UNL     1      -0.156  -0.040  24.631  0.00  0.00    +0.204 A 
BRANCH  19  22
ATOM      8  N   UNL     1       2.863   1.526  23.127  0.00  0.00    -0.240 NA
ATOM     22  C   UNL     1       1.133   0.089  24.016  0.00  0.00    +0.041 A 
ATOM     24  C   UNL     1       1.897  -1.032  23.714  0.00  0.00    +0.016 A 
ATOM     25  C   UNL     1       1.656   1.334  23.705  0.00  0.00    +0.124 A 
ATOM     26  C   UNL     1       3.144  -0.875  23.118  0.00  0.00    +0.044 A 
ATOM     27  C   UNL     1       3.577   0.413  22.848  0.00  0.00    +0.118 A 
BRANCH  27   9
ATOM      9  N   UNL     1       4.849   0.555  22.241  0.00  0.00    -0.332 N 
ATOM     28  C   UNL     1       6.048   0.062  22.839  0.00  0.00    +0.127 C 
ATOM     29  H   UNL     1       4.926   1.217  21.476  0.00  0.00    +0.147 HD
ENDBRANCH  27   9
ENDBRANCH  19  22
ENDBRANCH  10  15
BRANCH   4  14
ATOM     14  C   UNL     1      -5.049   0.294  24.254  0.00  0.00    +0.120 C 
BRANCH  14  16
ATOM     16  C   UNL     1      -4.121   1.472  24.389  0.00  0.00    -0.033 A 
ATOM     17  C   UNL     1      -3.171   1.730  23.401  0.00  0.00    +0.007 A 
ATOM     18  C   UNL     1      -4.213   2.306  25.504  0.00  0.00    +0.007 A 
ATOM     20  C   UNL     1      -2.312   2.821  23.528  0.00  0.00    +0.033 A 
ATOM     21  C   UNL     1      -3.353   3.398  25.630  0.00  0.00    +0.033 A 
ATOM     23  C   UNL     1      -2.403   3.655  24.642  0.00  0.00    +0.126 A 
BRANCH  23   7
ATOM      2  O   UNL     1      -0.365   4.680  24.309  0.00  0.00    -0.126 OA
ATOM      3  O   UNL     1      -1.942   5.803  25.343  0.00  0.00    -0.126 OA
ATOM      7  N   UNL     1      -1.528   4.766  24.771  0.00  0.00    +0.056 N 
ENDBRANCH  23   7
ENDBRANCH  14  16
ENDBRANCH   4  14
TORSDOF 6
ENDMDL
MODEL 4
REMARK VINA RESULT:       0.5      2.181      4.904
REMARK  Name = 45783776
REMARK  7 active torsions:
REMARK  status: ('A' for Active; 'I' for Inactive)
REMARK    1  A    between atoms: N_4  and  C_14
REMARK    2  A    between atoms: N_7  and  C_23
REMARK    3  A    between atoms: N_9  and  C_27
REMARK    4  A    between atoms: N_9  and  C_28
REMARK    5  A    between atoms: C_10  and  C_15
REMARK    6  A    between atoms: C_14  and  C_16
REMARK    7  A    between atoms: C_19  and  C_22
REMARK                            x       y       z     vdW  Elec       q    Type
REMARK                         _______ _______ _______ _____ _____    ______ ____
ROOT
ATOM      4  N   UNL     1      -3.421  -0.889  24.568  0.00  0.00    -0.287 NA
ATOM     10  C   UNL     1      -2.203  -1.720  24.625  0.00  0.00    +0.146 C 
ATOM     11  C   UNL     1      -2.566  -3.000  23.849  0.00  0.00    +0.030 C 
ATOM     12  C   UNL     1      -4.023  -2.821  23.448  0.00  0.00    +0.017 C 
ATOM     13  C   UNL     1      -4.549  -1.813  24.450  0.00  0.00    +0.085 C 
ENDROOT
BRANCH  10  15
ATOM      1  O   UNL     1      -1.230   0.017  23.207  0.00  0.00    -0.336 OA
ATOM      5  N   UNL     1       0.282  -1.255  24.264  0.00  0.00    -0.190 NA
ATOM      6  N   UNL     1       0.025   0.502  22.820  0.00  0.00    -0.056 NA
ATOM     15  C   UNL     1      -0.989  -1.015  24.057  0.00  0.00    +0.245 A 
ATOM     19  C   UNL     1       0.865  -0.298  23.484  0.00  0.00    +0.204 A 
BRANCH  19  22
ATOM      8  N   UNL     1       4.479  -1.143  23.720  0.00  0.00    -0.240 NA
ATOM     22  C   UNL     1       2.291  -0.169  23.391  0.00  0.00    +0.041 A 
ATOM     24  C   UNL     1       2.874   0.996  22.906  0.00  0.00    +0.016 A 
ATOM     25  C   UNL     1       3.129  -1.200  23.782  0.00  0.00    +0.124 A 
ATOM     26  C   UNL     1       4.259   1.092  22.827  0.00  0.00    +0.044 A 
ATOM     27  C   UNL     1       5.010   0.004  23.242  0.00  0.00    +0.118 A 
BRANCH  27   9
ATOM      9  N   UNL     1       6.419   0.118  23.156  0.00  0.00    -0.332 N 
ATOM     28  C   UNL     1       7.252  -0.951  22.706  0.00  0.00    +0.127 C 
ATOM     29  H   UNL     1       6.851   0.900  23.636  0.00  0.00    +0.147 HD
ENDBRANCH  27   9
ENDBRANCH  19  22
ENDBRANCH  10  15
BRANCH   4  14
ATOM     14  C   UNL     1      -3.562   0.004  25.712  0.00  0.00    +0.120 C 
BRANCH  14  16
ATOM     16  C   UNL     1      -2.935   1.349  25.455  0.00  0.00    -0.033 A 
ATOM     17  C   UNL     1      -3.652   2.335  24.777  0.00  0.00    +0.007 A 
ATOM     18  C   UNL     1      -1.637   1.607  25.895  0.00  0.00    +0.007 A 
ATOM     20  C   UNL     1      -3.070   3.580  24.540  0.00  0.00    +0.033 A 
ATOM     21  C   UNL     1      -1.055   2.853  25.657  0.00  0.00    +0.033 A 
ATOM     23  C   UNL     1      -1.772   3.839  24.980  0.00  0.00    +0.126 A 
BRANCH  23   7
ATOM      2  O   UNL     1      -0.092   5.160  24.115  0.00  0.00    -0.126 OA
ATOM      3  O   UNL     1      -1.761   6.139  25.151  0.00  0.00    -0.126 OA
ATOM      7  N   UNL     1      -1.180   5.107  24.737  0.00  0.00    +0.056 N 
ENDBRANCH  23   7
ENDBRANCH  14  16
ENDBRANCH   4  14
TORSDOF 6
ENDMDL
MODEL 5
REMARK VINA RESULT:       1.7      2.039      4.884
REMARK  Name = 45783776
REMARK  7 active torsions:
REMARK  status: ('A' for Active; 'I' for Inactive)
REMARK    1  A    between atoms: N_4  and  C_14
REMARK    2  A    between atoms: N_7  and  C_23
REMARK    3  A    between atoms: N_9  and  C_27
REMARK    4  A    between atoms: N_9  and  C_28
REMARK    5  A    between atoms: C_10  and  C_15
REMARK    6  A    between atoms: C_14  and  C_16
REMARK    7  A    between atoms: C_19  and  C_22
REMARK                            x       y       z     vdW  Elec       q    Type
REMARK                         _______ _______ _______ _____ _____    ______ ____
ROOT
ATOM      4  N   UNL     1      -2.942  -1.546  23.901  0.00  0.00    -0.287 NA
ATOM     10  C   UNL     1      -1.974  -0.833  24.759  0.00  0.00    +0.146 C 
ATOM     11  C   UNL     1      -1.777  -1.755  25.976  0.00  0.00    +0.030 C 
ATOM     12  C   UNL     1      -2.718  -2.928  25.742  0.00  0.00    +0.017 C 
ATOM     13  C   UNL     1      -3.758  -2.369  24.793  0.00  0.00    +0.085 C 
ENDROOT
BRANCH  10  15
ATOM      1  O   UNL     1      -0.783  -0.018  22.786  0.00  0.00    -0.336 OA
ATOM      5  N   UNL     1       0.557  -0.675  24.457  0.00  0.00    -0.190 NA
ATOM      6  N   UNL     1       0.527   0.183  22.336  0.00  0.00    -0.056 NA
ATOM     15  C   UNL     1      -0.676  -0.525  24.042  0.00  0.00    +0.245 A 
ATOM     19  C   UNL     1       1.260  -0.228  23.376  0.00  0.00    +0.204 A 
BRANCH  19  22
ATOM      8  N   UNL     1       4.736   1.003  22.899  0.00  0.00    -0.240 NA
ATOM     22  C   UNL     1       2.694  -0.203  23.368  0.00  0.00    +0.041 A 
ATOM     24  C   UNL     1       3.431  -1.301  23.797  0.00  0.00    +0.016 A 
ATOM     25  C   UNL     1       3.388   0.914  22.931  0.00  0.00    +0.124 A 
ATOM     26  C   UNL     1       4.820  -1.247  23.778  0.00  0.00    +0.044 A 
ATOM     27  C   UNL     1       5.419  -0.083  23.324  0.00  0.00    +0.118 A 
BRANCH  27   9
ATOM      9  N   UNL     1       6.835  -0.045  23.311  0.00  0.00    -0.332 N 
ATOM     28  C   UNL     1       7.624  -0.963  22.554  0.00  0.00    +0.127 C 
ATOM     29  H   UNL     1       7.290   0.506  24.031  0.00  0.00    +0.147 HD
ENDBRANCH  27   9
ENDBRANCH  19  22
ENDBRANCH  10  15
BRANCH   4  14
ATOM     14  C   UNL     1      -3.752  -0.653  23.083  0.00  0.00    +0.120 C 
BRANCH  14  16
ATOM     16  C   UNL     1      -4.060   0.637  23.797  0.00  0.00    -0.033 A 
ATOM     17  C   UNL     1      -5.018   0.664  24.810  0.00  0.00    +0.007 A 
ATOM     18  C   UNL     1      -3.384   1.806  23.443  0.00  0.00    +0.007 A 
ATOM     20  C   UNL     1      -5.301   1.859  25.469  0.00  0.00    +0.033 A 
ATOM     21  C   UNL     1      -3.669   3.002  24.103  0.00  0.00    +0.033 A 
ATOM     23  C   UNL     1      -4.627   3.028  25.117  0.00  0.00    +0.126 A 
BRANCH  23   7
ATOM      2  O   UNL     1      -6.095   4.677  25.782  0.00  0.00    -0.126 OA
ATOM      3  O   UNL     1      -3.987   4.856  26.368  0.00  0.00    -0.126 OA
ATOM      7  N   UNL     1      -4.917   4.246  25.788  0.00  0.00    +0.056 N 
ENDBRANCH  23   7
ENDBRANCH  14  16
ENDBRANCH   4  14
TORSDOF 6
ENDMDL
