MODEL 1
REMARK VINA RESULT:      -4.7      0.000      0.000
REMARK  Name = 75368415
REMARK  2 active torsions:
REMARK  status: ('A' for Active; 'I' for Inactive)
REMARK    1  A    between atoms: S_1  and  N_6
REMARK    2  A    between atoms: S_1  and  C_14
REMARK                            x       y       z     vdW  Elec       q    Type
REMARK                         _______ _______ _______ _____ _____    ______ ____
ROOT
ATOM      2  O   UNL     1      -6.408   4.947  25.711  0.00  0.00    -0.253 OA
ATOM      5  N   UNL     1      -4.504   3.571  25.857  0.00  0.00    -0.279 N 
ATOM      6  N   UNL     1      -1.830   2.797  25.611  0.00  0.00    -0.173 NA
ATOM      7  N   UNL     1      -6.409   2.699  25.042  0.00  0.00    -0.297 N 
ATOM      8  C   UNL     1      -4.207   2.166  25.657  0.00  0.00    +0.110 C 
ATOM      9  C   UNL     1      -2.890   2.002  24.907  0.00  0.00    +0.133 C 
ATOM     10  C   UNL     1      -3.492   4.448  26.413  0.00  0.00    +0.127 C 
ATOM     11  C   UNL     1      -5.433   1.640  24.915  0.00  0.00    +0.129 C 
ATOM     12  C   UNL     1      -2.174   4.258  25.669  0.00  0.00    +0.128 C 
ATOM     13  C   UNL     1      -5.838   3.875  25.561  0.00  0.00    +0.303 C 
ATOM     20  H   UNL     1      -7.370   2.631  24.725  0.00  0.00    +0.150 HD
ENDROOT
BRANCH   6   1
ATOM      1  S   UNL     1      -0.220   2.445  25.140  0.00  0.00    +0.061 S 
ATOM      3  O   UNL     1       0.651   2.601  26.286  0.00  0.00    -0.153 OA
ATOM      4  O   UNL     1       0.062   3.118  23.891  0.00  0.00    -0.153 OA
BRANCH   1  14
ATOM     14  C   UNL     1      -0.369   0.718  24.806  0.00  0.00    +0.105 A 
ATOM     15  C   UNL     1       0.098   0.199  23.600  0.00  0.00    +0.028 A 
ATOM     16  C   UNL     1      -0.959  -0.126  25.747  0.00  0.00    +0.028 A 
ATOM     17  C   UNL     1      -0.023  -1.166  23.334  0.00  0.00    +0.002 A 
ATOM     18  C   UNL     1      -1.081  -1.490  25.481  0.00  0.00    +0.002 A 
ATOM     19  C   UNL     1      -0.613  -2.010  24.275  0.00  0.00    +0.000 A 
ENDBRANCH   1  14
ENDBRANCH   6   1
TORSDOF 2
ENDMDL
MODEL 2
REMARK VINA RESULT:      -4.5      2.590      3.457
REMARK  Name = 75368415
REMARK  2 active torsions:
REMARK  status: ('A' for Active; 'I' for Inactive)
REMARK    1  A    between atoms: S_1  and  N_6
REMARK    2  A    between atoms: S_1  and  C_14
REMARK                            x       y       z     vdW  Elec       q    Type
REMARK                         _______ _______ _______ _____ _____    ______ ____
ROOT
ATOM      2  O   UNL     1      -1.311   5.772  25.160  0.00  0.00    -0.253 OA
ATOM      5  N   UNL     1      -1.524   3.444  25.431  0.00  0.00    -0.279 N 
ATOM      6  N   UNL     1      -0.908   0.730  25.179  0.00  0.00    -0.173 NA
ATOM      7  N   UNL     1      -3.344   4.638  24.867  0.00  0.00    -0.297 N 
ATOM      8  C   UNL     1      -2.611   2.485  25.449  0.00  0.00    +0.110 C 
ATOM      9  C   UNL     1      -2.228   1.232  24.669  0.00  0.00    +0.133 C 
ATOM     10  C   UNL     1      -0.184   3.019  25.784  0.00  0.00    +0.127 C 
ATOM     11  C   UNL     1      -3.788   3.263  24.866  0.00  0.00    +0.129 C 
ATOM     12  C   UNL     1       0.179   1.752  25.015  0.00  0.00    +0.128 C 
ATOM     13  C   UNL     1      -1.971   4.742  25.158  0.00  0.00    +0.303 C 
ATOM     20  H   UNL     1      -3.928   5.428  24.616  0.00  0.00    +0.150 HD
ENDROOT
BRANCH   6   1
ATOM      1  S   UNL     1      -0.495  -0.860  24.691  0.00  0.00    +0.061 S 
ATOM      3  O   UNL     1       0.058  -1.571  25.824  0.00  0.00    -0.153 OA
ATOM      4  O   UNL     1       0.215  -0.795  23.432  0.00  0.00    -0.153 OA
BRANCH   1  14
ATOM     14  C   UNL     1      -2.104  -1.513  24.376  0.00  0.00    +0.105 A 
ATOM     15  C   UNL     1      -3.110  -0.681  23.885  0.00  0.00    +0.028 A 
ATOM     16  C   UNL     1      -2.371  -2.860  24.621  0.00  0.00    +0.028 A 
ATOM     17  C   UNL     1      -4.384  -1.195  23.639  0.00  0.00    +0.002 A 
ATOM     18  C   UNL     1      -3.644  -3.374  24.376  0.00  0.00    +0.002 A 
ATOM     19  C   UNL     1      -4.650  -2.542  23.884  0.00  0.00    +0.000 A 
ENDBRANCH   1  14
ENDBRANCH   6   1
TORSDOF 2
ENDMDL
MODEL 3
REMARK VINA RESULT:      -4.3      3.252      6.241
REMARK  Name = 75368415
REMARK  2 active torsions:
REMARK  status: ('A' for Active; 'I' for Inactive)
REMARK    1  A    between atoms: S_1  and  N_6
REMARK    2  A    between atoms: S_1  and  C_14
REMARK                            x       y       z     vdW  Elec       q    Type
REMARK                         _______ _______ _______ _____ _____    ______ ____
ROOT
ATOM      2  O   UNL     1       2.423  -0.241  22.614  0.00  0.00    -0.253 OA
ATOM      5  N   UNL     1       0.500  -0.087  23.961  0.00  0.00    -0.279 N 
ATOM      6  N   UNL     1      -2.136  -0.508  24.788  0.00  0.00    -0.173 NA
ATOM      7  N   UNL     1       1.663   1.785  23.520  0.00  0.00    -0.297 N 
ATOM      8  C   UNL     1      -0.149   0.941  24.751  0.00  0.00    +0.110 C 
ATOM      9  C   UNL     1      -1.659   0.895  24.548  0.00  0.00    +0.133 C 
ATOM     10  C   UNL     1       0.022  -1.454  24.029  0.00  0.00    +0.127 C 
ATOM     11  C   UNL     1       0.518   2.231  24.281  0.00  0.00    +0.129 C 
ATOM     12  C   UNL     1      -1.493  -1.485  23.847  0.00  0.00    +0.128 C 
ATOM     13  C   UNL     1       1.625   0.398  23.285  0.00  0.00    +0.303 C 
ATOM     20  H   UNL     1       2.370   2.402  23.135  0.00  0.00    +0.150 HD
ENDROOT
BRANCH   6   1
ATOM      1  S   UNL     1      -3.832  -0.680  24.971  0.00  0.00    +0.061 S 
ATOM      3  O   UNL     1      -4.113  -1.190  26.296  0.00  0.00    -0.153 OA
ATOM      4  O   UNL     1      -4.368  -1.326  23.793  0.00  0.00    -0.153 OA
BRANCH   1  14
ATOM     14  C   UNL     1      -4.319   1.017  24.931  0.00  0.00    +0.105 A 
ATOM     15  C   UNL     1      -3.802   1.867  23.954  0.00  0.00    +0.028 A 
ATOM     16  C   UNL     1      -5.217   1.507  25.878  0.00  0.00    +0.028 A 
ATOM     17  C   UNL     1      -4.184   3.209  23.924  0.00  0.00    +0.002 A 
ATOM     18  C   UNL     1      -5.598   2.848  25.849  0.00  0.00    +0.002 A 
ATOM     19  C   UNL     1      -5.082   3.699  24.871  0.00  0.00    +0.000 A 
ENDBRANCH   1  14
ENDBRANCH   6   1
TORSDOF 2
ENDMDL
MODEL 4
REMARK VINA RESULT:      -4.2      2.729      5.112
REMARK  Name = 75368415
REMARK  2 active torsions:
REMARK  status: ('A' for Active; 'I' for Inactive)
REMARK    1  A    between atoms: S_1  and  N_6
REMARK    2  A    between atoms: S_1  and  C_14
REMARK                            x       y       z     vdW  Elec       q    Type
REMARK                         _______ _______ _______ _____ _____    ______ ____
ROOT
ATOM      2  O   UNL     1      -4.726  -2.110  23.625  0.00  0.00    -0.253 OA
ATOM      5  N   UNL     1      -2.991  -1.025  24.787  0.00  0.00    -0.279 N 
ATOM      6  N   UNL     1      -1.148   0.974  25.434  0.00  0.00    -0.173 NA
ATOM      7  N   UNL     1      -2.740  -3.192  24.247  0.00  0.00    -0.297 N 
ATOM      8  C   UNL     1      -1.739  -1.414  25.408  0.00  0.00    +0.110 C 
ATOM      9  C   UNL     1      -0.648  -0.399  25.087  0.00  0.00    +0.133 C 
ATOM     10  C   UNL     1      -3.489   0.326  24.959  0.00  0.00    +0.127 C 
ATOM     11  C   UNL     1      -1.486  -2.816  24.860  0.00  0.00    +0.129 C 
ATOM     12  C   UNL     1      -2.382   1.331  24.658  0.00  0.00    +0.128 C 
ATOM     13  C   UNL     1      -3.625  -2.103  24.158  0.00  0.00    +0.303 C 
ATOM     20  H   UNL     1      -2.934  -4.109  23.858  0.00  0.00    +0.150 HD
ENDROOT
BRANCH   6   1
ATOM      1  S   UNL     1       0.055   2.194  25.495  0.00  0.00    +0.061 S 
ATOM      3  O   UNL     1       0.847   2.135  24.285  0.00  0.00    -0.153 OA
ATOM      4  O   UNL     1       0.681   2.170  26.799  0.00  0.00    -0.153 OA
BRANCH   1  14
ATOM     14  C   UNL     1      -0.963   3.633  25.406  0.00  0.00    +0.105 A 
ATOM     15  C   UNL     1      -0.527   4.752  24.697  0.00  0.00    +0.028 A 
ATOM     16  C   UNL     1      -2.201   3.652  26.047  0.00  0.00    +0.028 A 
ATOM     17  C   UNL     1      -1.331   5.891  24.630  0.00  0.00    +0.002 A 
ATOM     18  C   UNL     1      -3.004   4.790  25.981  0.00  0.00    +0.002 A 
ATOM     19  C   UNL     1      -2.569   5.910  25.272  0.00  0.00    +0.000 A 
ENDBRANCH   1  14
ENDBRANCH   6   1
TORSDOF 2
ENDMDL
MODEL 5
REMARK VINA RESULT:      -4.2      3.060      5.706
REMARK  Name = 75368415
REMARK  2 active torsions:
REMARK  status: ('A' for Active; 'I' for Inactive)
REMARK    1  A    between atoms: S_1  and  N_6
REMARK    2  A    between atoms: S_1  and  C_14
REMARK                            x       y       z     vdW  Elec       q    Type
REMARK                         _______ _______ _______ _____ _____    ______ ____
ROOT
ATOM      2  O   UNL     1      -1.932  -3.527  23.589  0.00  0.00    -0.253 OA
ATOM      5  N   UNL     1      -2.692  -1.589  24.685  0.00  0.00    -0.279 N 
ATOM      6  N   UNL     1      -3.895   0.913  25.009  0.00  0.00    -0.173 NA
ATOM      7  N   UNL     1      -0.618  -2.335  25.124  0.00  0.00    -0.297 N 
ATOM      8  C   UNL     1      -2.207  -0.720  25.740  0.00  0.00    +0.110 C 
ATOM      9  C   UNL     1      -2.451   0.741  25.380  0.00  0.00    +0.133 C 
ATOM     10  C   UNL     1      -4.036  -1.412  24.170  0.00  0.00    +0.127 C 
ATOM     11  C   UNL     1      -0.736  -1.106  25.876  0.00  0.00    +0.129 C 
ATOM     12  C   UNL     1      -4.276   0.058  23.835  0.00  0.00    +0.128 C 
ATOM     13  C   UNL     1      -1.776  -2.598  24.369  0.00  0.00    +0.303 C 
ATOM     20  H   UNL     1       0.222  -2.901  25.082  0.00  0.00    +0.150 HD
ENDROOT
BRANCH   6   1
ATOM      1  S   UNL     1      -4.441   2.537  24.936  0.00  0.00    +0.061 S 
ATOM      3  O   UNL     1      -5.044   2.888  26.204  0.00  0.00    -0.153 OA
ATOM      4  O   UNL     1      -5.150   2.737  23.691  0.00  0.00    -0.153 OA
BRANCH   1  14
ATOM     14  C   UNL     1      -2.892   3.377  24.822  0.00  0.00    +0.105 A 
ATOM     15  C   UNL     1      -2.721   4.611  25.446  0.00  0.00    +0.028 A 
ATOM     16  C   UNL     1      -1.841   2.806  24.104  0.00  0.00    +0.028 A 
ATOM     17  C   UNL     1      -1.498   5.277  25.353  0.00  0.00    +0.002 A 
ATOM     18  C   UNL     1      -0.619   3.472  24.010  0.00  0.00    +0.002 A 
ATOM     19  C   UNL     1      -0.447   4.707  24.635  0.00  0.00    +0.000 A 
ENDBRANCH   1  14
ENDBRANCH   6   1
TORSDOF 2
ENDMDL
MODEL 6
REMARK VINA RESULT:      -4.1      3.136      6.358
REMARK  Name = 75368415
REMARK  2 active torsions:
REMARK  status: ('A' for Active; 'I' for Inactive)
REMARK    1  A    between atoms: S_1  and  N_6
REMARK    2  A    between atoms: S_1  and  C_14
REMARK                            x       y       z     vdW  Elec       q    Type
REMARK                         _______ _______ _______ _____ _____    ______ ____
ROOT
ATOM      2  O   UNL     1       3.574   1.485  23.398  0.00  0.00    -0.253 OA
ATOM      5  N   UNL     1       1.288   0.932  23.316  0.00  0.00    -0.279 N 
ATOM      6  N   UNL     1      -1.257   0.246  24.246  0.00  0.00    -0.173 NA
ATOM      7  N   UNL     1       2.696  -0.080  21.886  0.00  0.00    -0.297 N 
ATOM      8  C   UNL     1       0.430   0.137  22.458  0.00  0.00    +0.110 C 
ATOM      9  C   UNL     1      -0.551  -0.676  23.295  0.00  0.00    +0.133 C 
ATOM     10  C   UNL     1       0.701   1.758  24.353  0.00  0.00    +0.127 C 
ATOM     11  C   UNL     1       1.412  -0.695  21.639  0.00  0.00    +0.129 C 
ATOM     12  C   UNL     1      -0.296   0.939  25.168  0.00  0.00    +0.128 C 
ATOM     13  C   UNL     1       2.631   0.862  22.929  0.00  0.00    +0.303 C 
ATOM     20  H   UNL     1       3.557  -0.346  21.421  0.00  0.00    +0.150 HD
ENDROOT
BRANCH   6   1
ATOM      1  S   UNL     1      -2.649  -0.410  25.001  0.00  0.00    +0.061 S 
ATOM      3  O   UNL     1      -2.316  -0.785  26.359  0.00  0.00    -0.153 OA
ATOM      4  O   UNL     1      -3.271  -1.354  24.098  0.00  0.00    -0.153 OA
BRANCH   1  14
ATOM     14  C   UNL     1      -3.668   1.030  25.071  0.00  0.00    +0.105 A 
ATOM     15  C   UNL     1      -5.035   0.905  25.313  0.00  0.00    +0.028 A 
ATOM     16  C   UNL     1      -3.105   2.292  24.881  0.00  0.00    +0.028 A 
ATOM     17  C   UNL     1      -5.841   2.043  25.364  0.00  0.00    +0.002 A 
ATOM     18  C   UNL     1      -3.911   3.429  24.932  0.00  0.00    +0.002 A 
ATOM     19  C   UNL     1      -5.279   3.305  25.174  0.00  0.00    +0.000 A 
ENDBRANCH   1  14
ENDBRANCH   6   1
TORSDOF 2
ENDMDL
MODEL 7
REMARK VINA RESULT:      -4.1      2.708      4.531
REMARK  Name = 75368415
REMARK  2 active torsions:
REMARK  status: ('A' for Active; 'I' for Inactive)
REMARK    1  A    between atoms: S_1  and  N_6
REMARK    2  A    between atoms: S_1  and  C_14
REMARK                            x       y       z     vdW  Elec       q    Type
REMARK                         _______ _______ _______ _____ _____    ______ ____
ROOT
ATOM      2  O   UNL     1      -0.622   5.762  25.015  0.00  0.00    -0.253 OA
ATOM      5  N   UNL     1      -2.059   3.970  24.502  0.00  0.00    -0.279 N 
ATOM      6  N   UNL     1      -4.217   2.214  24.756  0.00  0.00    -0.173 NA
ATOM      7  N   UNL     1       0.162   3.631  24.425  0.00  0.00    -0.297 N 
ATOM      8  C   UNL     1      -1.912   2.618  23.999  0.00  0.00    +0.110 C 
ATOM      9  C   UNL     1      -2.821   1.664  24.765  0.00  0.00    +0.133 C 
ATOM     10  C   UNL     1      -3.383   4.542  24.652  0.00  0.00    +0.127 C 
ATOM     11  C   UNL     1      -0.419   2.337  24.150  0.00  0.00    +0.129 C 
ATOM     12  C   UNL     1      -4.289   3.568  25.400  0.00  0.00    +0.128 C 
ATOM     13  C   UNL     1      -0.823   4.601  24.687  0.00  0.00    +0.303 C 
ATOM     20  H   UNL     1       1.158   3.807  24.498  0.00  0.00    +0.150 HD
ENDROOT
BRANCH   6   1
ATOM      1  S   UNL     1      -5.439   1.111  25.238  0.00  0.00    +0.061 S 
ATOM      3  O   UNL     1      -6.511   1.143  24.267  0.00  0.00    -0.153 OA
ATOM      4  O   UNL     1      -5.703   1.292  26.649  0.00  0.00    -0.153 OA
BRANCH   1  14
ATOM     14  C   UNL     1      -4.572  -0.414  25.038  0.00  0.00    +0.105 A 
ATOM     15  C   UNL     1      -3.752  -0.888  26.061  0.00  0.00    +0.028 A 
ATOM     16  C   UNL     1      -4.705  -1.141  23.855  0.00  0.00    +0.028 A 
ATOM     17  C   UNL     1      -3.064  -2.092  25.901  0.00  0.00    +0.002 A 
ATOM     18  C   UNL     1      -4.016  -2.343  23.696  0.00  0.00    +0.002 A 
ATOM     19  C   UNL     1      -3.196  -2.819  24.719  0.00  0.00    +0.000 A 
ENDBRANCH   1  14
ENDBRANCH   6   1
TORSDOF 2
ENDMDL
MODEL 8
REMARK VINA RESULT:      -3.7      1.823      2.033
REMARK  Name = 75368415
REMARK  2 active torsions:
REMARK  status: ('A' for Active; 'I' for Inactive)
REMARK    1  A    between atoms: S_1  and  N_6
REMARK    2  A    between atoms: S_1  and  C_14
REMARK                            x       y       z     vdW  Elec       q    Type
REMARK                         _______ _______ _______ _____ _____    ______ ____
ROOT
ATOM      2  O   UNL     1      -5.991   5.484  25.663  0.00  0.00    -0.253 OA
ATOM      5  N   UNL     1      -4.575   3.604  25.680  0.00  0.00    -0.279 N 
ATOM      6  N   UNL     1      -2.481   1.920  24.914  0.00  0.00    -0.173 NA
ATOM      7  N   UNL     1      -6.796   3.285  25.816  0.00  0.00    -0.297 N 
ATOM      8  C   UNL     1      -4.728   2.176  25.881  0.00  0.00    +0.110 C 
ATOM      9  C   UNL     1      -3.889   1.404  24.869  0.00  0.00    +0.133 C 
ATOM     10  C   UNL     1      -3.247   4.178  25.579  0.00  0.00    +0.127 C 
ATOM     11  C   UNL     1      -6.234   1.955  25.762  0.00  0.00    +0.129 C 
ATOM     12  C   UNL     1      -2.411   3.383  24.581  0.00  0.00    +0.128 C 
ATOM     13  C   UNL     1      -5.802   4.277  25.715  0.00  0.00    +0.303 C 
ATOM     20  H   UNL     1      -7.790   3.485  25.845  0.00  0.00    +0.150 HD
ENDROOT
BRANCH   6   1
ATOM      1  S   UNL     1      -1.318   0.937  24.127  0.00  0.00    +0.061 S 
ATOM      3  O   UNL     1      -0.127   0.868  24.946  0.00  0.00    -0.153 OA
ATOM      4  O   UNL     1      -1.244   1.321  22.734  0.00  0.00    -0.153 OA
BRANCH   1  14
ATOM     14  C   UNL     1      -2.129  -0.629  24.217  0.00  0.00    +0.105 A 
ATOM     15  C   UNL     1      -3.450  -0.754  23.791  0.00  0.00    +0.028 A 
ATOM     16  C   UNL     1      -1.448  -1.739  24.718  0.00  0.00    +0.028 A 
ATOM     17  C   UNL     1      -4.093  -1.991  23.865  0.00  0.00    +0.002 A 
ATOM     18  C   UNL     1      -2.091  -2.974  24.793  0.00  0.00    +0.002 A 
ATOM     19  C   UNL     1      -3.413  -3.101  24.367  0.00  0.00    +0.000 A 
ENDBRANCH   1  14
ENDBRANCH   6   1
TORSDOF 2
ENDMDL
MODEL 9
REMARK VINA RESULT:      -3.5     18.497     20.274
REMARK  Name = 75368415
REMARK  2 active torsions:
REMARK  status: ('A' for Active; 'I' for Inactive)
REMARK    1  A    between atoms: S_1  and  N_6
REMARK    2  A    between atoms: S_1  and  C_14
REMARK                            x       y       z     vdW  Elec       q    Type
REMARK                         _______ _______ _______ _____ _____    ______ ____
ROOT
ATOM      2  O   UNL     1      11.809  -4.732  32.495  0.00  0.00    -0.253 OA
ATOM      5  N   UNL     1      13.300  -5.916  31.111  0.00  0.00    -0.279 N 
ATOM      6  N   UNL     1      14.656  -8.103  30.021  0.00  0.00    -0.173 NA
ATOM      7  N   UNL     1      14.022  -4.046  32.126  0.00  0.00    -0.297 N 
ATOM      8  C   UNL     1      14.637  -5.710  30.589  0.00  0.00    +0.110 C 
ATOM      9  C   UNL     1      15.443  -7.002  30.667  0.00  0.00    +0.133 C 
ATOM     10  C   UNL     1      12.509  -7.036  30.639  0.00  0.00    +0.127 C 
ATOM     11  C   UNL     1      15.183  -4.565  31.439  0.00  0.00    +0.129 C 
ATOM     12  C   UNL     1      13.334  -8.318  30.700  0.00  0.00    +0.128 C 
ATOM     13  C   UNL     1      12.904  -4.885  31.970  0.00  0.00    +0.303 C 
ATOM     20  H   UNL     1      14.028  -3.219  32.713  0.00  0.00    +0.150 HD
ENDROOT
BRANCH   6   1
ATOM      1  S   UNL     1      15.542  -9.531  29.680  0.00  0.00    +0.061 S 
ATOM      3  O   UNL     1      14.848 -10.664  30.252  0.00  0.00    -0.153 OA
ATOM      4  O   UNL     1      16.941  -9.292  29.962  0.00  0.00    -0.153 OA
BRANCH   1  14
ATOM     14  C   UNL     1      15.344  -9.603  27.927  0.00  0.00    +0.105 A 
ATOM     15  C   UNL     1      15.765  -8.536  27.134  0.00  0.00    +0.028 A 
ATOM     16  C   UNL     1      14.765 -10.726  27.337  0.00  0.00    +0.028 A 
ATOM     17  C   UNL     1      15.605  -8.592  25.748  0.00  0.00    +0.002 A 
ATOM     18  C   UNL     1      14.605 -10.781  25.952  0.00  0.00    +0.002 A 
ATOM     19  C   UNL     1      15.025  -9.715  25.158  0.00  0.00    +0.000 A 
ENDBRANCH   1  14
ENDBRANCH   6   1
TORSDOF 2
ENDMDL
MODEL 10
REMARK VINA RESULT:      -3.3     18.155     19.843
REMARK  Name = 75368415
REMARK  2 active torsions:
REMARK  status: ('A' for Active; 'I' for Inactive)
REMARK    1  A    between atoms: S_1  and  N_6
REMARK    2  A    between atoms: S_1  and  C_14
REMARK                            x       y       z     vdW  Elec       q    Type
REMARK                         _______ _______ _______ _____ _____    ______ ____
ROOT
ATOM      2  O   UNL     1       9.477  -8.175  32.126  0.00  0.00    -0.253 OA
ATOM      5  N   UNL     1      11.780  -7.702  32.028  0.00  0.00    -0.279 N 
ATOM      6  N   UNL     1      14.214  -6.838  30.961  0.00  0.00    -0.173 NA
ATOM      7  N   UNL     1      11.118  -9.677  32.872  0.00  0.00    -0.297 N 
ATOM      8  C   UNL     1      13.001  -8.326  32.499  0.00  0.00    +0.110 C 
ATOM      9  C   UNL     1      14.081  -8.259  31.424  0.00  0.00    +0.133 C 
ATOM     10  C   UNL     1      11.830  -6.376  31.443  0.00  0.00    +0.127 C 
ATOM     11  C   UNL     1      12.561  -9.739  32.873  0.00  0.00    +0.129 C 
ATOM     12  C   UNL     1      12.929  -6.315  30.386  0.00  0.00    +0.128 C 
ATOM     13  C   UNL     1      10.648  -8.472  32.317  0.00  0.00    +0.303 C 
ATOM     20  H   UNL     1      10.512 -10.437  33.163  0.00  0.00    +0.150 HD
ENDROOT
BRANCH   6   1
ATOM      1  S   UNL     1      15.618  -6.501  30.036  0.00  0.00    +0.061 S 
ATOM      3  O   UNL     1      15.276  -6.538  28.631  0.00  0.00    -0.153 OA
ATOM      4  O   UNL     1      16.720  -7.280  30.557  0.00  0.00    -0.153 OA
BRANCH   1  14
ATOM     14  C   UNL     1      15.883  -4.814  30.485  0.00  0.00    +0.105 A 
ATOM     15  C   UNL     1      15.323  -4.309  31.658  0.00  0.00    +0.028 A 
ATOM     16  C   UNL     1      16.649  -3.987  29.664  0.00  0.00    +0.028 A 
ATOM     17  C   UNL     1      15.530  -2.975  32.011  0.00  0.00    +0.002 A 
ATOM     18  C   UNL     1      16.855  -2.653  30.017  0.00  0.00    +0.002 A 
ATOM     19  C   UNL     1      16.296  -2.147  31.190  0.00  0.00    +0.000 A 
ENDBRANCH   1  14
ENDBRANCH   6   1
TORSDOF 2
ENDMDL
