MODEL 1
REMARK VINA RESULT:      -1.5      0.000      0.000
REMARK  Name = 25389141
REMARK  10 active torsions:
REMARK  status: ('A' for Active; 'I' for Inactive)
REMARK    1  A    between atoms: N_6  and  C_15
REMARK    2  A    between atoms: N_6  and  C_17
REMARK    3  A    between atoms: N_6  and  C_18
REMARK    4  A    between atoms: N_7  and  C_16
REMARK    5  A    between atoms: C_9  and  C_15
REMARK    6  A    between atoms: C_10  and  C_16
REMARK    7  A    between atoms: C_17  and  C_20
REMARK    8  A    between atoms: C_18  and  C_21
REMARK    9  A    between atoms: C_19  and  C_22
REMARK   10  A    between atoms: C_27  and  C_28
REMARK                            x       y       z     vdW  Elec       q    Type
REMARK                         _______ _______ _______ _____ _____    ______ ____
ROOT
ATOM     16  C   UNL     1      -1.892   1.516  22.230  0.00  0.00    +0.123 C 
ENDROOT
BRANCH  16  10
ATOM      5  N   UNL     1      -1.744   2.763  24.402  0.00  0.00    -0.298 NA
ATOM      8  C   UNL     1      -4.320   3.050  24.629  0.00  0.00    -0.003 C 
ATOM      9  C   UNL     1      -3.805   1.933  25.565  0.00  0.00    +0.020 C 
ATOM     10  C   UNL     1      -2.384   2.704  23.060  0.00  0.00    +0.074 C 
ATOM     11  C   UNL     1      -3.924   2.722  23.178  0.00  0.00    +0.024 C 
ATOM     12  C   UNL     1      -2.302   1.708  25.284  0.00  0.00    +0.089 C 
ATOM     13  C   UNL     1      -3.579   4.342  25.023  0.00  0.00    +0.019 C 
ATOM     14  C   UNL     1      -2.061   4.082  25.001  0.00  0.00    +0.085 C 
BRANCH   9  15
ATOM     15  C   UNL     1      -4.600   0.634  25.447  0.00  0.00    +0.089 C 
BRANCH  15   6
ATOM      6  N   UNL     1      -3.755  -0.450  24.972  0.00  0.00    -0.303 NA
BRANCH   6  17
ATOM     17  C   UNL     1      -4.430  -1.208  23.915  0.00  0.00    +0.081 C 
ATOM     20  C   UNL     1      -4.013  -2.669  23.935  0.00  0.00    +0.020 C 
ENDBRANCH   6  17
BRANCH   6  18
ATOM     18  C   UNL     1      -3.385  -1.342  26.075  0.00  0.00    +0.081 C 
ATOM     21  C   UNL     1      -1.898  -1.256  26.372  0.00  0.00    +0.020 C 
ENDBRANCH   6  18
ENDBRANCH  15   6
ENDBRANCH   9  15
ENDBRANCH  16  10
BRANCH  16   7
ATOM      4  O   UNL     1      -0.631  -0.795  23.373  0.00  0.00    -0.270 OA
ATOM      7  N   UNL     1      -0.465   1.310  22.419  0.00  0.00    -0.310 N 
ATOM     19  C   UNL     1       0.042   0.156  22.982  0.00  0.00    +0.244 C 
ATOM     29  H   UNL     1       0.141   2.087  22.180  0.00  0.00    +0.149 HD
BRANCH  19  22
ATOM     22  C   UNL     1       1.519   0.111  23.131  0.00  0.00    +0.037 A 
ATOM     23  C   UNL     1       2.154  -1.094  23.432  0.00  0.00    +0.013 A 
ATOM     24  C   UNL     1       2.271   1.275  22.973  0.00  0.00    +0.013 A 
ATOM     25  C   UNL     1       3.541  -1.135  23.573  0.00  0.00    +0.013 A 
ATOM     26  C   UNL     1       3.659   1.233  23.113  0.00  0.00    +0.013 A 
ATOM     27  C   UNL     1       4.294   0.028  23.414  0.00  0.00    +0.055 A 
BRANCH  27  28
ATOM      1  F   UNL     1       6.430  -0.410  22.432  0.00  0.00    -0.166 F 
ATOM      2  F   UNL     1       6.179  -0.882  24.539  0.00  0.00    -0.166 F 
ATOM      3  F   UNL     1       6.329   1.188  23.893  0.00  0.00    -0.166 F 
ATOM     28  C   UNL     1       5.777  -0.016  23.565  0.00  0.00    +0.417 C 
ENDBRANCH  27  28
ENDBRANCH  19  22
ENDBRANCH  16   7
TORSDOF 8
ENDMDL
MODEL 2
REMARK VINA RESULT:      -1.4      2.139      3.349
REMARK  Name = 25389141
REMARK  10 active torsions:
REMARK  status: ('A' for Active; 'I' for Inactive)
REMARK    1  A    between atoms: N_6  and  C_15
REMARK    2  A    between atoms: N_6  and  C_17
REMARK    3  A    between atoms: N_6  and  C_18
REMARK    4  A    between atoms: N_7  and  C_16
REMARK    5  A    between atoms: C_9  and  C_15
REMARK    6  A    between atoms: C_10  and  C_16
REMARK    7  A    between atoms: C_17  and  C_20
REMARK    8  A    between atoms: C_18  and  C_21
REMARK    9  A    between atoms: C_19  and  C_22
REMARK   10  A    between atoms: C_27  and  C_28
REMARK                            x       y       z     vdW  Elec       q    Type
REMARK                         _______ _______ _______ _____ _____    ______ ____
ROOT
ATOM     16  C   UNL     1      -3.322   4.308  25.134  0.00  0.00    +0.123 C 
ENDROOT
BRANCH  16  10
ATOM      5  N   UNL     1      -5.184   2.997  26.185  0.00  0.00    -0.298 NA
ATOM      8  C   UNL     1      -5.477   1.415  24.142  0.00  0.00    -0.003 C 
ATOM      9  C   UNL     1      -4.717   0.704  25.284  0.00  0.00    +0.020 C 
ATOM     10  C   UNL     1      -4.699   3.666  24.949  0.00  0.00    +0.074 C 
ATOM     11  C   UNL     1      -4.722   2.697  23.746  0.00  0.00    +0.024 C 
ATOM     12  C   UNL     1      -4.445   1.730  26.408  0.00  0.00    +0.089 C 
ATOM     13  C   UNL     1      -6.842   1.846  24.712  0.00  0.00    +0.019 C 
ATOM     14  C   UNL     1      -6.618   2.669  25.994  0.00  0.00    +0.085 C 
BRANCH   9  15
ATOM     15  C   UNL     1      -3.431   0.024  24.820  0.00  0.00    +0.089 C 
BRANCH  15   6
ATOM      6  N   UNL     1      -3.074  -1.072  25.707  0.00  0.00    -0.303 NA
BRANCH   6  17
ATOM     17  C   UNL     1      -1.690  -0.936  26.169  0.00  0.00    +0.081 C 
ATOM     20  C   UNL     1      -0.765  -1.878  25.418  0.00  0.00    +0.020 C 
ENDBRANCH   6  17
BRANCH   6  18
ATOM     18  C   UNL     1      -3.258  -2.363  25.037  0.00  0.00    +0.081 C 
ATOM     21  C   UNL     1      -4.153  -2.226  23.818  0.00  0.00    +0.020 C 
ENDBRANCH   6  18
ENDBRANCH  15   6
ENDBRANCH   9  15
ENDBRANCH  16  10
BRANCH  16   7
ATOM      4  O   UNL     1      -1.185   2.933  26.471  0.00  0.00    -0.270 OA
ATOM      7  N   UNL     1      -2.287   3.499  24.512  0.00  0.00    -0.310 N 
ATOM     19  C   UNL     1      -1.299   2.876  25.249  0.00  0.00    +0.244 C 
ATOM     29  H   UNL     1      -2.284   3.466  23.498  0.00  0.00    +0.149 HD
BRANCH  19  22
ATOM     22  C   UNL     1      -0.301   2.108  24.462  0.00  0.00    +0.037 A 
ATOM     23  C   UNL     1       1.057   2.412  24.569  0.00  0.00    +0.013 A 
ATOM     24  C   UNL     1      -0.720   1.082  23.615  0.00  0.00    +0.013 A 
ATOM     25  C   UNL     1       1.993   1.691  23.829  0.00  0.00    +0.013 A 
ATOM     26  C   UNL     1       0.217   0.360  22.876  0.00  0.00    +0.013 A 
ATOM     27  C   UNL     1       1.574   0.665  22.982  0.00  0.00    +0.055 A 
BRANCH  27  28
ATOM      1  F   UNL     1       2.059  -0.683  21.067  0.00  0.00    -0.166 F 
ATOM      2  F   UNL     1       3.133  -1.127  22.904  0.00  0.00    -0.166 F 
ATOM      3  F   UNL     1       3.625   0.650  21.752  0.00  0.00    -0.166 F 
ATOM     28  C   UNL     1       2.576  -0.106  22.191  0.00  0.00    +0.417 C 
ENDBRANCH  27  28
ENDBRANCH  19  22
ENDBRANCH  16   7
TORSDOF 8
ENDMDL
MODEL 3
REMARK VINA RESULT:      -1.0      1.252      3.538
REMARK  Name = 25389141
REMARK  10 active torsions:
REMARK  status: ('A' for Active; 'I' for Inactive)
REMARK    1  A    between atoms: N_6  and  C_15
REMARK    2  A    between atoms: N_6  and  C_17
REMARK    3  A    between atoms: N_6  and  C_18
REMARK    4  A    between atoms: N_7  and  C_16
REMARK    5  A    between atoms: C_9  and  C_15
REMARK    6  A    between atoms: C_10  and  C_16
REMARK    7  A    between atoms: C_17  and  C_20
REMARK    8  A    between atoms: C_18  and  C_21
REMARK    9  A    between atoms: C_19  and  C_22
REMARK   10  A    between atoms: C_27  and  C_28
REMARK                            x       y       z     vdW  Elec       q    Type
REMARK                         _______ _______ _______ _____ _____    ______ ____
ROOT
ATOM     16  C   UNL     1      -1.064   0.791  23.761  0.00  0.00    +0.123 C 
ENDROOT
BRANCH  16  10
ATOM      5  N   UNL     1      -2.845  -0.969  23.608  0.00  0.00    -0.298 NA
ATOM      8  C   UNL     1      -3.627  -0.660  26.070  0.00  0.00    -0.003 C 
ATOM      9  C   UNL     1      -4.612   0.015  25.090  0.00  0.00    +0.020 C 
ATOM     10  C   UNL     1      -1.737  -0.411  24.429  0.00  0.00    +0.074 C 
ATOM     11  C   UNL     1      -2.218  -0.078  25.859  0.00  0.00    +0.024 C 
ATOM     12  C   UNL     1      -4.026  -0.074  23.662  0.00  0.00    +0.089 C 
ATOM     13  C   UNL     1      -3.566  -2.152  25.688  0.00  0.00    +0.019 C 
ATOM     14  C   UNL     1      -3.230  -2.278  24.191  0.00  0.00    +0.085 C 
BRANCH   9  15
ATOM     15  C   UNL     1      -4.950   1.455  25.471  0.00  0.00    +0.089 C 
BRANCH  15   6
ATOM      6  N   UNL     1      -3.935   2.373  24.981  0.00  0.00    -0.303 NA
BRANCH   6  17
ATOM     17  C   UNL     1      -3.467   3.251  26.056  0.00  0.00    +0.081 C 
ATOM     20  C   UNL     1      -2.044   3.720  25.802  0.00  0.00    +0.020 C 
ENDBRANCH   6  17
BRANCH   6  18
ATOM     18  C   UNL     1      -4.453   3.172  23.866  0.00  0.00    +0.081 C 
ATOM     21  C   UNL     1      -3.564   3.045  22.642  0.00  0.00    +0.020 C 
ENDBRANCH   6  18
ENDBRANCH  15   6
ENDBRANCH   9  15
ENDBRANCH  16  10
BRANCH  16   7
ATOM      4  O   UNL     1       0.595  -0.512  21.814  0.00  0.00    -0.270 OA
ATOM      7  N   UNL     1       0.383   0.661  23.802  0.00  0.00    -0.310 N 
ATOM     19  C   UNL     1       1.091   0.012  22.810  0.00  0.00    +0.244 C 
ATOM     29  H   UNL     1       0.847   1.012  24.633  0.00  0.00    +0.149 HD
BRANCH  19  22
ATOM     22  C   UNL     1       2.560  -0.059  23.012  0.00  0.00    +0.037 A 
ATOM     23  C   UNL     1       3.363   1.036  22.691  0.00  0.00    +0.013 A 
ATOM     24  C   UNL     1       3.138  -1.221  23.523  0.00  0.00    +0.013 A 
ATOM     25  C   UNL     1       4.743   0.968  22.880  0.00  0.00    +0.013 A 
ATOM     26  C   UNL     1       4.519  -1.288  23.713  0.00  0.00    +0.013 A 
ATOM     27  C   UNL     1       5.321  -0.193  23.391  0.00  0.00    +0.055 A 
BRANCH  27  28
ATOM      1  F   UNL     1       7.472  -0.781  22.525  0.00  0.00    -0.166 F 
ATOM      2  F   UNL     1       7.143  -1.046  24.657  0.00  0.00    -0.166 F 
ATOM      3  F   UNL     1       7.376   0.949  23.827  0.00  0.00    -0.166 F 
ATOM     28  C   UNL     1       6.797  -0.265  23.594  0.00  0.00    +0.417 C 
ENDBRANCH  27  28
ENDBRANCH  19  22
ENDBRANCH  16   7
TORSDOF 8
ENDMDL
MODEL 4
REMARK VINA RESULT:      -1.0      1.677      3.698
REMARK  Name = 25389141
REMARK  10 active torsions:
REMARK  status: ('A' for Active; 'I' for Inactive)
REMARK    1  A    between atoms: N_6  and  C_15
REMARK    2  A    between atoms: N_6  and  C_17
REMARK    3  A    between atoms: N_6  and  C_18
REMARK    4  A    between atoms: N_7  and  C_16
REMARK    5  A    between atoms: C_9  and  C_15
REMARK    6  A    between atoms: C_10  and  C_16
REMARK    7  A    between atoms: C_17  and  C_20
REMARK    8  A    between atoms: C_18  and  C_21
REMARK    9  A    between atoms: C_19  and  C_22
REMARK   10  A    between atoms: C_27  and  C_28
REMARK                            x       y       z     vdW  Elec       q    Type
REMARK                         _______ _______ _______ _____ _____    ______ ____
ROOT
ATOM     16  C   UNL     1      -4.033  -0.719  24.447  0.00  0.00    +0.123 C 
ENDROOT
BRANCH  16  10
ATOM      5  N   UNL     1      -5.338   1.409  24.195  0.00  0.00    -0.298 NA
ATOM      8  C   UNL     1      -3.792   2.767  25.786  0.00  0.00    -0.003 C 
ATOM      9  C   UNL     1      -3.498   3.109  24.308  0.00  0.00    +0.020 C 
ATOM     10  C   UNL     1      -4.654   0.493  25.147  0.00  0.00    +0.074 C 
ATOM     11  C   UNL     1      -3.619   1.253  26.004  0.00  0.00    +0.024 C 
ATOM     12  C   UNL     1      -4.338   2.173  23.410  0.00  0.00    +0.089 C 
ATOM     13  C   UNL     1      -5.276   3.098  26.036  0.00  0.00    +0.019 C 
ATOM     14  C   UNL     1      -6.139   2.374  24.987  0.00  0.00    +0.085 C 
BRANCH   9  15
ATOM     15  C   UNL     1      -2.013   3.042  23.958  0.00  0.00    +0.089 C 
BRANCH  15   6
ATOM      6  N   UNL     1      -1.198   3.540  25.054  0.00  0.00    -0.303 NA
BRANCH   6  17
ATOM     17  C   UNL     1      -0.716   4.895  24.769  0.00  0.00    +0.081 C 
ATOM     20  C   UNL     1      -1.787   5.932  25.065  0.00  0.00    +0.020 C 
ENDBRANCH   6  17
BRANCH   6  18
ATOM     18  C   UNL     1      -0.066   2.645  25.309  0.00  0.00    +0.081 C 
ATOM     21  C   UNL     1       0.040   2.300  26.784  0.00  0.00    +0.020 C 
ENDBRANCH   6  18
ENDBRANCH  15   6
ENDBRANCH   9  15
ENDBRANCH  16  10
BRANCH  16   7
ATOM      4  O   UNL     1      -1.720  -2.314  25.034  0.00  0.00    -0.270 OA
ATOM      7  N   UNL     1      -2.663  -0.439  24.051  0.00  0.00    -0.310 N 
ATOM     19  C   UNL     1      -1.616  -1.275  24.386  0.00  0.00    +0.244 C 
ATOM     29  H   UNL     1      -2.499   0.440  23.571  0.00  0.00    +0.149 HD
BRANCH  19  22
ATOM     22  C   UNL     1      -0.273  -0.835  23.929  0.00  0.00    +0.037 A 
ATOM     23  C   UNL     1       0.867  -1.519  24.352  0.00  0.00    +0.013 A 
ATOM     24  C   UNL     1      -0.151   0.262  23.077  0.00  0.00    +0.013 A 
ATOM     25  C   UNL     1       2.128  -1.105  23.923  0.00  0.00    +0.013 A 
ATOM     26  C   UNL     1       1.110   0.676  22.648  0.00  0.00    +0.013 A 
ATOM     27  C   UNL     1       2.250  -0.007  23.071  0.00  0.00    +0.055 A 
BRANCH  27  28
ATOM      1  F   UNL     1       3.761   0.378  21.258  0.00  0.00    -0.166 F 
ATOM      2  F   UNL     1       4.605  -0.323  23.136  0.00  0.00    -0.166 F 
ATOM      3  F   UNL     1       3.896   1.724  22.953  0.00  0.00    -0.166 F 
ATOM     28  C   UNL     1       3.598   0.435  22.613  0.00  0.00    +0.417 C 
ENDBRANCH  27  28
ENDBRANCH  19  22
ENDBRANCH  16   7
TORSDOF 8
ENDMDL
MODEL 5
REMARK VINA RESULT:      -0.7      3.983      5.949
REMARK  Name = 25389141
REMARK  10 active torsions:
REMARK  status: ('A' for Active; 'I' for Inactive)
REMARK    1  A    between atoms: N_6  and  C_15
REMARK    2  A    between atoms: N_6  and  C_17
REMARK    3  A    between atoms: N_6  and  C_18
REMARK    4  A    between atoms: N_7  and  C_16
REMARK    5  A    between atoms: C_9  and  C_15
REMARK    6  A    between atoms: C_10  and  C_16
REMARK    7  A    between atoms: C_17  and  C_20
REMARK    8  A    between atoms: C_18  and  C_21
REMARK    9  A    between atoms: C_19  and  C_22
REMARK   10  A    between atoms: C_27  and  C_28
REMARK                            x       y       z     vdW  Elec       q    Type
REMARK                         _______ _______ _______ _____ _____    ______ ____
ROOT
ATOM     16  C   UNL     1      -0.272  -1.818  25.648  0.00  0.00    +0.123 C 
ENDROOT
BRANCH  16  10
ATOM      5  N   UNL     1      -1.844  -2.478  23.808  0.00  0.00    -0.298 NA
ATOM      8  C   UNL     1      -3.980  -2.125  25.250  0.00  0.00    -0.003 C 
ATOM      9  C   UNL     1      -3.778  -0.950  24.266  0.00  0.00    +0.020 C 
ATOM     10  C   UNL     1      -1.515  -2.620  25.252  0.00  0.00    +0.074 C 
ATOM     11  C   UNL     1      -2.730  -2.268  26.137  0.00  0.00    +0.024 C 
ATOM     12  C   UNL     1      -2.426  -1.140  23.543  0.00  0.00    +0.089 C 
ATOM     13  C   UNL     1      -4.088  -3.406  24.401  0.00  0.00    +0.019 C 
ATOM     14  C   UNL     1      -2.865  -3.501  23.471  0.00  0.00    +0.085 C 
BRANCH   9  15
ATOM     15  C   UNL     1      -3.871   0.420  24.936  0.00  0.00    +0.089 C 
BRANCH  15   6
ATOM      6  N   UNL     1      -4.702   1.323  24.158  0.00  0.00    -0.303 NA
BRANCH   6  17
ATOM     17  C   UNL     1      -3.925   2.477  23.698  0.00  0.00    +0.081 C 
ATOM     20  C   UNL     1      -3.094   2.127  22.475  0.00  0.00    +0.020 C 
ENDBRANCH   6  17
BRANCH   6  18
ATOM     18  C   UNL     1      -5.857   1.773  24.941  0.00  0.00    +0.081 C 
ATOM     21  C   UNL     1      -5.534   3.038  25.716  0.00  0.00    +0.020 C 
ENDBRANCH   6  18
ENDBRANCH  15   6
ENDBRANCH   9  15
ENDBRANCH  16  10
BRANCH  16   7
ATOM      4  O   UNL     1       0.655   0.018  23.645  0.00  0.00    -0.270 OA
ATOM      7  N   UNL     1      -0.539  -0.390  25.589  0.00  0.00    -0.310 N 
ATOM     19  C   UNL     1      -0.043   0.409  24.578  0.00  0.00    +0.244 C 
ATOM     29  H   UNL     1      -1.053   0.008  26.368  0.00  0.00    +0.149 HD
BRANCH  19  22
ATOM     22  C   UNL     1      -0.383   1.851  24.676  0.00  0.00    +0.037 A 
ATOM     23  C   UNL     1      -1.154   2.316  25.743  0.00  0.00    +0.013 A 
ATOM     24  C   UNL     1       0.067   2.741  23.702  0.00  0.00    +0.013 A 
ATOM     25  C   UNL     1      -1.473   3.670  25.833  0.00  0.00    +0.013 A 
ATOM     26  C   UNL     1      -0.252   4.096  23.793  0.00  0.00    +0.013 A 
ATOM     27  C   UNL     1      -1.023   4.561  24.859  0.00  0.00    +0.055 A 
BRANCH  27  28
ATOM      1  F   UNL     1      -1.964   6.507  23.835  0.00  0.00    -0.166 F 
ATOM      2  F   UNL     1      -0.269   6.794  25.165  0.00  0.00    -0.166 F 
ATOM      3  F   UNL     1      -2.223   6.300  25.978  0.00  0.00    -0.166 F 
ATOM     28  C   UNL     1      -1.365   6.009  24.957  0.00  0.00    +0.417 C 
ENDBRANCH  27  28
ENDBRANCH  19  22
ENDBRANCH  16   7
TORSDOF 8
ENDMDL
MODEL 6
REMARK VINA RESULT:      -0.7      2.166      4.263
REMARK  Name = 25389141
REMARK  10 active torsions:
REMARK  status: ('A' for Active; 'I' for Inactive)
REMARK    1  A    between atoms: N_6  and  C_15
REMARK    2  A    between atoms: N_6  and  C_17
REMARK    3  A    between atoms: N_6  and  C_18
REMARK    4  A    between atoms: N_7  and  C_16
REMARK    5  A    between atoms: C_9  and  C_15
REMARK    6  A    between atoms: C_10  and  C_16
REMARK    7  A    between atoms: C_17  and  C_20
REMARK    8  A    between atoms: C_18  and  C_21
REMARK    9  A    between atoms: C_19  and  C_22
REMARK   10  A    between atoms: C_27  and  C_28
REMARK                            x       y       z     vdW  Elec       q    Type
REMARK                         _______ _______ _______ _____ _____    ______ ____
ROOT
ATOM     16  C   UNL     1      -5.171   0.437  24.874  0.00  0.00    +0.123 C 
ENDROOT
BRANCH  16  10
ATOM      5  N   UNL     1      -5.211   2.838  24.147  0.00  0.00    -0.298 NA
ATOM      8  C   UNL     1      -4.553   3.755  26.491  0.00  0.00    -0.003 C 
ATOM      9  C   UNL     1      -3.344   3.782  25.528  0.00  0.00    +0.020 C 
ATOM     10  C   UNL     1      -5.605   1.867  25.204  0.00  0.00    +0.074 C 
ATOM     11  C   UNL     1      -5.093   2.317  26.590  0.00  0.00    +0.024 C 
ATOM     12  C   UNL     1      -3.752   3.096  24.205  0.00  0.00    +0.089 C 
ATOM     13  C   UNL     1      -5.658   4.614  25.847  0.00  0.00    +0.019 C 
ATOM     14  C   UNL     1      -5.918   4.114  24.414  0.00  0.00    +0.085 C 
BRANCH   9  15
ATOM     15  C   UNL     1      -2.086   3.155  26.124  0.00  0.00    +0.089 C 
BRANCH  15   6
ATOM      6  N   UNL     1      -0.924   3.434  25.294  0.00  0.00    -0.303 NA
BRANCH   6  17
ATOM     17  C   UNL     1       0.310   3.045  25.982  0.00  0.00    +0.081 C 
ATOM     20  C   UNL     1       0.028   2.050  27.095  0.00  0.00    +0.020 C 
ENDBRANCH   6  17
BRANCH   6  18
ATOM     18  C   UNL     1      -0.874   4.853  24.932  0.00  0.00    +0.081 C 
ATOM     21  C   UNL     1      -0.264   5.045  23.554  0.00  0.00    +0.020 C 
ENDBRANCH   6  18
ENDBRANCH  15   6
ENDBRANCH   9  15
ENDBRANCH  16  10
BRANCH  16   7
ATOM      4  O   UNL     1      -2.985  -1.045  26.000  0.00  0.00    -0.270 OA
ATOM      7  N   UNL     1      -3.800   0.412  24.392  0.00  0.00    -0.310 N 
ATOM     19  C   UNL     1      -2.818  -0.338  25.009  0.00  0.00    +0.244 C 
ATOM     29  H   UNL     1      -3.580   1.028  23.617  0.00  0.00    +0.149 HD
BRANCH  19  22
ATOM     22  C   UNL     1      -1.462  -0.235  24.411  0.00  0.00    +0.037 A 
ATOM     23  C   UNL     1      -1.156   0.823  23.553  0.00  0.00    +0.013 A 
ATOM     24  C   UNL     1      -0.495  -1.196  24.705  0.00  0.00    +0.013 A 
ATOM     25  C   UNL     1       0.117   0.919  22.992  0.00  0.00    +0.013 A 
ATOM     26  C   UNL     1       0.778  -1.099  24.143  0.00  0.00    +0.013 A 
ATOM     27  C   UNL     1       1.084  -0.042  23.286  0.00  0.00    +0.055 A 
BRANCH  27  28
ATOM      1  F   UNL     1       3.078   1.239  22.962  0.00  0.00    -0.166 F 
ATOM      2  F   UNL     1       2.426  -0.034  21.324  0.00  0.00    -0.166 F 
ATOM      3  F   UNL     1       3.305  -0.912  23.107  0.00  0.00    -0.166 F 
ATOM     28  C   UNL     1       2.445   0.061  22.684  0.00  0.00    +0.417 C 
ENDBRANCH  27  28
ENDBRANCH  19  22
ENDBRANCH  16   7
TORSDOF 8
ENDMDL
MODEL 7
REMARK VINA RESULT:       0.5      3.751      6.283
REMARK  Name = 25389141
REMARK  10 active torsions:
REMARK  status: ('A' for Active; 'I' for Inactive)
REMARK    1  A    between atoms: N_6  and  C_15
REMARK    2  A    between atoms: N_6  and  C_17
REMARK    3  A    between atoms: N_6  and  C_18
REMARK    4  A    between atoms: N_7  and  C_16
REMARK    5  A    between atoms: C_9  and  C_15
REMARK    6  A    between atoms: C_10  and  C_16
REMARK    7  A    between atoms: C_17  and  C_20
REMARK    8  A    between atoms: C_18  and  C_21
REMARK    9  A    between atoms: C_19  and  C_22
REMARK   10  A    between atoms: C_27  and  C_28
REMARK                            x       y       z     vdW  Elec       q    Type
REMARK                         _______ _______ _______ _____ _____    ______ ____
ROOT
ATOM     16  C   UNL     1      -4.242   3.886  26.213  0.00  0.00    +0.123 C 
ENDROOT
BRANCH  16  10
ATOM      5  N   UNL     1      -2.891   4.806  24.309  0.00  0.00    -0.298 NA
ATOM      8  C   UNL     1      -0.604   4.235  25.408  0.00  0.00    -0.003 C 
ATOM      9  C   UNL     1      -0.950   3.220  24.295  0.00  0.00    +0.020 C 
ATOM     10  C   UNL     1      -3.040   4.733  25.788  0.00  0.00    +0.074 C 
ATOM     11  C   UNL     1      -1.733   4.250  26.454  0.00  0.00    +0.024 C 
ATOM     12  C   UNL     1      -2.376   3.520  23.780  0.00  0.00    +0.089 C 
ATOM     13  C   UNL     1      -0.573   5.628  24.750  0.00  0.00    +0.019 C 
ATOM     14  C   UNL     1      -1.898   5.864  24.002  0.00  0.00    +0.085 C 
BRANCH   9  15
ATOM     15  C   UNL     1      -0.806   1.766  24.740  0.00  0.00    +0.089 C 
BRANCH  15   6
ATOM      6  N   UNL     1      -0.243   0.950  23.677  0.00  0.00    -0.303 NA
BRANCH   6  17
ATOM     17  C   UNL     1      -0.520  -0.470  23.908  0.00  0.00    +0.081 C 
ATOM     20  C   UNL     1      -0.563  -0.785  25.394  0.00  0.00    +0.020 C 
ENDBRANCH   6  17
BRANCH   6  18
ATOM     18  C   UNL     1       1.202   1.170  23.564  0.00  0.00    +0.081 C 
ATOM     21  C   UNL     1       1.849   0.120  22.677  0.00  0.00    +0.020 C 
ENDBRANCH   6  18
ENDBRANCH  15   6
ENDBRANCH   9  15
ENDBRANCH  16  10
BRANCH  16   7
ATOM      4  O   UNL     1      -5.651   2.249  24.323  0.00  0.00    -0.270 OA
ATOM      7  N   UNL     1      -4.005   2.479  25.937  0.00  0.00    -0.310 N 
ATOM     19  C   UNL     1      -4.742   1.779  25.003  0.00  0.00    +0.244 C 
ATOM     29  H   UNL     1      -3.312   2.013  26.514  0.00  0.00    +0.149 HD
BRANCH  19  22
ATOM     22  C   UNL     1      -4.395   0.342  24.858  0.00  0.00    +0.037 A 
ATOM     23  C   UNL     1      -3.986  -0.393  25.971  0.00  0.00    +0.013 A 
ATOM     24  C   UNL     1      -4.476  -0.272  23.609  0.00  0.00    +0.013 A 
ATOM     25  C   UNL     1      -3.659  -1.742  25.834  0.00  0.00    +0.013 A 
ATOM     26  C   UNL     1      -4.150  -1.622  23.472  0.00  0.00    +0.013 A 
ATOM     27  C   UNL     1      -3.741  -2.357  24.585  0.00  0.00    +0.055 A 
BRANCH  27  28
ATOM      1  F   UNL     1      -3.304  -4.464  25.629  0.00  0.00    -0.166 F 
ATOM      2  F   UNL     1      -2.187  -3.988  23.825  0.00  0.00    -0.166 F 
ATOM      3  F   UNL     1      -4.294  -4.508  23.701  0.00  0.00    -0.166 F 
ATOM     28  C   UNL     1      -3.391  -3.799  24.439  0.00  0.00    +0.417 C 
ENDBRANCH  27  28
ENDBRANCH  19  22
ENDBRANCH  16   7
TORSDOF 8
ENDMDL
MODEL 8
REMARK VINA RESULT:       0.8      1.274      2.119
REMARK  Name = 25389141
REMARK  10 active torsions:
REMARK  status: ('A' for Active; 'I' for Inactive)
REMARK    1  A    between atoms: N_6  and  C_15
REMARK    2  A    between atoms: N_6  and  C_17
REMARK    3  A    between atoms: N_6  and  C_18
REMARK    4  A    between atoms: N_7  and  C_16
REMARK    5  A    between atoms: C_9  and  C_15
REMARK    6  A    between atoms: C_10  and  C_16
REMARK    7  A    between atoms: C_17  and  C_20
REMARK    8  A    between atoms: C_18  and  C_21
REMARK    9  A    between atoms: C_19  and  C_22
REMARK   10  A    between atoms: C_27  and  C_28
REMARK                            x       y       z     vdW  Elec       q    Type
REMARK                         _______ _______ _______ _____ _____    ______ ____
ROOT
ATOM     16  C   UNL     1      -1.094   1.254  24.077  0.00  0.00    +0.123 C 
ENDROOT
BRANCH  16  10
ATOM      5  N   UNL     1      -1.618   3.338  25.372  0.00  0.00    -0.298 NA
ATOM      8  C   UNL     1      -3.510   4.093  23.755  0.00  0.00    -0.003 C 
ATOM      9  C   UNL     1      -4.099   3.486  25.048  0.00  0.00    +0.020 C 
ATOM     10  C   UNL     1      -1.398   2.753  24.022  0.00  0.00    +0.074 C 
ATOM     11  C   UNL     1      -2.585   3.063  23.083  0.00  0.00    +0.024 C 
ATOM     12  C   UNL     1      -2.940   2.925  25.902  0.00  0.00    +0.089 C 
ATOM     13  C   UNL     1      -2.632   5.286  24.180  0.00  0.00    +0.019 C 
ATOM     14  C   UNL     1      -1.615   4.815  25.235  0.00  0.00    +0.085 C 
BRANCH   9  15
ATOM     15  C   UNL     1      -5.167   2.427  24.783  0.00  0.00    +0.089 C 
BRANCH  15   6
ATOM      6  N   UNL     1      -4.759   1.135  25.311  0.00  0.00    -0.303 NA
BRANCH   6  17
ATOM     17  C   UNL     1      -4.549   0.173  24.226  0.00  0.00    +0.081 C 
ATOM     20  C   UNL     1      -4.001  -1.141  24.755  0.00  0.00    +0.020 C 
ENDBRANCH   6  17
BRANCH   6  18
ATOM     18  C   UNL     1      -5.756   0.621  26.255  0.00  0.00    +0.081 C 
ATOM     21  C   UNL     1      -6.637   1.738  26.785  0.00  0.00    +0.020 C 
ENDBRANCH   6  18
ENDBRANCH  15   6
ENDBRANCH   9  15
ENDBRANCH  16  10
BRANCH  16   7
ATOM      4  O   UNL     1       0.333  -0.292  22.124  0.00  0.00    -0.270 OA
ATOM      7  N   UNL     1       0.340   1.017  24.036  0.00  0.00    -0.310 N 
ATOM     19  C   UNL     1       0.930   0.254  23.048  0.00  0.00    +0.244 C 
ATOM     29  H   UNL     1       0.883   1.384  24.811  0.00  0.00    +0.149 HD
BRANCH  19  22
ATOM     22  C   UNL     1       2.401   0.085  23.163  0.00  0.00    +0.037 A 
ATOM     23  C   UNL     1       3.254   1.138  22.828  0.00  0.00    +0.013 A 
ATOM     24  C   UNL     1       2.931  -1.128  23.604  0.00  0.00    +0.013 A 
ATOM     25  C   UNL     1       4.635   0.977  22.935  0.00  0.00    +0.013 A 
ATOM     26  C   UNL     1       4.313  -1.288  23.711  0.00  0.00    +0.013 A 
ATOM     27  C   UNL     1       5.165  -0.235  23.376  0.00  0.00    +0.055 A 
BRANCH  27  28
ATOM      1  F   UNL     1       7.314   0.765  23.698  0.00  0.00    -0.166 F 
ATOM      2  F   UNL     1       7.195  -0.951  22.369  0.00  0.00    -0.166 F 
ATOM      3  F   UNL     1       7.021  -1.220  24.519  0.00  0.00    -0.166 F 
ATOM     28  C   UNL     1       6.642  -0.406  23.490  0.00  0.00    +0.417 C 
ENDBRANCH  27  28
ENDBRANCH  19  22
ENDBRANCH  16   7
TORSDOF 8
ENDMDL
MODEL 9
REMARK VINA RESULT:       2.2      4.281      5.565
REMARK  Name = 25389141
REMARK  10 active torsions:
REMARK  status: ('A' for Active; 'I' for Inactive)
REMARK    1  A    between atoms: N_6  and  C_15
REMARK    2  A    between atoms: N_6  and  C_17
REMARK    3  A    between atoms: N_6  and  C_18
REMARK    4  A    between atoms: N_7  and  C_16
REMARK    5  A    between atoms: C_9  and  C_15
REMARK    6  A    between atoms: C_10  and  C_16
REMARK    7  A    between atoms: C_17  and  C_20
REMARK    8  A    between atoms: C_18  and  C_21
REMARK    9  A    between atoms: C_19  and  C_22
REMARK   10  A    between atoms: C_27  and  C_28
REMARK                            x       y       z     vdW  Elec       q    Type
REMARK                         _______ _______ _______ _____ _____    ______ ____
ROOT
ATOM     16  C   UNL     1       0.404   3.028  24.542  0.00  0.00    +0.123 C 
ENDROOT
BRANCH  16  10
ATOM      5  N   UNL     1      -0.874   4.973  25.478  0.00  0.00    -0.298 NA
ATOM      8  C   UNL     1      -2.958   4.570  23.975  0.00  0.00    -0.003 C 
ATOM      9  C   UNL     1      -3.215   4.076  25.416  0.00  0.00    +0.020 C 
ATOM     10  C   UNL     1      -0.479   4.243  24.244  0.00  0.00    +0.074 C 
ATOM     11  C   UNL     1      -1.718   3.859  23.405  0.00  0.00    +0.024 C 
ATOM     12  C   UNL     1      -1.903   4.206  26.223  0.00  0.00    +0.089 C 
ATOM     13  C   UNL     1      -2.622   6.071  24.069  0.00  0.00    +0.019 C 
ATOM     14  C   UNL     1      -1.470   6.269  25.070  0.00  0.00    +0.085 C 
BRANCH   9  15
ATOM     15  C   UNL     1      -3.774   2.656  25.476  0.00  0.00    +0.089 C 
BRANCH  15   6
ATOM      6  N   UNL     1      -4.653   2.397  24.348  0.00  0.00    -0.303 NA
BRANCH   6  17
ATOM     17  C   UNL     1      -6.050   2.322  24.784  0.00  0.00    +0.081 C 
ATOM     20  C   UNL     1      -6.152   1.831  26.218  0.00  0.00    +0.020 C 
ENDBRANCH   6  17
BRANCH   6  18
ATOM     18  C   UNL     1      -4.271   1.157  23.666  0.00  0.00    +0.081 C 
ATOM     21  C   UNL     1      -3.197   1.413  22.623  0.00  0.00    +0.020 C 
ENDBRANCH   6  18
ENDBRANCH  15   6
ENDBRANCH   9  15
ENDBRANCH  16  10
BRANCH  16   7
ATOM      4  O   UNL     1      -0.377   1.244  26.651  0.00  0.00    -0.270 OA
ATOM      7  N   UNL     1      -0.351   1.794  24.400  0.00  0.00    -0.310 N 
ATOM     19  C   UNL     1      -0.677   1.003  25.483  0.00  0.00    +0.244 C 
ATOM     29  H   UNL     1      -0.571   1.503  23.453  0.00  0.00    +0.149 HD
BRANCH  19  22
ATOM     22  C   UNL     1      -1.428  -0.239  25.168  0.00  0.00    +0.037 A 
ATOM     23  C   UNL     1      -0.933  -1.131  24.215  0.00  0.00    +0.013 A 
ATOM     24  C   UNL     1      -2.628  -0.514  25.823  0.00  0.00    +0.013 A 
ATOM     25  C   UNL     1      -1.639  -2.296  23.918  0.00  0.00    +0.013 A 
ATOM     26  C   UNL     1      -3.334  -1.680  25.526  0.00  0.00    +0.013 A 
ATOM     27  C   UNL     1      -2.840  -2.571  24.573  0.00  0.00    +0.055 A 
BRANCH  27  28
ATOM      1  F   UNL     1      -4.797  -3.590  23.652  0.00  0.00    -0.166 F 
ATOM      2  F   UNL     1      -3.876  -4.557  25.367  0.00  0.00    -0.166 F 
ATOM      3  F   UNL     1      -2.927  -4.661  23.414  0.00  0.00    -0.166 F 
ATOM     28  C   UNL     1      -3.594  -3.818  24.256  0.00  0.00    +0.417 C 
ENDBRANCH  27  28
ENDBRANCH  19  22
ENDBRANCH  16   7
TORSDOF 8
ENDMDL
