MODEL 1
REMARK VINA RESULT:      -5.7      0.000      0.000
REMARK  Name = 75367088
REMARK  6 active torsions:
REMARK  status: ('A' for Active; 'I' for Inactive)
REMARK    1  A    between atoms: O_3  and  C_9
REMARK    2  A    between atoms: N_5  and  C_7
REMARK    3  A    between atoms: N_5  and  C_8
REMARK    4  A    between atoms: N_6  and  C_17
REMARK    5  A    between atoms: C_12  and  C_17
REMARK    6  A    between atoms: C_18  and  C_19
REMARK                            x       y       z     vdW  Elec       q    Type
REMARK                         _______ _______ _______ _____ _____    ______ ____
ROOT
ATOM      2  O   UNL     1      -1.414  -2.104  23.598  0.00  0.00    -0.371 OA
ATOM      7  C   UNL     1       0.098  -0.662  24.727  0.00  0.00    +0.111 C 
ATOM      9  C   UNL     1      -1.186  -0.760  25.531  0.00  0.00    +0.164 C 
ATOM     12  C   UNL     1      -1.773  -2.057  24.989  0.00  0.00    +0.165 C 
ATOM     13  C   UNL     1      -0.362  -1.152  23.364  0.00  0.00    +0.181 C 
ENDROOT
BRANCH   9   3
ATOM      3  O   UNL     1      -0.954  -0.827  26.924  0.00  0.00    -0.388 OA
ATOM     26  H   UNL     1      -1.334  -0.033  27.336  0.00  0.00    +0.210 HD
ENDBRANCH   9   3
BRANCH   7   5
ATOM      5  N   UNL     1       0.661   0.678  24.687  0.00  0.00    -0.306 NA
ATOM     25  H   UNL     1       1.209   0.803  23.836  0.00  0.00    +0.123 HD
BRANCH   5   8
ATOM      8  C   UNL     1      -0.396   1.685  24.749  0.00  0.00    +0.054 C 
ATOM     10  C   UNL     1      -0.461   2.286  26.158  0.00  0.00    +0.019 C 
ATOM     11  C   UNL     1      -0.144   2.770  23.697  0.00  0.00    +0.019 C 
ATOM     14  C   UNL     1      -1.504   3.399  26.242  0.00  0.00    +0.002 C 
ATOM     15  C   UNL     1      -1.189   3.882  23.783  0.00  0.00    +0.002 C 
ATOM     16  C   UNL     1      -1.264   4.475  25.187  0.00  0.00    +0.000 C 
ENDBRANCH   5   8
ENDBRANCH   7   5
BRANCH  12  17
ATOM     17  C   UNL     1      -3.281  -2.140  25.134  0.00  0.00    +0.138 C 
BRANCH  17   6
ATOM      4  O   UNL     1      -3.752  -0.123  23.146  0.00  0.00    -0.270 OA
ATOM      6  N   UNL     1      -3.857  -0.843  25.349  0.00  0.00    -0.309 N 
ATOM     18  C   UNL     1      -4.049   0.076  24.321  0.00  0.00    +0.244 C 
ATOM     27  H   UNL     1      -4.060  -0.589  26.310  0.00  0.00    +0.149 HD
BRANCH  18  19
ATOM      1  F   UNL     1      -6.251   5.024  25.798  0.00  0.00    -0.205 F 
ATOM     19  C   UNL     1      -4.632   1.385  24.712  0.00  0.00    +0.037 A 
ATOM     20  C   UNL     1      -5.591   1.447  25.722  0.00  0.00    +0.016 A 
ATOM     21  C   UNL     1      -4.220   2.552  24.067  0.00  0.00    +0.016 A 
ATOM     22  C   UNL     1      -6.139   2.676  26.089  0.00  0.00    +0.039 A 
ATOM     23  C   UNL     1      -4.767   3.781  24.435  0.00  0.00    +0.039 A 
ATOM     24  C   UNL     1      -5.727   3.844  25.445  0.00  0.00    +0.123 A 
ENDBRANCH  18  19
ENDBRANCH  17   6
ENDBRANCH  12  17
TORSDOF 6
ENDMDL
MODEL 2
REMARK VINA RESULT:      -4.8      2.852      5.434
REMARK  Name = 75367088
REMARK  6 active torsions:
REMARK  status: ('A' for Active; 'I' for Inactive)
REMARK    1  A    between atoms: O_3  and  C_9
REMARK    2  A    between atoms: N_5  and  C_7
REMARK    3  A    between atoms: N_5  and  C_8
REMARK    4  A    between atoms: N_6  and  C_17
REMARK    5  A    between atoms: C_12  and  C_17
REMARK    6  A    between atoms: C_18  and  C_19
REMARK                            x       y       z     vdW  Elec       q    Type
REMARK                         _______ _______ _______ _____ _____    ______ ____
ROOT
ATOM      2  O   UNL     1       0.076   3.884  24.435  0.00  0.00    -0.371 OA
ATOM      7  C   UNL     1      -2.164   4.578  24.813  0.00  0.00    +0.111 C 
ATOM      9  C   UNL     1      -1.779   3.555  25.866  0.00  0.00    +0.164 C 
ATOM     12  C   UNL     1      -0.259   3.635  25.811  0.00  0.00    +0.165 C 
ATOM     13  C   UNL     1      -1.107   4.327  23.748  0.00  0.00    +0.181 C 
ENDROOT
BRANCH   9   3
ATOM      3  O   UNL     1      -2.278   3.878  27.149  0.00  0.00    -0.388 OA
ATOM     26  H   UNL     1      -1.605   4.401  27.616  0.00  0.00    +0.210 HD
ENDBRANCH   9   3
BRANCH   7   5
ATOM      5  N   UNL     1      -3.519   4.419  24.313  0.00  0.00    -0.306 NA
ATOM     25  H   UNL     1      -3.512   4.341  23.296  0.00  0.00    +0.123 HD
BRANCH   5   8
ATOM      8  C   UNL     1      -4.152   3.238  24.897  0.00  0.00    +0.054 C 
ATOM     10  C   UNL     1      -5.479   3.630  25.556  0.00  0.00    +0.019 C 
ATOM     11  C   UNL     1      -4.364   2.173  23.816  0.00  0.00    +0.019 C 
ATOM     14  C   UNL     1      -6.207   2.407  26.111  0.00  0.00    +0.002 C 
ATOM     15  C   UNL     1      -5.093   0.951  24.375  0.00  0.00    +0.002 C 
ATOM     16  C   UNL     1      -6.410   1.338  25.041  0.00  0.00    +0.000 C 
ENDBRANCH   5   8
ENDBRANCH   7   5
BRANCH  12  17
ATOM     17  C   UNL     1       0.427   2.368  26.286  0.00  0.00    +0.138 C 
BRANCH  17   6
ATOM      4  O   UNL     1       0.190   0.735  23.936  0.00  0.00    -0.270 OA
ATOM      6  N   UNL     1      -0.421   1.222  26.121  0.00  0.00    -0.309 N 
ATOM     18  C   UNL     1      -0.472   0.486  24.940  0.00  0.00    +0.244 C 
ATOM     27  H   UNL     1      -1.047   1.005  26.889  0.00  0.00    +0.149 HD
BRANCH  18  19
ATOM      1  F   UNL     1      -4.061  -3.830  24.860  0.00  0.00    -0.205 F 
ATOM     19  C   UNL     1      -1.422  -0.656  24.920  0.00  0.00    +0.037 A 
ATOM     20  C   UNL     1      -2.574  -0.619  25.702  0.00  0.00    +0.016 A 
ATOM     21  C   UNL     1      -1.159  -1.766  24.116  0.00  0.00    +0.016 A 
ATOM     22  C   UNL     1      -3.466  -1.691  25.683  0.00  0.00    +0.039 A 
ATOM     23  C   UNL     1      -2.052  -2.839  24.096  0.00  0.00    +0.039 A 
ATOM     24  C   UNL     1      -3.205  -2.801  24.880  0.00  0.00    +0.123 A 
ENDBRANCH  18  19
ENDBRANCH  17   6
ENDBRANCH  12  17
TORSDOF 6
ENDMDL
MODEL 3
REMARK VINA RESULT:      -4.4      2.613      4.937
REMARK  Name = 75367088
REMARK  6 active torsions:
REMARK  status: ('A' for Active; 'I' for Inactive)
REMARK    1  A    between atoms: O_3  and  C_9
REMARK    2  A    between atoms: N_5  and  C_7
REMARK    3  A    between atoms: N_5  and  C_8
REMARK    4  A    between atoms: N_6  and  C_17
REMARK    5  A    between atoms: C_12  and  C_17
REMARK    6  A    between atoms: C_18  and  C_19
REMARK                            x       y       z     vdW  Elec       q    Type
REMARK                         _______ _______ _______ _____ _____    ______ ____
ROOT
ATOM      2  O   UNL     1       0.137   3.490  23.633  0.00  0.00    -0.371 OA
ATOM      7  C   UNL     1      -1.132   4.117  25.540  0.00  0.00    +0.111 C 
ATOM      9  C   UNL     1      -0.674   2.679  25.701  0.00  0.00    +0.164 C 
ATOM     12  C   UNL     1       0.498   2.633  24.729  0.00  0.00    +0.165 C 
ATOM     13  C   UNL     1      -0.963   4.320  24.042  0.00  0.00    +0.181 C 
ENDROOT
BRANCH   9   3
ATOM      3  O   UNL     1      -0.274   2.379  27.024  0.00  0.00    -0.388 OA
ATOM     26  H   UNL     1       0.661   2.112  27.008  0.00  0.00    +0.210 HD
ENDBRANCH   9   3
BRANCH   7   5
ATOM      5  N   UNL     1      -2.494   4.350  25.992  0.00  0.00    -0.306 NA
ATOM     25  H   UNL     1      -2.839   5.237  25.627  0.00  0.00    +0.123 HD
BRANCH   5   8
ATOM      8  C   UNL     1      -3.374   3.262  25.568  0.00  0.00    +0.054 C 
ATOM     10  C   UNL     1      -4.592   3.185  26.496  0.00  0.00    +0.019 C 
ATOM     11  C   UNL     1      -3.801   3.477  24.112  0.00  0.00    +0.019 C 
ATOM     14  C   UNL     1      -5.573   2.108  26.037  0.00  0.00    +0.002 C 
ATOM     15  C   UNL     1      -4.784   2.399  23.656  0.00  0.00    +0.002 C 
ATOM     16  C   UNL     1      -5.992   2.311  24.584  0.00  0.00    +0.000 C 
ENDBRANCH   5   8
ENDBRANCH   7   5
BRANCH  12  17
ATOM     17  C   UNL     1       0.797   1.238  24.215  0.00  0.00    +0.138 C 
BRANCH  17   6
ATOM      4  O   UNL     1      -0.407  -0.611  26.052  0.00  0.00    -0.270 OA
ATOM      6  N   UNL     1      -0.408   0.487  24.009  0.00  0.00    -0.309 N 
ATOM     18  C   UNL     1      -0.921  -0.391  24.959  0.00  0.00    +0.244 C 
ATOM     27  H   UNL     1      -0.845   0.570  23.097  0.00  0.00    +0.149 HD
BRANCH  18  19
ATOM      1  F   UNL     1      -5.614  -3.123  23.534  0.00  0.00    -0.205 F 
ATOM     19  C   UNL     1      -2.163  -1.114  24.583  0.00  0.00    +0.037 A 
ATOM     20  C   UNL     1      -3.321  -0.399  24.282  0.00  0.00    +0.016 A 
ATOM     21  C   UNL     1      -2.170  -2.508  24.530  0.00  0.00    +0.016 A 
ATOM     22  C   UNL     1      -4.488  -1.077  23.928  0.00  0.00    +0.039 A 
ATOM     23  C   UNL     1      -3.336  -3.186  24.175  0.00  0.00    +0.039 A 
ATOM     24  C   UNL     1      -4.495  -2.471  23.875  0.00  0.00    +0.123 A 
ENDBRANCH  18  19
ENDBRANCH  17   6
ENDBRANCH  12  17
TORSDOF 6
ENDMDL
MODEL 4
REMARK VINA RESULT:      -3.5      3.246      6.479
REMARK  Name = 75367088
REMARK  6 active torsions:
REMARK  status: ('A' for Active; 'I' for Inactive)
REMARK    1  A    between atoms: O_3  and  C_9
REMARK    2  A    between atoms: N_5  and  C_7
REMARK    3  A    between atoms: N_5  and  C_8
REMARK    4  A    between atoms: N_6  and  C_17
REMARK    5  A    between atoms: C_12  and  C_17
REMARK    6  A    between atoms: C_18  and  C_19
REMARK                            x       y       z     vdW  Elec       q    Type
REMARK                         _______ _______ _______ _____ _____    ______ ____
ROOT
ATOM      2  O   UNL     1      -3.384   3.780  23.540  0.00  0.00    -0.371 OA
ATOM      7  C   UNL     1      -4.837   2.613  25.012  0.00  0.00    +0.111 C 
ATOM      9  C   UNL     1      -3.655   3.145  25.802  0.00  0.00    +0.164 C 
ATOM     12  C   UNL     1      -3.159   4.251  24.879  0.00  0.00    +0.165 C 
ATOM     13  C   UNL     1      -4.300   2.673  23.590  0.00  0.00    +0.181 C 
ENDROOT
BRANCH   9   3
ATOM      3  O   UNL     1      -4.027   3.644  27.071  0.00  0.00    -0.388 OA
ATOM     26  H   UNL     1      -4.361   4.551  26.958  0.00  0.00    +0.210 HD
ENDBRANCH   9   3
BRANCH   7   5
ATOM      5  N   UNL     1      -5.247   1.275  25.405  0.00  0.00    -0.306 NA
ATOM     25  H   UNL     1      -6.180   1.073  25.045  0.00  0.00    +0.123 HD
BRANCH   5   8
ATOM      8  C   UNL     1      -4.299   0.277  24.914  0.00  0.00    +0.054 C 
ATOM     10  C   UNL     1      -3.516  -0.320  26.089  0.00  0.00    +0.019 C 
ATOM     11  C   UNL     1      -5.046  -0.812  24.136  0.00  0.00    +0.019 C 
ATOM     14  C   UNL     1      -2.568  -1.424  25.622  0.00  0.00    +0.002 C 
ATOM     15  C   UNL     1      -4.095  -1.915  23.671  0.00  0.00    +0.002 C 
ATOM     16  C   UNL     1      -3.306  -2.504  24.836  0.00  0.00    +0.000 C 
ENDBRANCH   5   8
ENDBRANCH   7   5
BRANCH  12  17
ATOM     17  C   UNL     1      -1.690   4.578  25.070  0.00  0.00    +0.138 C 
BRANCH  17   6
ATOM      4  O   UNL     1      -0.694   2.097  26.116  0.00  0.00    -0.270 OA
ATOM      6  N   UNL     1      -0.852   3.635  24.386  0.00  0.00    -0.309 N 
ATOM     18  C   UNL     1      -0.414   2.451  24.975  0.00  0.00    +0.244 C 
ATOM     27  H   UNL     1      -0.526   3.901  23.463  0.00  0.00    +0.149 HD
BRANCH  18  19
ATOM      1  F   UNL     1       2.930  -0.789  21.840  0.00  0.00    -0.205 F 
ATOM     19  C   UNL     1       0.471   1.594  24.144  0.00  0.00    +0.037 A 
ATOM     20  C   UNL     1       1.770   2.008  23.856  0.00  0.00    +0.016 A 
ATOM     21  C   UNL     1       0.001   0.375  23.654  0.00  0.00    +0.016 A 
ATOM     22  C   UNL     1       2.602   1.203  23.077  0.00  0.00    +0.039 A 
ATOM     23  C   UNL     1       0.833  -0.430  22.876  0.00  0.00    +0.039 A 
ATOM     24  C   UNL     1       2.133  -0.016  22.587  0.00  0.00    +0.123 A 
ENDBRANCH  18  19
ENDBRANCH  17   6
ENDBRANCH  12  17
TORSDOF 6
ENDMDL
MODEL 5
REMARK VINA RESULT:      -3.3      2.883      5.124
REMARK  Name = 75367088
REMARK  6 active torsions:
REMARK  status: ('A' for Active; 'I' for Inactive)
REMARK    1  A    between atoms: O_3  and  C_9
REMARK    2  A    between atoms: N_5  and  C_7
REMARK    3  A    between atoms: N_5  and  C_8
REMARK    4  A    between atoms: N_6  and  C_17
REMARK    5  A    between atoms: C_12  and  C_17
REMARK    6  A    between atoms: C_18  and  C_19
REMARK                            x       y       z     vdW  Elec       q    Type
REMARK                         _______ _______ _______ _____ _____    ______ ____
ROOT
ATOM      2  O   UNL     1      -4.118   4.117  26.989  0.00  0.00    -0.371 OA
ATOM      7  C   UNL     1      -2.302   4.525  25.514  0.00  0.00    +0.111 C 
ATOM      9  C   UNL     1      -3.444   3.901  24.733  0.00  0.00    +0.164 C 
ATOM     12  C   UNL     1      -4.624   4.202  25.647  0.00  0.00    +0.165 C 
ATOM     13  C   UNL     1      -2.682   4.164  26.942  0.00  0.00    +0.181 C 
ENDROOT
BRANCH   9   3
ATOM      3  O   UNL     1      -3.608   4.477  23.452  0.00  0.00    -0.388 OA
ATOM     26  H   UNL     1      -3.313   3.832  22.786  0.00  0.00    +0.210 HD
ENDBRANCH   9   3
BRANCH   7   5
ATOM      5  N   UNL     1      -0.992   4.025  25.134  0.00  0.00    -0.306 NA
ATOM     25  H   UNL     1      -0.337   4.129  25.909  0.00  0.00    +0.123 HD
BRANCH   5   8
ATOM      8  C   UNL     1      -1.069   2.621  24.736  0.00  0.00    +0.054 C 
ATOM     10  C   UNL     1      -0.221   2.388  23.480  0.00  0.00    +0.019 C 
ATOM     11  C   UNL     1      -0.606   1.726  25.890  0.00  0.00    +0.019 C 
ATOM     14  C   UNL     1      -0.216   0.914  23.078  0.00  0.00    +0.002 C 
ATOM     15  C   UNL     1      -0.601   0.252  25.485  0.00  0.00    +0.002 C 
ATOM     16  C   UNL     1       0.233   0.018  24.229  0.00  0.00    +0.000 C 
ENDBRANCH   5   8
ENDBRANCH   7   5
BRANCH  12  17
ATOM     17  C   UNL     1      -5.781   3.236  25.471  0.00  0.00    +0.138 C 
BRANCH  17   6
ATOM      4  O   UNL     1      -4.256   1.863  23.462  0.00  0.00    -0.270 OA
ATOM      6  N   UNL     1      -5.335   1.873  25.516  0.00  0.00    -0.309 N 
ATOM     18  C   UNL     1      -4.597   1.287  24.492  0.00  0.00    +0.244 C 
ATOM     27  H   UNL     1      -5.644   1.320  26.309  0.00  0.00    +0.149 HD
BRANCH  18  19
ATOM      1  F   UNL     1      -3.232  -4.113  25.195  0.00  0.00    -0.205 F 
ATOM     19  C   UNL     1      -4.235  -0.142  24.678  0.00  0.00    +0.037 A 
ATOM     20  C   UNL     1      -3.703  -0.573  25.892  0.00  0.00    +0.016 A 
ATOM     21  C   UNL     1      -4.428  -1.051  23.637  0.00  0.00    +0.016 A 
ATOM     22  C   UNL     1      -3.363  -1.914  26.067  0.00  0.00    +0.039 A 
ATOM     23  C   UNL     1      -4.090  -2.393  23.813  0.00  0.00    +0.039 A 
ATOM     24  C   UNL     1      -3.556  -2.824  25.028  0.00  0.00    +0.123 A 
ENDBRANCH  18  19
ENDBRANCH  17   6
ENDBRANCH  12  17
TORSDOF 6
ENDMDL
MODEL 6
REMARK VINA RESULT:      -3.0      2.008      3.222
REMARK  Name = 75367088
REMARK  6 active torsions:
REMARK  status: ('A' for Active; 'I' for Inactive)
REMARK    1  A    between atoms: O_3  and  C_9
REMARK    2  A    between atoms: N_5  and  C_7
REMARK    3  A    between atoms: N_5  and  C_8
REMARK    4  A    between atoms: N_6  and  C_17
REMARK    5  A    between atoms: C_12  and  C_17
REMARK    6  A    between atoms: C_18  and  C_19
REMARK                            x       y       z     vdW  Elec       q    Type
REMARK                         _______ _______ _______ _____ _____    ______ ____
ROOT
ATOM      2  O   UNL     1      -1.497  -2.789  23.934  0.00  0.00    -0.371 OA
ATOM      7  C   UNL     1       0.078  -1.028  24.172  0.00  0.00    +0.111 C 
ATOM      9  C   UNL     1      -1.101  -0.765  25.091  0.00  0.00    +0.164 C 
ATOM     12  C   UNL     1      -1.696  -2.161  25.212  0.00  0.00    +0.165 C 
ATOM     13  C   UNL     1      -0.517  -2.035  23.200  0.00  0.00    +0.181 C 
ENDROOT
BRANCH   9   3
ATOM      3  O   UNL     1      -0.708  -0.248  26.347  0.00  0.00    -0.388 OA
ATOM     26  H   UNL     1      -0.092   0.489  26.197  0.00  0.00    +0.210 HD
ENDBRANCH   9   3
BRANCH   7   5
ATOM      5  N   UNL     1       0.581   0.166  23.511  0.00  0.00    -0.306 NA
ATOM     25  H   UNL     1       0.564   0.957  24.154  0.00  0.00    +0.123 HD
BRANCH   5   8
ATOM      8  C   UNL     1       1.942  -0.048  23.022  0.00  0.00    +0.054 C 
ATOM     10  C   UNL     1       2.697   1.286  22.986  0.00  0.00    +0.019 C 
ATOM     11  C   UNL     1       2.661  -1.066  23.913  0.00  0.00    +0.019 C 
ATOM     14  C   UNL     1       4.149   1.091  22.552  0.00  0.00    +0.002 C 
ATOM     15  C   UNL     1       4.113  -1.258  23.478  0.00  0.00    +0.002 C 
ATOM     16  C   UNL     1       4.866   0.068  23.429  0.00  0.00    +0.000 C 
ENDBRANCH   5   8
ENDBRANCH   7   5
BRANCH  12  17
ATOM     17  C   UNL     1      -3.173  -2.156  25.558  0.00  0.00    +0.138 C 
BRANCH  17   6
ATOM      4  O   UNL     1      -4.163  -0.508  23.425  0.00  0.00    -0.270 OA
ATOM      6  N   UNL     1      -3.678  -0.818  25.673  0.00  0.00    -0.309 N 
ATOM     18  C   UNL     1      -4.139  -0.090  24.580  0.00  0.00    +0.244 C 
ATOM     27  H   UNL     1      -3.621  -0.388  26.590  0.00  0.00    +0.149 HD
BRANCH  18  19
ATOM      1  F   UNL     1      -5.900   5.134  25.640  0.00  0.00    -0.205 F 
ATOM     19  C   UNL     1      -4.605   1.292  24.861  0.00  0.00    +0.037 A 
ATOM     20  C   UNL     1      -3.853   2.383  24.425  0.00  0.00    +0.016 A 
ATOM     21  C   UNL     1      -5.794   1.499  25.561  0.00  0.00    +0.016 A 
ATOM     22  C   UNL     1      -4.290   3.681  24.689  0.00  0.00    +0.039 A 
ATOM     23  C   UNL     1      -6.232   2.797  25.823  0.00  0.00    +0.039 A 
ATOM     24  C   UNL     1      -5.479   3.888  25.388  0.00  0.00    +0.123 A 
ENDBRANCH  18  19
ENDBRANCH  17   6
ENDBRANCH  12  17
TORSDOF 6
ENDMDL
MODEL 7
REMARK VINA RESULT:      -2.9      2.906      5.351
REMARK  Name = 75367088
REMARK  6 active torsions:
REMARK  status: ('A' for Active; 'I' for Inactive)
REMARK    1  A    between atoms: O_3  and  C_9
REMARK    2  A    between atoms: N_5  and  C_7
REMARK    3  A    between atoms: N_5  and  C_8
REMARK    4  A    between atoms: N_6  and  C_17
REMARK    5  A    between atoms: C_12  and  C_17
REMARK    6  A    between atoms: C_18  and  C_19
REMARK                            x       y       z     vdW  Elec       q    Type
REMARK                         _______ _______ _______ _____ _____    ______ ____
ROOT
ATOM      2  O   UNL     1      -6.163   1.683  26.049  0.00  0.00    -0.371 OA
ATOM      7  C   UNL     1      -5.042   3.682  25.428  0.00  0.00    +0.111 C 
ATOM      9  C   UNL     1      -4.607   2.562  24.501  0.00  0.00    +0.164 C 
ATOM     12  C   UNL     1      -5.752   1.574  24.676  0.00  0.00    +0.165 C 
ATOM     13  C   UNL     1      -5.623   2.899  26.594  0.00  0.00    +0.181 C 
ENDROOT
BRANCH   9   3
ATOM      3  O   UNL     1      -4.476   2.985  23.158  0.00  0.00    -0.388 OA
ATOM     26  H   UNL     1      -5.366   3.072  22.776  0.00  0.00    +0.210 HD
ENDBRANCH   9   3
BRANCH   7   5
ATOM      5  N   UNL     1      -3.959   4.567  25.824  0.00  0.00    -0.306 NA
ATOM     25  H   UNL     1      -3.950   4.680  26.837  0.00  0.00    +0.123 HD
BRANCH   5   8
ATOM      8  C   UNL     1      -2.671   4.043  25.372  0.00  0.00    +0.054 C 
ATOM     10  C   UNL     1      -1.741   5.201  24.993  0.00  0.00    +0.019 C 
ATOM     11  C   UNL     1      -2.050   3.172  26.469  0.00  0.00    +0.019 C 
ATOM     14  C   UNL     1      -0.358   4.694  24.588  0.00  0.00    +0.002 C 
ATOM     15  C   UNL     1      -0.666   2.667  26.062  0.00  0.00    +0.002 C 
ATOM     16  C   UNL     1       0.259   3.816  25.673  0.00  0.00    +0.000 C 
ENDBRANCH   5   8
ENDBRANCH   7   5
BRANCH  12  17
ATOM     17  C   UNL     1      -5.361   0.141  24.369  0.00  0.00    +0.138 C 
BRANCH  17   6
ATOM      4  O   UNL     1      -3.230  -0.724  26.088  0.00  0.00    -0.270 OA
ATOM      6  N   UNL     1      -3.971   0.040  24.027  0.00  0.00    -0.309 N 
ATOM     18  C   UNL     1      -3.002  -0.390  24.929  0.00  0.00    +0.244 C 
ATOM     27  H   UNL     1      -3.706   0.368  23.104  0.00  0.00    +0.149 HD
BRANCH  18  19
ATOM      1  F   UNL     1       2.282  -0.474  23.035  0.00  0.00    -0.205 F 
ATOM     19  C   UNL     1      -1.603  -0.412  24.428  0.00  0.00    +0.037 A 
ATOM     20  C   UNL     1      -0.758  -1.466  24.770  0.00  0.00    +0.016 A 
ATOM     21  C   UNL     1      -1.138   0.622  23.616  0.00  0.00    +0.016 A 
ATOM     22  C   UNL     1       0.555  -1.487  24.300  0.00  0.00    +0.039 A 
ATOM     23  C   UNL     1       0.176   0.601  23.145  0.00  0.00    +0.039 A 
ATOM     24  C   UNL     1       1.022  -0.454  23.488  0.00  0.00    +0.123 A 
ENDBRANCH  18  19
ENDBRANCH  17   6
ENDBRANCH  12  17
TORSDOF 6
ENDMDL
MODEL 8
REMARK VINA RESULT:      -2.3      3.928      6.815
REMARK  Name = 75367088
REMARK  6 active torsions:
REMARK  status: ('A' for Active; 'I' for Inactive)
REMARK    1  A    between atoms: O_3  and  C_9
REMARK    2  A    between atoms: N_5  and  C_7
REMARK    3  A    between atoms: N_5  and  C_8
REMARK    4  A    between atoms: N_6  and  C_17
REMARK    5  A    between atoms: C_12  and  C_17
REMARK    6  A    between atoms: C_18  and  C_19
REMARK                            x       y       z     vdW  Elec       q    Type
REMARK                         _______ _______ _______ _____ _____    ______ ____
ROOT
ATOM      2  O   UNL     1      -0.521   0.322  25.613  0.00  0.00    -0.371 OA
ATOM      7  C   UNL     1      -2.454   1.415  24.769  0.00  0.00    +0.111 C 
ATOM      9  C   UNL     1      -2.299   0.075  24.072  0.00  0.00    +0.164 C 
ATOM     12  C   UNL     1      -1.405  -0.666  25.057  0.00  0.00    +0.165 C 
ATOM     13  C   UNL     1      -1.056   1.626  25.329  0.00  0.00    +0.181 C 
ENDROOT
BRANCH   9   3
ATOM      3  O   UNL     1      -3.534  -0.586  23.879  0.00  0.00    -0.388 OA
ATOM     26  H   UNL     1      -3.701  -0.649  22.923  0.00  0.00    +0.210 HD
ENDBRANCH   9   3
BRANCH   7   5
ATOM      5  N   UNL     1      -2.878   2.488  23.885  0.00  0.00    -0.306 NA
ATOM     25  H   UNL     1      -2.793   2.195  22.911  0.00  0.00    +0.123 HD
BRANCH   5   8
ATOM      8  C   UNL     1      -4.257   2.878  24.168  0.00  0.00    +0.054 C 
ATOM     10  C   UNL     1      -5.054   1.660  24.651  0.00  0.00    +0.019 C 
ATOM     11  C   UNL     1      -4.277   4.000  25.212  0.00  0.00    +0.019 C 
ATOM     14  C   UNL     1      -6.483   2.046  25.030  0.00  0.00    +0.002 C 
ATOM     15  C   UNL     1      -5.707   4.383  25.590  0.00  0.00    +0.002 C 
ATOM     16  C   UNL     1      -6.507   3.172  26.060  0.00  0.00    +0.000 C 
ENDBRANCH   5   8
ENDBRANCH   7   5
BRANCH  12  17
ATOM     17  C   UNL     1      -0.595  -1.776  24.414  0.00  0.00    +0.138 C 
BRANCH  17   6
ATOM      4  O   UNL     1       0.631  -0.243  22.319  0.00  0.00    -0.270 OA
ATOM      6  N   UNL     1       0.791  -1.420  24.312  0.00  0.00    -0.309 N 
ATOM     18  C   UNL     1       1.301  -0.671  23.255  0.00  0.00    +0.244 C 
ATOM     27  H   UNL     1       1.412  -1.802  25.017  0.00  0.00    +0.149 HD
BRANCH  18  19
ATOM      1  F   UNL     1       6.826   0.316  23.356  0.00  0.00    -0.205 F 
ATOM     19  C   UNL     1       2.763  -0.409  23.281  0.00  0.00    +0.037 A 
ATOM     20  C   UNL     1       3.264   0.799  22.800  0.00  0.00    +0.016 A 
ATOM     21  C   UNL     1       3.634  -1.374  23.788  0.00  0.00    +0.016 A 
ATOM     22  C   UNL     1       4.636   1.045  22.824  0.00  0.00    +0.039 A 
ATOM     23  C   UNL     1       5.007  -1.128  23.814  0.00  0.00    +0.039 A 
ATOM     24  C   UNL     1       5.508   0.081  23.331  0.00  0.00    +0.123 A 
ENDBRANCH  18  19
ENDBRANCH  17   6
ENDBRANCH  12  17
TORSDOF 6
ENDMDL
MODEL 9
REMARK VINA RESULT:      -2.1      2.962      5.382
REMARK  Name = 75367088
REMARK  6 active torsions:
REMARK  status: ('A' for Active; 'I' for Inactive)
REMARK    1  A    between atoms: O_3  and  C_9
REMARK    2  A    between atoms: N_5  and  C_7
REMARK    3  A    between atoms: N_5  and  C_8
REMARK    4  A    between atoms: N_6  and  C_17
REMARK    5  A    between atoms: C_12  and  C_17
REMARK    6  A    between atoms: C_18  and  C_19
REMARK                            x       y       z     vdW  Elec       q    Type
REMARK                         _______ _______ _______ _____ _____    ______ ____
ROOT
ATOM      2  O   UNL     1      -4.154  -0.740  26.138  0.00  0.00    -0.371 OA
ATOM      7  C   UNL     1      -4.582   0.798  24.380  0.00  0.00    +0.111 C 
ATOM      9  C   UNL     1      -3.562  -0.222  23.907  0.00  0.00    +0.164 C 
ATOM     12  C   UNL     1      -3.810  -1.361  24.888  0.00  0.00    +0.165 C 
ATOM     13  C   UNL     1      -4.495   0.635  25.889  0.00  0.00    +0.181 C 
ENDROOT
BRANCH   9   3
ATOM      3  O   UNL     1      -3.770  -0.623  22.568  0.00  0.00    -0.388 OA
ATOM     26  H   UNL     1      -3.060  -0.248  22.021  0.00  0.00    +0.210 HD
ENDBRANCH   9   3
BRANCH   7   5
ATOM      5  N   UNL     1      -4.298   2.154  23.940  0.00  0.00    -0.306 NA
ATOM     25  H   UNL     1      -5.110   2.752  24.095  0.00  0.00    +0.123 HD
BRANCH   5   8
ATOM      8  C   UNL     1      -3.141   2.697  24.650  0.00  0.00    +0.054 C 
ATOM     10  C   UNL     1      -1.929   2.742  23.711  0.00  0.00    +0.019 C 
ATOM     11  C   UNL     1      -3.470   4.091  25.194  0.00  0.00    +0.019 C 
ATOM     14  C   UNL     1      -0.719   3.376  24.396  0.00  0.00    +0.002 C 
ATOM     15  C   UNL     1      -2.258   4.722  25.878  0.00  0.00    +0.002 C 
ATOM     16  C   UNL     1      -1.046   4.759  24.951  0.00  0.00    +0.000 C 
ENDBRANCH   5   8
ENDBRANCH   7   5
BRANCH  12  17
ATOM     17  C   UNL     1      -2.605  -2.263  25.076  0.00  0.00    +0.138 C 
BRANCH  17   6
ATOM      4  O   UNL     1      -1.000   0.025  25.732  0.00  0.00    -0.270 OA
ATOM      6  N   UNL     1      -1.469  -1.777  24.348  0.00  0.00    -0.309 N 
ATOM     18  C   UNL     1      -0.746  -0.654  24.740  0.00  0.00    +0.244 C 
ATOM     27  H   UNL     1      -1.249  -2.252  23.479  0.00  0.00    +0.149 HD
BRANCH  18  19
ATOM      1  F   UNL     1       3.537   0.823  21.426  0.00  0.00    -0.205 F 
ATOM     19  C   UNL     1       0.388  -0.264  23.863  0.00  0.00    +0.037 A 
ATOM     20  C   UNL     1       0.599  -0.932  22.659  0.00  0.00    +0.016 A 
ATOM     21  C   UNL     1       1.241   0.772  24.246  0.00  0.00    +0.016 A 
ATOM     22  C   UNL     1       1.663  -0.566  21.835  0.00  0.00    +0.039 A 
ATOM     23  C   UNL     1       2.305   1.139  23.422  0.00  0.00    +0.039 A 
ATOM     24  C   UNL     1       2.516   0.470  22.217  0.00  0.00    +0.123 A 
ENDBRANCH  18  19
ENDBRANCH  17   6
ENDBRANCH  12  17
TORSDOF 6
ENDMDL
MODEL 10
REMARK VINA RESULT:      -2.0      1.487      4.278
REMARK  Name = 75367088
REMARK  6 active torsions:
REMARK  status: ('A' for Active; 'I' for Inactive)
REMARK    1  A    between atoms: O_3  and  C_9
REMARK    2  A    between atoms: N_5  and  C_7
REMARK    3  A    between atoms: N_5  and  C_8
REMARK    4  A    between atoms: N_6  and  C_17
REMARK    5  A    between atoms: C_12  and  C_17
REMARK    6  A    between atoms: C_18  and  C_19
REMARK                            x       y       z     vdW  Elec       q    Type
REMARK                         _______ _______ _______ _____ _____    ______ ____
ROOT
ATOM      2  O   UNL     1      -1.912  -2.285  25.355  0.00  0.00    -0.371 OA
ATOM      7  C   UNL     1      -3.946  -1.483  24.428  0.00  0.00    +0.111 C 
ATOM      9  C   UNL     1      -2.788  -0.707  23.827  0.00  0.00    +0.164 C 
ATOM     12  C   UNL     1      -1.628  -1.657  24.094  0.00  0.00    +0.165 C 
ATOM     13  C   UNL     1      -3.299  -2.075  25.670  0.00  0.00    +0.181 C 
ENDROOT
BRANCH   9   3
ATOM      3  O   UNL     1      -2.957  -0.456  22.446  0.00  0.00    -0.388 OA
ATOM     26  H   UNL     1      -2.191  -0.822  21.972  0.00  0.00    +0.210 HD
ENDBRANCH   9   3
BRANCH   7   5
ATOM      5  N   UNL     1      -5.105  -0.660  24.731  0.00  0.00    -0.306 NA
ATOM     25  H   UNL     1      -5.620  -1.055  25.518  0.00  0.00    +0.123 HD
BRANCH   5   8
ATOM      8  C   UNL     1      -4.702   0.710  25.038  0.00  0.00    +0.054 C 
ATOM     10  C   UNL     1      -4.514   1.502  23.739  0.00  0.00    +0.019 C 
ATOM     11  C   UNL     1      -5.748   1.371  25.942  0.00  0.00    +0.019 C 
ATOM     14  C   UNL     1      -4.166   2.962  24.022  0.00  0.00    +0.002 C 
ATOM     15  C   UNL     1      -5.397   2.832  26.223  0.00  0.00    +0.002 C 
ATOM     16  C   UNL     1      -5.199   3.621  24.932  0.00  0.00    +0.000 C 
ENDBRANCH   5   8
ENDBRANCH   7   5
BRANCH  12  17
ATOM     17  C   UNL     1      -0.283  -0.959  24.160  0.00  0.00    +0.138 C 
BRANCH  17   6
ATOM      4  O   UNL     1      -0.915   0.631  26.465  0.00  0.00    -0.270 OA
ATOM      6  N   UNL     1      -0.436   0.467  24.201  0.00  0.00    -0.309 N 
ATOM     18  C   UNL     1      -0.745   1.158  25.370  0.00  0.00    +0.244 C 
ATOM     27  H   UNL     1      -0.378   0.957  23.315  0.00  0.00    +0.149 HD
BRANCH  18  19
ATOM      1  F   UNL     1      -1.315   6.722  24.883  0.00  0.00    -0.205 F 
ATOM     19  C   UNL     1      -0.897   2.631  25.241  0.00  0.00    +0.037 A 
ATOM     20  C   UNL     1      -1.730   3.324  26.116  0.00  0.00    +0.016 A 
ATOM     21  C   UNL     1      -0.204   3.318  24.243  0.00  0.00    +0.016 A 
ATOM     22  C   UNL     1      -1.873   4.707  25.995  0.00  0.00    +0.039 A 
ATOM     23  C   UNL     1      -0.345   4.701  24.124  0.00  0.00    +0.039 A 
ATOM     24  C   UNL     1      -1.180   5.395  24.999  0.00  0.00    +0.123 A 
ENDBRANCH  18  19
ENDBRANCH  17   6
ENDBRANCH  12  17
TORSDOF 6
ENDMDL
