MODEL 1
REMARK VINA RESULT:       8.4      0.000      0.000
REMARK  Name = 11884018
REMARK  9 active torsions:
REMARK  status: ('A' for Active; 'I' for Inactive)
REMARK    1  A    between atoms: O_3  and  C_13
REMARK    2  A    between atoms: O_3  and  C_17
REMARK    3  A    between atoms: O_6  and  C_24
REMARK    4  A    between atoms: O_6  and  C_30
REMARK    5  A    between atoms: O_7  and  C_29
REMARK    6  A    between atoms: O_7  and  C_31
REMARK    7  A    between atoms: N_8  and  C_12
REMARK    8  A    between atoms: N_9  and  C_21
REMARK    9  A    between atoms: C_16  and  C_18
REMARK                            x       y       z     vdW  Elec       q    Type
REMARK                         _______ _______ _______ _____ _____    ______ ____
ROOT
ATOM      1  O   UNL     1      -3.273   3.330  26.043  0.00  0.00    -0.368 OA
ATOM      2  O   UNL     1      -5.993   4.521  25.277  0.00  0.00    -0.368 OA
ATOM     10  C   UNL     1      -5.353   3.283  24.906  0.00  0.00    +0.173 C 
ATOM     11  C   UNL     1      -3.874   3.578  24.761  0.00  0.00    +0.192 C 
ATOM     12  C   UNL     1      -5.416   2.301  26.053  0.00  0.00    +0.130 C 
ATOM     13  C   UNL     1      -3.866   5.047  24.415  0.00  0.00    +0.235 C 
ATOM     14  C   UNL     1      -4.247   2.742  26.918  0.00  0.00    +0.185 C 
ATOM     15  C   UNL     1      -5.018   5.575  25.240  0.00  0.00    +0.207 C 
ENDROOT
BRANCH  12   8
ATOM      4  O   UNL     1      -2.928   0.921  25.669  0.00  0.00    -0.270 OA
ATOM      8  N   UNL     1      -5.246   0.945  25.592  0.00  0.00    -0.304 N 
ATOM     16  C   UNL     1      -3.997   0.362  25.436  0.00  0.00    +0.244 C 
ATOM     37  H   UNL     1      -6.078   0.457  25.278  0.00  0.00    +0.149 HD
BRANCH  16  18
ATOM     18  C   UNL     1      -3.990  -1.034  24.927  0.00  0.00    +0.037 A 
ATOM     19  C   UNL     1      -3.286  -2.024  25.614  0.00  0.00    +0.016 A 
ATOM     20  C   UNL     1      -4.687  -1.355  23.762  0.00  0.00    +0.016 A 
ATOM     22  C   UNL     1      -3.279  -3.334  25.134  0.00  0.00    +0.046 A 
ATOM     23  C   UNL     1      -4.680  -2.664  23.283  0.00  0.00    +0.046 A 
ATOM     24  C   UNL     1      -3.977  -3.655  23.970  0.00  0.00    +0.120 A 
BRANCH  24   6
ATOM      6  O   UNL     1      -3.968  -4.933  23.501  0.00  0.00    -0.495 OA
ATOM     30  C   UNL     1      -3.189  -5.191  22.334  0.00  0.00    +0.277 C 
ENDBRANCH  24   6
ENDBRANCH  16  18
ENDBRANCH  12   8
BRANCH  13   3
ATOM      3  O   UNL     1      -2.652   5.693  24.725  0.00  0.00    -0.442 OA
BRANCH   3  17
ATOM      5  O   UNL     1      -0.389   5.392  24.860  0.00  0.00    -0.226 OA
ATOM      9  N   UNL     1      -1.812   3.696  24.099  0.00  0.00    -0.251 N 
ATOM     17  C   UNL     1      -1.498   4.951  24.583  0.00  0.00    +0.405 C 
ATOM     38  H   UNL     1      -2.799   3.514  23.928  0.00  0.00    +0.158 HD
BRANCH   9  21
ATOM     21  C   UNL     1      -0.932   2.628  23.810  0.00  0.00    +0.037 A 
ATOM     25  C   UNL     1      -1.369   1.554  23.035  0.00  0.00    +0.027 A 
ATOM     26  C   UNL     1       0.373   2.648  24.300  0.00  0.00    +0.027 A 
ATOM     27  C   UNL     1      -0.500   0.501  22.749  0.00  0.00    +0.048 A 
ATOM     28  C   UNL     1       1.242   1.594  24.016  0.00  0.00    +0.048 A 
ATOM     29  C   UNL     1       0.805   0.520  23.240  0.00  0.00    +0.129 A 
BRANCH  29   7
ATOM      7  O   UNL     1       1.652  -0.509  22.964  0.00  0.00    -0.456 OA
BRANCH   7  31
ATOM     31  C   UNL     1       3.004  -0.307  23.185  0.00  0.00    +0.128 A 
ATOM     32  C   UNL     1       3.764  -1.298  23.810  0.00  0.00    +0.046 A 
ATOM     33  C   UNL     1       3.607   0.885  22.786  0.00  0.00    +0.046 A 
ATOM     34  C   UNL     1       5.125  -1.095  24.033  0.00  0.00    +0.004 A 
ATOM     35  C   UNL     1       4.969   1.088  23.010  0.00  0.00    +0.004 A 
ATOM     36  C   UNL     1       5.728   0.097  23.634  0.00  0.00    +0.000 A 
ENDBRANCH   7  31
ENDBRANCH  29   7
ENDBRANCH   9  21
ENDBRANCH   3  17
ENDBRANCH  13   3
TORSDOF 8
ENDMDL
MODEL 2
REMARK VINA RESULT:       9.4      2.905      5.492
REMARK  Name = 11884018
REMARK  9 active torsions:
REMARK  status: ('A' for Active; 'I' for Inactive)
REMARK    1  A    between atoms: O_3  and  C_13
REMARK    2  A    between atoms: O_3  and  C_17
REMARK    3  A    between atoms: O_6  and  C_24
REMARK    4  A    between atoms: O_6  and  C_30
REMARK    5  A    between atoms: O_7  and  C_29
REMARK    6  A    between atoms: O_7  and  C_31
REMARK    7  A    between atoms: N_8  and  C_12
REMARK    8  A    between atoms: N_9  and  C_21
REMARK    9  A    between atoms: C_16  and  C_18
REMARK                            x       y       z     vdW  Elec       q    Type
REMARK                         _______ _______ _______ _____ _____    ______ ____
ROOT
ATOM      1  O   UNL     1      -3.318   1.922  24.322  0.00  0.00    -0.368 OA
ATOM      2  O   UNL     1      -5.667   3.408  25.619  0.00  0.00    -0.368 OA
ATOM     10  C   UNL     1      -4.433   2.902  26.171  0.00  0.00    +0.173 C 
ATOM     11  C   UNL     1      -4.135   1.598  25.460  0.00  0.00    +0.192 C 
ATOM     12  C   UNL     1      -3.283   3.800  25.780  0.00  0.00    +0.130 C 
ATOM     13  C   UNL     1      -5.509   1.130  25.046  0.00  0.00    +0.235 C 
ATOM     14  C   UNL     1      -2.954   3.310  24.380  0.00  0.00    +0.185 C 
ATOM     15  C   UNL     1      -6.203   2.432  24.713  0.00  0.00    +0.207 C 
ENDROOT
BRANCH  12   8
ATOM      4  O   UNL     1      -0.757   2.591  25.149  0.00  0.00    -0.270 OA
ATOM      8  N   UNL     1      -2.162   3.633  26.672  0.00  0.00    -0.304 N 
ATOM     16  C   UNL     1      -0.975   3.033  26.274  0.00  0.00    +0.244 C 
ATOM     37  H   UNL     1      -2.307   3.876  27.646  0.00  0.00    +0.149 HD
BRANCH  16  18
ATOM     18  C   UNL     1       0.075   2.912  27.318  0.00  0.00    +0.037 A 
ATOM     19  C   UNL     1       1.423   2.978  26.964  0.00  0.00    +0.016 A 
ATOM     20  C   UNL     1      -0.287   2.731  28.653  0.00  0.00    +0.016 A 
ATOM     22  C   UNL     1       2.408   2.863  27.944  0.00  0.00    +0.046 A 
ATOM     23  C   UNL     1       0.697   2.617  29.634  0.00  0.00    +0.046 A 
ATOM     24  C   UNL     1       2.046   2.683  29.279  0.00  0.00    +0.120 A 
BRANCH  24   6
ATOM      6  O   UNL     1       3.008   2.569  30.236  0.00  0.00    -0.495 OA
ATOM     30  C   UNL     1       2.779   1.621  31.277  0.00  0.00    +0.277 C 
ENDBRANCH  24   6
ENDBRANCH  16  18
ENDBRANCH  12   8
BRANCH  13   3
ATOM      3  O   UNL     1      -5.496   0.241  23.951  0.00  0.00    -0.442 OA
BRANCH   3  17
ATOM      5  O   UNL     1      -4.535  -1.803  23.595  0.00  0.00    -0.226 OA
ATOM      9  N   UNL     1      -3.251   0.091  24.090  0.00  0.00    -0.251 N 
ATOM     17  C   UNL     1      -4.417  -0.611  23.854  0.00  0.00    +0.405 C 
ATOM     38  H   UNL     1      -3.356   1.083  24.290  0.00  0.00    +0.158 HD
BRANCH   9  21
ATOM     21  C   UNL     1      -1.924  -0.398  24.088  0.00  0.00    +0.037 A 
ATOM     25  C   UNL     1      -1.524  -1.333  25.044  0.00  0.00    +0.027 A 
ATOM     26  C   UNL     1      -1.015   0.054  23.133  0.00  0.00    +0.027 A 
ATOM     27  C   UNL     1      -0.216  -1.815  25.043  0.00  0.00    +0.048 A 
ATOM     28  C   UNL     1       0.295  -0.428  23.132  0.00  0.00    +0.048 A 
ATOM     29  C   UNL     1       0.694  -1.363  24.087  0.00  0.00    +0.129 A 
BRANCH  29   7
ATOM      7  O   UNL     1       1.971  -1.831  24.088  0.00  0.00    -0.456 OA
BRANCH   7  31
ATOM     31  C   UNL     1       2.976  -0.964  23.692  0.00  0.00    +0.128 A 
ATOM     32  C   UNL     1       2.652   0.231  23.046  0.00  0.00    +0.046 A 
ATOM     33  C   UNL     1       4.311  -1.284  23.936  0.00  0.00    +0.046 A 
ATOM     34  C   UNL     1       3.663   1.104  22.646  0.00  0.00    +0.004 A 
ATOM     35  C   UNL     1       5.323  -0.410  23.535  0.00  0.00    +0.004 A 
ATOM     36  C   UNL     1       4.998   0.783  22.891  0.00  0.00    +0.000 A 
ENDBRANCH   7  31
ENDBRANCH  29   7
ENDBRANCH   9  21
ENDBRANCH   3  17
ENDBRANCH  13   3
TORSDOF 8
ENDMDL
MODEL 3
REMARK VINA RESULT:      11.9      2.953      6.314
REMARK  Name = 11884018
REMARK  9 active torsions:
REMARK  status: ('A' for Active; 'I' for Inactive)
REMARK    1  A    between atoms: O_3  and  C_13
REMARK    2  A    between atoms: O_3  and  C_17
REMARK    3  A    between atoms: O_6  and  C_24
REMARK    4  A    between atoms: O_6  and  C_30
REMARK    5  A    between atoms: O_7  and  C_29
REMARK    6  A    between atoms: O_7  and  C_31
REMARK    7  A    between atoms: N_8  and  C_12
REMARK    8  A    between atoms: N_9  and  C_21
REMARK    9  A    between atoms: C_16  and  C_18
REMARK                            x       y       z     vdW  Elec       q    Type
REMARK                         _______ _______ _______ _____ _____    ______ ____
ROOT
ATOM      1  O   UNL     1      -3.071  -0.899  25.368  0.00  0.00    -0.368 OA
ATOM      2  O   UNL     1      -3.978  -3.129  23.468  0.00  0.00    -0.368 OA
ATOM     10  C   UNL     1      -2.791  -2.310  23.483  0.00  0.00    +0.173 C 
ATOM     11  C   UNL     1      -3.216  -0.928  23.938  0.00  0.00    +0.192 C 
ATOM     12  C   UNL     1      -1.850  -2.777  24.569  0.00  0.00    +0.130 C 
ATOM     13  C   UNL     1      -4.666  -0.879  23.521  0.00  0.00    +0.235 C 
ATOM     14  C   UNL     1      -2.429  -2.107  25.805  0.00  0.00    +0.185 C 
ATOM     15  C   UNL     1      -5.115  -2.303  23.760  0.00  0.00    +0.207 C 
ENDROOT
BRANCH  12   8
ATOM      4  O   UNL     1      -1.054  -0.371  23.219  0.00  0.00    -0.270 OA
ATOM      8  N   UNL     1      -0.500  -2.337  24.318  0.00  0.00    -0.304 N 
ATOM     16  C   UNL     1      -0.213  -1.153  23.653  0.00  0.00    +0.244 C 
ATOM     37  H   UNL     1       0.247  -2.983  24.552  0.00  0.00    +0.149 HD
BRANCH  16  18
ATOM     18  C   UNL     1       1.229  -0.855  23.449  0.00  0.00    +0.037 A 
ATOM     19  C   UNL     1       2.199  -1.702  23.984  0.00  0.00    +0.016 A 
ATOM     20  C   UNL     1       1.611   0.273  22.724  0.00  0.00    +0.016 A 
ATOM     22  C   UNL     1       3.552  -1.421  23.794  0.00  0.00    +0.046 A 
ATOM     23  C   UNL     1       2.964   0.555  22.533  0.00  0.00    +0.046 A 
ATOM     24  C   UNL     1       3.934  -0.293  23.068  0.00  0.00    +0.120 A 
BRANCH  24   6
ATOM      6  O   UNL     1       5.255  -0.018  22.884  0.00  0.00    -0.495 OA
ATOM     30  C   UNL     1       5.992   0.419  24.024  0.00  0.00    +0.277 C 
ENDBRANCH  24   6
ENDBRANCH  16  18
ENDBRANCH  12   8
BRANCH  13   3
ATOM      3  O   UNL     1      -5.432   0.049  24.257  0.00  0.00    -0.442 OA
BRANCH   3  17
ATOM      5  O   UNL     1      -5.288   1.576  25.952  0.00  0.00    -0.226 OA
ATOM      9  N   UNL     1      -3.400   0.893  24.749  0.00  0.00    -0.251 N 
ATOM     17  C   UNL     1      -4.742   0.915  25.078  0.00  0.00    +0.405 C 
ATOM     38  H   UNL     1      -3.134   0.273  23.988  0.00  0.00    +0.158 HD
BRANCH   9  21
ATOM     21  C   UNL     1      -2.347   1.628  25.339  0.00  0.00    +0.037 A 
ATOM     25  C   UNL     1      -2.466   3.009  25.504  0.00  0.00    +0.027 A 
ATOM     26  C   UNL     1      -1.188   0.974  25.757  0.00  0.00    +0.027 A 
ATOM     27  C   UNL     1      -1.427   3.734  26.087  0.00  0.00    +0.048 A 
ATOM     28  C   UNL     1      -0.148   1.700  26.338  0.00  0.00    +0.048 A 
ATOM     29  C   UNL     1      -0.267   3.080  26.503  0.00  0.00    +0.129 A 
BRANCH  29   7
ATOM      7  O   UNL     1       0.748   3.787  27.069  0.00  0.00    -0.456 OA
BRANCH   7  31
ATOM     31  C   UNL     1       1.410   3.217  28.144  0.00  0.00    +0.128 A 
ATOM     32  C   UNL     1       2.804   3.145  28.145  0.00  0.00    +0.046 A 
ATOM     33  C   UNL     1       0.685   2.715  29.223  0.00  0.00    +0.046 A 
ATOM     34  C   UNL     1       3.471   2.571  29.227  0.00  0.00    +0.004 A 
ATOM     35  C   UNL     1       1.353   2.139  30.305  0.00  0.00    +0.004 A 
ATOM     36  C   UNL     1       2.746   2.068  30.306  0.00  0.00    +0.000 A 
ENDBRANCH   7  31
ENDBRANCH  29   7
ENDBRANCH   9  21
ENDBRANCH   3  17
ENDBRANCH  13   3
TORSDOF 8
ENDMDL
