MODEL 1
REMARK VINA RESULT:       6.8      0.000      0.000
REMARK  Name = 40777684
REMARK  7 active torsions:
REMARK  status: ('A' for Active; 'I' for Inactive)
REMARK    1  A    between atoms: N_5  and  C_11
REMARK    2  A    between atoms: N_6  and  C_19
REMARK    3  A    between atoms: C_9  and  C_12
REMARK    4  A    between atoms: C_15  and  C_17
REMARK    5  A    between atoms: C_16  and  C_18
REMARK    6  A    between atoms: C_20  and  C_23
REMARK    7  A    between atoms: C_26  and  C_29
REMARK                            x       y       z     vdW  Elec       q    Type
REMARK                         _______ _______ _______ _____ _____    ______ ____
ROOT
ATOM      6  N   UNL     1      -0.947  -8.581  11.344  0.00  0.00    -0.236 N 
ATOM      7  N   UNL     1      -1.462  -8.606  10.102  0.00  0.00    -0.171 NA
ATOM     12  C   UNL     1      -2.983  -9.310  11.654  0.00  0.00    +0.003 A 
ATOM     15  C   UNL     1      -1.818  -8.994  12.310  0.00  0.00    +0.046 A 
ATOM     16  C   UNL     1      -2.705  -9.052  10.298  0.00  0.00    +0.064 A 
ATOM     17  C   UNL     1      -1.470  -9.050  13.744  0.00  0.00    +0.066 C 
ATOM     18  C   UNL     1      -3.605  -9.220   9.144  0.00  0.00    +0.068 C 
ENDROOT
BRANCH   6  19
ATOM     19  C   UNL     1       0.368  -8.157  11.540  0.00  0.00    +0.066 A 
ATOM     21  C   UNL     1       1.395  -8.679  10.753  0.00  0.00    +0.028 A 
ATOM     22  C   UNL     1       0.656  -7.215  12.527  0.00  0.00    +0.028 A 
ATOM     24  C   UNL     1       2.709  -8.257  10.953  0.00  0.00    +0.014 A 
ATOM     25  C   UNL     1       1.970  -6.794  12.728  0.00  0.00    +0.014 A 
ATOM     26  C   UNL     1       2.997  -7.315  11.940  0.00  0.00    +0.055 A 
BRANCH  26  29
ATOM      1  F   UNL     1       4.908  -7.208  13.376  0.00  0.00    -0.166 F 
ATOM      2  F   UNL     1       4.540  -5.510  12.068  0.00  0.00    -0.166 F 
ATOM      3  F   UNL     1       5.285  -7.380  11.246  0.00  0.00    -0.166 F 
ATOM     29  C   UNL     1       4.402  -6.865  12.154  0.00  0.00    +0.417 C 
ENDBRANCH  26  29
ENDBRANCH   6  19
BRANCH  12   9
ATOM      9  C   UNL     1      -4.271  -9.822  12.256  0.00  0.00    +0.047 C 
ATOM     10  C   UNL     1      -5.309  -8.710  12.511  0.00  0.00    +0.039 C 
ATOM     11  C   UNL     1      -6.680  -9.350  12.257  0.00  0.00    +0.097 C 
ATOM     13  C   UNL     1      -5.033 -10.780  11.386  0.00  0.00    -0.021 C 
ATOM     14  C   UNL     1      -6.345 -10.521  11.394  0.00  0.00    -0.009 C 
BRANCH  11   5
ATOM      4  O   UNL     1      -8.556  -7.908  13.885  0.00  0.00    -0.270 OA
ATOM      5  N   UNL     1      -7.308  -9.817  13.465  0.00  0.00    -0.305 N 
ATOM     20  C   UNL     1      -8.208  -9.045  14.190  0.00  0.00    +0.246 C 
ATOM     32  H   UNL     1      -7.004 -10.714  13.830  0.00  0.00    +0.150 HD
BRANCH  20  23
ATOM      8  N   UNL     1      -8.417 -10.278  17.743  0.00  0.00    -0.263 NA
ATOM     23  C   UNL     1      -8.747  -9.662  15.428  0.00  0.00    +0.055 A 
ATOM     27  C   UNL     1     -10.033 -10.190  15.465  0.00  0.00    +0.016 A 
ATOM     28  C   UNL     1      -7.986  -9.730  16.584  0.00  0.00    +0.123 A 
ATOM     30  C   UNL     1     -10.511 -10.762  16.638  0.00  0.00    +0.020 A 
ATOM     31  C   UNL     1      -9.671 -10.781  17.740  0.00  0.00    +0.111 A 
ENDBRANCH  20  23
ENDBRANCH  11   5
ENDBRANCH  12   9
TORSDOF 5
ENDMDL
