MODEL 1
REMARK VINA RESULT:      -4.3      0.000      0.000
REMARK  Name = 25390456
REMARK  12 active torsions:
REMARK  status: ('A' for Active; 'I' for Inactive)
REMARK    1  A    between atoms: S_1  and  N_9
REMARK    2  A    between atoms: S_1  and  C_25
REMARK    3  A    between atoms: O_3  and  C_12
REMARK    4  A    between atoms: O_4  and  C_13
REMARK    5  A    between atoms: N_9  and  C_17
REMARK    6  A    between atoms: N_10  and  C_19
REMARK    7  A    between atoms: N_11  and  C_20
REMARK    8  A    between atoms: C_14  and  C_16
REMARK    9  A    between atoms: C_15  and  C_17
REMARK   10  A    between atoms: C_16  and  C_18
REMARK   11  A    between atoms: C_19  and  C_20
REMARK   12  A    between atoms: C_30  and  C_31
REMARK                            x       y       z     vdW  Elec       q    Type
REMARK                         _______ _______ _______ _____ _____    ______ ____
ROOT
ATOM      2  O   UNL     1      -2.151   3.290  26.342  0.00  0.00    -0.366 OA
ATOM     12  C   UNL     1      -1.043   3.514  24.274  0.00  0.00    +0.175 C 
ATOM     13  C   UNL     1      -1.854   4.773  24.506  0.00  0.00    +0.175 C 
ATOM     14  C   UNL     1      -0.910   2.971  25.687  0.00  0.00    +0.158 C 
ATOM     15  C   UNL     1      -2.825   4.327  25.594  0.00  0.00    +0.165 C 
ENDROOT
BRANCH  12   3
ATOM      3  O   UNL     1       0.215   3.761  23.682  0.00  0.00    -0.387 OA
ATOM     32  H   UNL     1       0.357   4.723  23.689  0.00  0.00    +0.210 HD
ENDBRANCH  12   3
BRANCH  13   4
ATOM      4  O   UNL     1      -1.026   5.802  25.046  0.00  0.00    -0.387 OA
ATOM     33  H   UNL     1      -1.038   6.543  24.418  0.00  0.00    +0.210 HD
ENDBRANCH  13   4
BRANCH  14  16
ATOM     16  C   UNL     1      -0.677   1.472  25.736  0.00  0.00    +0.130 C 
BRANCH  16  18
ATOM      5  O   UNL     1      -1.398   1.038  23.469  0.00  0.00    -0.276 OA
ATOM     10  N   UNL     1       0.567   0.064  24.239  0.00  0.00    -0.314 N 
ATOM     18  C   UNL     1      -0.569   0.852  24.356  0.00  0.00    +0.216 C 
ATOM     35  H   UNL     1       1.191  -0.033  25.035  0.00  0.00    +0.149 HD
BRANCH  10  19
ATOM     19  C   UNL     1       0.912  -0.647  23.030  0.00  0.00    +0.119 C 
BRANCH  19  20
ATOM     20  C   UNL     1       1.892   0.153  22.183  0.00  0.00    +0.103 C 
BRANCH  20  11
ATOM      6  O   UNL     1       5.405  -0.463  24.396  0.00  0.00    -0.377 OA
ATOM     11  N   UNL     1       3.267  -0.195  22.535  0.00  0.00    -0.297 NA
ATOM     21  C   UNL     1       3.295  -1.282  23.523  0.00  0.00    +0.112 C 
ATOM     22  C   UNL     1       3.983   0.977  23.058  0.00  0.00    +0.112 C 
ATOM     23  C   UNL     1       4.738  -1.618  23.884  0.00  0.00    +0.175 C 
ATOM     24  C   UNL     1       5.411   0.589  23.430  0.00  0.00    +0.175 C 
ENDBRANCH  20  11
ENDBRANCH  19  20
ENDBRANCH  10  19
ENDBRANCH  16  18
ENDBRANCH  14  16
BRANCH  15  17
ATOM     17  C   UNL     1      -4.113   3.737  25.038  0.00  0.00    +0.140 C 
BRANCH  17   9
ATOM      9  N   UNL     1      -4.770   2.922  26.077  0.00  0.00    -0.187 NA
ATOM     34  H   UNL     1      -4.244   2.812  26.952  0.00  0.00    +0.148 HD
BRANCH   9   1
ATOM      1  S   UNL     1      -5.862   1.694  25.635  0.00  0.00    +0.058 S 
ATOM      7  O   UNL     1      -6.539   2.072  24.409  0.00  0.00    -0.153 OA
ATOM      8  O   UNL     1      -6.631   1.303  26.801  0.00  0.00    -0.153 OA
BRANCH   1  25
ATOM     25  C   UNL     1      -4.770   0.354  25.264  0.00  0.00    +0.105 A 
ATOM     26  C   UNL     1      -4.687  -0.137  23.961  0.00  0.00    +0.029 A 
ATOM     27  C   UNL     1      -3.992  -0.211  26.274  0.00  0.00    +0.029 A 
ATOM     28  C   UNL     1      -3.827  -1.196  23.669  0.00  0.00    +0.005 A 
ATOM     29  C   UNL     1      -3.132  -1.270  25.981  0.00  0.00    +0.005 A 
ATOM     30  C   UNL     1      -3.050  -1.763  24.680  0.00  0.00    -0.050 A 
ATOM     31  C   UNL     1      -2.131  -2.894  24.367  0.00  0.00    +0.044 C 
ENDBRANCH   1  25
ENDBRANCH   9   1
ENDBRANCH  17   9
ENDBRANCH  15  17
TORSDOF 11
ENDMDL
MODEL 2
REMARK VINA RESULT:      -3.9      1.473      4.140
REMARK  Name = 25390456
REMARK  12 active torsions:
REMARK  status: ('A' for Active; 'I' for Inactive)
REMARK    1  A    between atoms: S_1  and  N_9
REMARK    2  A    between atoms: S_1  and  C_25
REMARK    3  A    between atoms: O_3  and  C_12
REMARK    4  A    between atoms: O_4  and  C_13
REMARK    5  A    between atoms: N_9  and  C_17
REMARK    6  A    between atoms: N_10  and  C_19
REMARK    7  A    between atoms: N_11  and  C_20
REMARK    8  A    between atoms: C_14  and  C_16
REMARK    9  A    between atoms: C_15  and  C_17
REMARK   10  A    between atoms: C_16  and  C_18
REMARK   11  A    between atoms: C_19  and  C_20
REMARK   12  A    between atoms: C_30  and  C_31
REMARK                            x       y       z     vdW  Elec       q    Type
REMARK                         _______ _______ _______ _____ _____    ______ ____
ROOT
ATOM      2  O   UNL     1      -2.959   0.093  23.820  0.00  0.00    -0.366 OA
ATOM     12  C   UNL     1      -2.188  -1.325  25.538  0.00  0.00    +0.175 C 
ATOM     13  C   UNL     1      -3.079  -2.143  24.625  0.00  0.00    +0.175 C 
ATOM     14  C   UNL     1      -1.800  -0.169  24.632  0.00  0.00    +0.158 C 
ATOM     15  C   UNL     1      -3.834  -1.057  23.865  0.00  0.00    +0.165 C 
ENDROOT
BRANCH  12   3
ATOM      3  O   UNL     1      -1.060  -2.036  26.000  0.00  0.00    -0.387 OA
ATOM     32  H   UNL     1      -1.185  -2.196  26.952  0.00  0.00    +0.210 HD
ENDBRANCH  12   3
BRANCH  13   4
ATOM      4  O   UNL     1      -2.289  -2.872  23.686  0.00  0.00    -0.387 OA
ATOM     33  H   UNL     1      -1.995  -3.687  24.126  0.00  0.00    +0.210 HD
ENDBRANCH  13   4
BRANCH  14  16
ATOM     16  C   UNL     1      -1.413   1.087  25.391  0.00  0.00    +0.130 C 
BRANCH  16  18
ATOM      5  O   UNL     1       0.532   2.509  25.600  0.00  0.00    -0.276 OA
ATOM     10  N   UNL     1       0.450   0.948  23.880  0.00  0.00    -0.314 N 
ATOM     18  C   UNL     1      -0.046   1.610  24.995  0.00  0.00    +0.216 C 
ATOM     35  H   UNL     1      -0.107   0.219  23.444  0.00  0.00    +0.149 HD
BRANCH  10  19
ATOM     19  C   UNL     1       1.733   1.249  23.289  0.00  0.00    +0.119 C 
BRANCH  19  20
ATOM     20  C   UNL     1       2.177   0.142  22.345  0.00  0.00    +0.103 C 
BRANCH  20  11
ATOM      6  O   UNL     1       5.715  -0.633  24.467  0.00  0.00    -0.377 OA
ATOM     11  N   UNL     1       3.541  -0.279  22.664  0.00  0.00    -0.297 NA
ATOM     21  C   UNL     1       3.534  -1.344  23.677  0.00  0.00    +0.112 C 
ATOM     22  C   UNL     1       4.340   0.859  23.137  0.00  0.00    +0.112 C 
ATOM     23  C   UNL     1       4.966  -1.758  24.003  0.00  0.00    +0.175 C 
ATOM     24  C   UNL     1       5.753   0.395  23.476  0.00  0.00    +0.175 C 
ENDBRANCH  20  11
ENDBRANCH  19  20
ENDBRANCH  10  19
ENDBRANCH  16  18
ENDBRANCH  14  16
BRANCH  15  17
ATOM     17  C   UNL     1      -5.124  -0.634  24.555  0.00  0.00    +0.140 C 
BRANCH  17   9
ATOM      9  N   UNL     1      -4.821   0.374  25.588  0.00  0.00    -0.187 NA
ATOM     34  H   UNL     1      -4.506   0.001  26.492  0.00  0.00    +0.148 HD
BRANCH   9   1
ATOM      1  S   UNL     1      -5.617   1.879  25.571  0.00  0.00    +0.058 S 
ATOM      7  O   UNL     1      -6.184   2.137  26.881  0.00  0.00    -0.153 OA
ATOM      8  O   UNL     1      -6.451   1.959  24.387  0.00  0.00    -0.153 OA
BRANCH   1  25
ATOM     25  C   UNL     1      -4.269   2.997  25.331  0.00  0.00    +0.105 A 
ATOM     26  C   UNL     1      -3.830   3.292  24.040  0.00  0.00    +0.029 A 
ATOM     27  C   UNL     1      -3.644   3.583  26.431  0.00  0.00    +0.029 A 
ATOM     28  C   UNL     1      -2.764   4.172  23.850  0.00  0.00    +0.005 A 
ATOM     29  C   UNL     1      -2.578   4.463  26.241  0.00  0.00    +0.005 A 
ATOM     30  C   UNL     1      -2.138   4.758  24.951  0.00  0.00    -0.050 A 
ATOM     31  C   UNL     1      -1.000   5.699  24.747  0.00  0.00    +0.044 C 
ENDBRANCH   1  25
ENDBRANCH   9   1
ENDBRANCH  17   9
ENDBRANCH  15  17
TORSDOF 11
ENDMDL
MODEL 3
REMARK VINA RESULT:      -2.4      0.964      1.568
REMARK  Name = 25390456
REMARK  12 active torsions:
REMARK  status: ('A' for Active; 'I' for Inactive)
REMARK    1  A    between atoms: S_1  and  N_9
REMARK    2  A    between atoms: S_1  and  C_25
REMARK    3  A    between atoms: O_3  and  C_12
REMARK    4  A    between atoms: O_4  and  C_13
REMARK    5  A    between atoms: N_9  and  C_17
REMARK    6  A    between atoms: N_10  and  C_19
REMARK    7  A    between atoms: N_11  and  C_20
REMARK    8  A    between atoms: C_14  and  C_16
REMARK    9  A    between atoms: C_15  and  C_17
REMARK   10  A    between atoms: C_16  and  C_18
REMARK   11  A    between atoms: C_19  and  C_20
REMARK   12  A    between atoms: C_30  and  C_31
REMARK                            x       y       z     vdW  Elec       q    Type
REMARK                         _______ _______ _______ _____ _____    ______ ____
ROOT
ATOM      2  O   UNL     1      -1.210   2.848  26.420  0.00  0.00    -0.366 OA
ATOM     12  C   UNL     1      -1.531   2.674  24.091  0.00  0.00    +0.175 C 
ATOM     13  C   UNL     1      -1.821   4.105  24.495  0.00  0.00    +0.175 C 
ATOM     14  C   UNL     1      -0.677   2.196  25.253  0.00  0.00    +0.158 C 
ATOM     15  C   UNL     1      -2.013   3.975  26.002  0.00  0.00    +0.165 C 
ENDROOT
BRANCH  12   3
ATOM      3  O   UNL     1      -0.853   2.568  22.858  0.00  0.00    -0.387 OA
ATOM     32  H   UNL     1       0.079   2.801  23.016  0.00  0.00    +0.210 HD
ENDBRANCH  12   3
BRANCH  13   4
ATOM      4  O   UNL     1      -0.678   4.927  24.263  0.00  0.00    -0.387 OA
ATOM     33  H   UNL     1      -0.973   5.694  23.743  0.00  0.00    +0.210 HD
ENDBRANCH  13   4
BRANCH  14  16
ATOM     16  C   UNL     1      -0.713   0.691  25.448  0.00  0.00    +0.130 C 
BRANCH  16  18
ATOM      5  O   UNL     1      -0.740  -1.136  23.863  0.00  0.00    -0.276 OA
ATOM     10  N   UNL     1       0.780   0.597  23.568  0.00  0.00    -0.314 N 
ATOM     18  C   UNL     1      -0.250  -0.068  24.219  0.00  0.00    +0.216 C 
ATOM     35  H   UNL     1       1.123   1.476  23.945  0.00  0.00    +0.149 HD
BRANCH  10  19
ATOM     19  C   UNL     1       1.410   0.094  22.370  0.00  0.00    +0.119 C 
BRANCH  19  20
ATOM     20  C   UNL     1       2.381  -1.034  22.691  0.00  0.00    +0.103 C 
BRANCH  20  11
ATOM      6  O   UNL     1       6.311   0.027  23.713  0.00  0.00    -0.377 OA
ATOM     11  N   UNL     1       3.531  -0.517  23.430  0.00  0.00    -0.297 NA
ATOM     21  C   UNL     1       4.180   0.574  22.690  0.00  0.00    +0.112 C 
ATOM     22  C   UNL     1       4.501  -1.588  23.699  0.00  0.00    +0.112 C 
ATOM     23  C   UNL     1       5.384   1.088  23.474  0.00  0.00    +0.175 C 
ATOM     24  C   UNL     1       5.697  -1.024  24.460  0.00  0.00    +0.175 C 
ENDBRANCH  20  11
ENDBRANCH  19  20
ENDBRANCH  10  19
ENDBRANCH  16  18
ENDBRANCH  14  16
BRANCH  15  17
ATOM     17  C   UNL     1      -3.455   3.692  26.398  0.00  0.00    +0.140 C 
BRANCH  17   9
ATOM      9  N   UNL     1      -4.183   3.139  25.241  0.00  0.00    -0.187 NA
ATOM     34  H   UNL     1      -4.178   3.720  24.394  0.00  0.00    +0.148 HD
BRANCH   9   1
ATOM      1  S   UNL     1      -5.497   2.084  25.484  0.00  0.00    +0.058 S 
ATOM      7  O   UNL     1      -6.479   2.291  24.436  0.00  0.00    -0.153 OA
ATOM      8  O   UNL     1      -5.896   2.140  26.877  0.00  0.00    -0.153 OA
BRANCH   1  25
ATOM     25  C   UNL     1      -4.746   0.505  25.224  0.00  0.00    +0.105 A 
ATOM     26  C   UNL     1      -4.103  -0.143  26.279  0.00  0.00    +0.029 A 
ATOM     27  C   UNL     1      -4.795  -0.092  23.965  0.00  0.00    +0.029 A 
ATOM     28  C   UNL     1      -3.507  -1.387  26.074  0.00  0.00    +0.005 A 
ATOM     29  C   UNL     1      -4.200  -1.337  23.760  0.00  0.00    +0.005 A 
ATOM     30  C   UNL     1      -3.556  -1.984  24.813  0.00  0.00    -0.050 A 
ATOM     31  C   UNL     1      -2.919  -3.315  24.595  0.00  0.00    +0.044 C 
ENDBRANCH   1  25
ENDBRANCH   9   1
ENDBRANCH  17   9
ENDBRANCH  15  17
TORSDOF 11
ENDMDL
MODEL 4
REMARK VINA RESULT:      -2.0      1.647      2.002
REMARK  Name = 25390456
REMARK  12 active torsions:
REMARK  status: ('A' for Active; 'I' for Inactive)
REMARK    1  A    between atoms: S_1  and  N_9
REMARK    2  A    between atoms: S_1  and  C_25
REMARK    3  A    between atoms: O_3  and  C_12
REMARK    4  A    between atoms: O_4  and  C_13
REMARK    5  A    between atoms: N_9  and  C_17
REMARK    6  A    between atoms: N_10  and  C_19
REMARK    7  A    between atoms: N_11  and  C_20
REMARK    8  A    between atoms: C_14  and  C_16
REMARK    9  A    between atoms: C_15  and  C_17
REMARK   10  A    between atoms: C_16  and  C_18
REMARK   11  A    between atoms: C_19  and  C_20
REMARK   12  A    between atoms: C_30  and  C_31
REMARK                            x       y       z     vdW  Elec       q    Type
REMARK                         _______ _______ _______ _____ _____    ______ ____
ROOT
ATOM      2  O   UNL     1      -1.630   1.837  26.151  0.00  0.00    -0.366 OA
ATOM     12  C   UNL     1       0.298   2.199  24.843  0.00  0.00    +0.175 C 
ATOM     13  C   UNL     1       0.283   3.237  25.947  0.00  0.00    +0.175 C 
ATOM     14  C   UNL     1      -0.614   1.128  25.419  0.00  0.00    +0.158 C 
ATOM     15  C   UNL     1      -1.168   3.181  26.414  0.00  0.00    +0.165 C 
ENDROOT
BRANCH  12   3
ATOM      3  O   UNL     1       1.588   1.700  24.563  0.00  0.00    -0.387 OA
ATOM     32  H   UNL     1       1.837   1.108  25.293  0.00  0.00    +0.210 HD
ENDBRANCH  12   3
BRANCH  13   4
ATOM      4  O   UNL     1       1.113   2.819  27.031  0.00  0.00    -0.387 OA
ATOM     33  H   UNL     1       1.816   2.261  26.659  0.00  0.00    +0.210 HD
ENDBRANCH  13   4
BRANCH  14  16
ATOM     16  C   UNL     1      -1.263   0.257  24.358  0.00  0.00    +0.130 C 
BRANCH  16  18
ATOM      5  O   UNL     1      -0.188  -1.879  23.999  0.00  0.00    -0.276 OA
ATOM     10  N   UNL     1       0.484  -0.046  22.738  0.00  0.00    -0.314 N 
ATOM     18  C   UNL     1      -0.280  -0.692  23.700  0.00  0.00    +0.216 C 
ATOM     35  H   UNL     1       0.339   0.944  22.567  0.00  0.00    +0.149 HD
BRANCH  10  19
ATOM     19  C   UNL     1       1.501  -0.715  21.960  0.00  0.00    +0.119 C 
BRANCH  19  20
ATOM     20  C   UNL     1       2.656   0.224  21.642  0.00  0.00    +0.103 C 
BRANCH  20  11
ATOM      6  O   UNL     1       5.471  -0.522  24.665  0.00  0.00    -0.377 OA
ATOM     11  N   UNL     1       3.869  -0.213  22.333  0.00  0.00    -0.297 NA
ATOM     21  C   UNL     1       3.553  -1.221  23.356  0.00  0.00    +0.112 C 
ATOM     22  C   UNL     1       4.558   0.929  22.949  0.00  0.00    +0.112 C 
ATOM     23  C   UNL     1       4.829  -1.651  24.071  0.00  0.00    +0.175 C 
ATOM     24  C   UNL     1       5.811   0.448  23.674  0.00  0.00    +0.175 C 
ENDBRANCH  20  11
ENDBRANCH  19  20
ENDBRANCH  10  19
ENDBRANCH  16  18
ENDBRANCH  14  16
BRANCH  15  17
ATOM     17  C   UNL     1      -2.075   4.141  25.656  0.00  0.00    +0.140 C 
BRANCH  17   9
ATOM      9  N   UNL     1      -3.463   3.981  26.127  0.00  0.00    -0.187 NA
ATOM     34  H   UNL     1      -3.568   3.616  27.082  0.00  0.00    +0.148 HD
BRANCH   9   1
ATOM      1  S   UNL     1      -4.714   3.687  25.011  0.00  0.00    +0.058 S 
ATOM      7  O   UNL     1      -4.436   4.400  23.779  0.00  0.00    -0.153 OA
ATOM      8  O   UNL     1      -5.991   3.855  25.677  0.00  0.00    -0.153 OA
BRANCH   1  25
ATOM     25  C   UNL     1      -4.519   1.958  24.696  0.00  0.00    +0.105 A 
ATOM     26  C   UNL     1      -3.971   1.527  23.489  0.00  0.00    +0.029 A 
ATOM     27  C   UNL     1      -4.914   1.026  25.656  0.00  0.00    +0.029 A 
ATOM     28  C   UNL     1      -3.819   0.163  23.239  0.00  0.00    +0.005 A 
ATOM     29  C   UNL     1      -4.763  -0.338  25.406  0.00  0.00    +0.005 A 
ATOM     30  C   UNL     1      -4.216  -0.770  24.198  0.00  0.00    -0.050 A 
ATOM     31  C   UNL     1      -4.054  -2.228  23.931  0.00  0.00    +0.044 C 
ENDBRANCH   1  25
ENDBRANCH   9   1
ENDBRANCH  17   9
ENDBRANCH  15  17
TORSDOF 11
ENDMDL
MODEL 5
REMARK VINA RESULT:      -1.7      2.308      6.788
REMARK  Name = 25390456
REMARK  12 active torsions:
REMARK  status: ('A' for Active; 'I' for Inactive)
REMARK    1  A    between atoms: S_1  and  N_9
REMARK    2  A    between atoms: S_1  and  C_25
REMARK    3  A    between atoms: O_3  and  C_12
REMARK    4  A    between atoms: O_4  and  C_13
REMARK    5  A    between atoms: N_9  and  C_17
REMARK    6  A    between atoms: N_10  and  C_19
REMARK    7  A    between atoms: N_11  and  C_20
REMARK    8  A    between atoms: C_14  and  C_16
REMARK    9  A    between atoms: C_15  and  C_17
REMARK   10  A    between atoms: C_16  and  C_18
REMARK   11  A    between atoms: C_19  and  C_20
REMARK   12  A    between atoms: C_30  and  C_31
REMARK                            x       y       z     vdW  Elec       q    Type
REMARK                         _______ _______ _______ _____ _____    ______ ____
ROOT
ATOM      2  O   UNL     1      -0.541   3.808  24.280  0.00  0.00    -0.366 OA
ATOM     12  C   UNL     1      -1.588   2.994  26.229  0.00  0.00    +0.175 C 
ATOM     13  C   UNL     1      -0.256   2.286  26.086  0.00  0.00    +0.175 C 
ATOM     14  C   UNL     1      -1.368   4.234  25.379  0.00  0.00    +0.158 C 
ATOM     15  C   UNL     1       0.088   2.553  24.625  0.00  0.00    +0.165 C 
ENDROOT
BRANCH  12   3
ATOM      3  O   UNL     1      -1.906   3.320  27.565  0.00  0.00    -0.387 OA
ATOM     32  H   UNL     1      -2.283   2.523  27.978  0.00  0.00    +0.210 HD
ENDBRANCH  12   3
BRANCH  13   4
ATOM      4  O   UNL     1       0.732   2.920  26.897  0.00  0.00    -0.387 OA
ATOM     33  H   UNL     1       0.291   3.223  27.708  0.00  0.00    +0.210 HD
ENDBRANCH  13   4
BRANCH  14  16
ATOM     16  C   UNL     1      -2.656   4.835  24.846  0.00  0.00    +0.130 C 
BRANCH  16  18
ATOM      5  O   UNL     1      -4.877   4.056  25.401  0.00  0.00    -0.276 OA
ATOM     10  N   UNL     1      -3.482   2.694  24.137  0.00  0.00    -0.314 N 
ATOM     18  C   UNL     1      -3.804   3.845  24.842  0.00  0.00    +0.216 C 
ATOM     35  H   UNL     1      -2.562   2.609  23.714  0.00  0.00    +0.149 HD
BRANCH  10  19
ATOM     19  C   UNL     1      -4.393   1.585  23.978  0.00  0.00    +0.119 C 
BRANCH  19  20
ATOM     20  C   UNL     1      -4.652   0.891  25.308  0.00  0.00    +0.103 C 
BRANCH  20  11
ATOM      6  O   UNL     1      -2.438  -2.500  24.205  0.00  0.00    -0.377 OA
ATOM     11  N   UNL     1      -4.117  -0.469  25.283  0.00  0.00    -0.297 NA
ATOM     21  C   UNL     1      -2.663  -0.462  25.501  0.00  0.00    +0.112 C 
ATOM     22  C   UNL     1      -4.430  -1.129  24.007  0.00  0.00    +0.112 C 
ATOM     23  C   UNL     1      -2.126  -1.889  25.458  0.00  0.00    +0.175 C 
ATOM     24  C   UNL     1      -3.851  -2.540  23.999  0.00  0.00    +0.175 C 
ENDBRANCH  20  11
ENDBRANCH  19  20
ENDBRANCH  10  19
ENDBRANCH  16  18
ENDBRANCH  14  16
BRANCH  15  17
ATOM     17  C   UNL     1      -0.450   1.488  23.680  0.00  0.00    +0.140 C 
BRANCH  17   9
ATOM      9  N   UNL     1       0.576   1.158  22.674  0.00  0.00    -0.187 NA
ATOM     34  H   UNL     1       0.609   1.778  21.855  0.00  0.00    +0.148 HD
BRANCH   9   1
ATOM      1  S   UNL     1       1.106  -0.449  22.489  0.00  0.00    +0.058 S 
ATOM      7  O   UNL     1       1.014  -0.827  21.092  0.00  0.00    -0.153 OA
ATOM      8  O   UNL     1       0.484  -1.271  23.509  0.00  0.00    -0.153 OA
BRANCH   1  25
ATOM     25  C   UNL     1       2.819  -0.315  22.906  0.00  0.00    +0.105 A 
ATOM     26  C   UNL     1       3.459  -1.364  23.566  0.00  0.00    +0.029 A 
ATOM     27  C   UNL     1       3.528   0.840  22.577  0.00  0.00    +0.029 A 
ATOM     28  C   UNL     1       4.810  -1.258  23.898  0.00  0.00    +0.005 A 
ATOM     29  C   UNL     1       4.879   0.946  22.910  0.00  0.00    +0.005 A 
ATOM     30  C   UNL     1       5.520  -0.102  23.570  0.00  0.00    -0.050 A 
ATOM     31  C   UNL     1       6.963   0.011  23.925  0.00  0.00    +0.044 C 
ENDBRANCH   1  25
ENDBRANCH   9   1
ENDBRANCH  17   9
ENDBRANCH  15  17
TORSDOF 11
ENDMDL
MODEL 6
REMARK VINA RESULT:      -1.4      2.332      7.257
REMARK  Name = 25390456
REMARK  12 active torsions:
REMARK  status: ('A' for Active; 'I' for Inactive)
REMARK    1  A    between atoms: S_1  and  N_9
REMARK    2  A    between atoms: S_1  and  C_25
REMARK    3  A    between atoms: O_3  and  C_12
REMARK    4  A    between atoms: O_4  and  C_13
REMARK    5  A    between atoms: N_9  and  C_17
REMARK    6  A    between atoms: N_10  and  C_19
REMARK    7  A    between atoms: N_11  and  C_20
REMARK    8  A    between atoms: C_14  and  C_16
REMARK    9  A    between atoms: C_15  and  C_17
REMARK   10  A    between atoms: C_16  and  C_18
REMARK   11  A    between atoms: C_19  and  C_20
REMARK   12  A    between atoms: C_30  and  C_31
REMARK                            x       y       z     vdW  Elec       q    Type
REMARK                         _______ _______ _______ _____ _____    ______ ____
ROOT
ATOM      2  O   UNL     1      -2.375  -0.755  25.059  0.00  0.00    -0.366 OA
ATOM     12  C   UNL     1      -3.813  -2.148  23.816  0.00  0.00    +0.175 C 
ATOM     13  C   UNL     1      -2.834  -3.034  24.558  0.00  0.00    +0.175 C 
ATOM     14  C   UNL     1      -3.744  -0.867  24.631  0.00  0.00    +0.158 C 
ATOM     15  C   UNL     1      -1.736  -2.045  24.935  0.00  0.00    +0.165 C 
ENDROOT
BRANCH  12   3
ATOM      3  O   UNL     1      -5.122  -2.676  23.772  0.00  0.00    -0.387 OA
ATOM     32  H   UNL     1      -5.232  -3.112  22.909  0.00  0.00    +0.210 HD
ENDBRANCH  12   3
BRANCH  13   4
ATOM      4  O   UNL     1      -3.423  -3.523  25.763  0.00  0.00    -0.387 OA
ATOM     33  H   UNL     1      -4.001  -4.266  25.522  0.00  0.00    +0.210 HD
ENDBRANCH  13   4
BRANCH  14  16
ATOM     16  C   UNL     1      -4.135   0.370  23.842  0.00  0.00    +0.130 C 
BRANCH  16  18
ATOM      5  O   UNL     1      -5.412   1.211  25.716  0.00  0.00    -0.276 OA
ATOM     10  N   UNL     1      -4.439   2.719  24.240  0.00  0.00    -0.314 N 
ATOM     18  C   UNL     1      -4.741   1.451  24.716  0.00  0.00    +0.216 C 
ATOM     35  H   UNL     1      -3.879   2.816  23.397  0.00  0.00    +0.149 HD
BRANCH  10  19
ATOM     19  C   UNL     1      -4.893   3.932  24.881  0.00  0.00    +0.119 C 
BRANCH  19  20
ATOM     20  C   UNL     1      -3.810   4.519  25.775  0.00  0.00    +0.103 C 
BRANCH  20  11
ATOM      6  O   UNL     1       0.306   3.695  25.779  0.00  0.00    -0.377 OA
ATOM     11  N   UNL     1      -2.500   3.992  25.397  0.00  0.00    -0.297 NA
ATOM     21  C   UNL     1      -1.955   3.137  26.460  0.00  0.00    +0.112 C 
ATOM     22  C   UNL     1      -1.564   5.086  25.103  0.00  0.00    +0.112 C 
ATOM     23  C   UNL     1      -0.583   2.610  26.050  0.00  0.00    +0.175 C 
ATOM     24  C   UNL     1      -0.201   4.514  24.724  0.00  0.00    +0.175 C 
ENDBRANCH  20  11
ENDBRANCH  19  20
ENDBRANCH  10  19
ENDBRANCH  16  18
ENDBRANCH  14  16
BRANCH  15  17
ATOM     17  C   UNL     1      -0.650  -1.927  23.876  0.00  0.00    +0.140 C 
BRANCH  17   9
ATOM      9  N   UNL     1       0.243  -0.802  24.209  0.00  0.00    -0.187 NA
ATOM     34  H   UNL     1       0.123  -0.405  25.149  0.00  0.00    +0.148 HD
BRANCH   9   1
ATOM      1  S   UNL     1       0.835   0.212  22.977  0.00  0.00    +0.058 S 
ATOM      7  O   UNL     1       0.493   1.588  23.281  0.00  0.00    -0.153 OA
ATOM      8  O   UNL     1       0.489  -0.358  21.689  0.00  0.00    -0.153 OA
BRANCH   1  25
ATOM     25  C   UNL     1       2.584   0.030  23.169  0.00  0.00    +0.105 A 
ATOM     26  C   UNL     1       3.432   1.095  22.868  0.00  0.00    +0.029 A 
ATOM     27  C   UNL     1       3.113  -1.179  23.620  0.00  0.00    +0.029 A 
ATOM     28  C   UNL     1       4.812   0.951  23.017  0.00  0.00    +0.005 A 
ATOM     29  C   UNL     1       4.493  -1.323  23.768  0.00  0.00    +0.005 A 
ATOM     30  C   UNL     1       5.342  -0.259  23.467  0.00  0.00    -0.050 A 
ATOM     31  C   UNL     1       6.816  -0.413  23.626  0.00  0.00    +0.044 C 
ENDBRANCH   1  25
ENDBRANCH   9   1
ENDBRANCH  17   9
ENDBRANCH  15  17
TORSDOF 11
ENDMDL
MODEL 7
REMARK VINA RESULT:      -1.0      2.038      4.495
REMARK  Name = 25390456
REMARK  12 active torsions:
REMARK  status: ('A' for Active; 'I' for Inactive)
REMARK    1  A    between atoms: S_1  and  N_9
REMARK    2  A    between atoms: S_1  and  C_25
REMARK    3  A    between atoms: O_3  and  C_12
REMARK    4  A    between atoms: O_4  and  C_13
REMARK    5  A    between atoms: N_9  and  C_17
REMARK    6  A    between atoms: N_10  and  C_19
REMARK    7  A    between atoms: N_11  and  C_20
REMARK    8  A    between atoms: C_14  and  C_16
REMARK    9  A    between atoms: C_15  and  C_17
REMARK   10  A    between atoms: C_16  and  C_18
REMARK   11  A    between atoms: C_19  and  C_20
REMARK   12  A    between atoms: C_30  and  C_31
REMARK                            x       y       z     vdW  Elec       q    Type
REMARK                         _______ _______ _______ _____ _____    ______ ____
ROOT
ATOM      2  O   UNL     1      -2.567  -0.764  23.726  0.00  0.00    -0.366 OA
ATOM     12  C   UNL     1      -3.514  -2.466  25.055  0.00  0.00    +0.175 C 
ATOM     13  C   UNL     1      -4.640  -1.769  24.320  0.00  0.00    +0.175 C 
ATOM     14  C   UNL     1      -2.316  -2.102  24.194  0.00  0.00    +0.158 C 
ATOM     15  C   UNL     1      -3.974  -0.470  23.880  0.00  0.00    +0.165 C 
ENDROOT
BRANCH  12   3
ATOM      3  O   UNL     1      -3.691  -3.863  25.152  0.00  0.00    -0.387 OA
ATOM     32  H   UNL     1      -2.807  -4.270  25.155  0.00  0.00    +0.210 HD
ENDBRANCH  12   3
BRANCH  13   4
ATOM      4  O   UNL     1      -4.997  -2.502  23.149  0.00  0.00    -0.387 OA
ATOM     33  H   UNL     1      -4.501  -3.338  23.168  0.00  0.00    +0.210 HD
ENDBRANCH  13   4
BRANCH  14  16
ATOM     16  C   UNL     1      -0.999  -2.141  24.948  0.00  0.00    +0.130 C 
BRANCH  16  18
ATOM      5  O   UNL     1      -0.242   0.030  25.700  0.00  0.00    -0.276 OA
ATOM     10  N   UNL     1       0.492  -0.778  23.648  0.00  0.00    -0.314 N 
ATOM     18  C   UNL     1      -0.223  -0.842  24.835  0.00  0.00    +0.216 C 
ATOM     35  H   UNL     1       0.438  -1.550  22.990  0.00  0.00    +0.149 HD
BRANCH  10  19
ATOM     19  C   UNL     1       1.315   0.352  23.283  0.00  0.00    +0.119 C 
BRANCH  19  20
ATOM     20  C   UNL     1       2.197   0.026  22.086  0.00  0.00    +0.103 C 
BRANCH  20  11
ATOM      6  O   UNL     1       5.592  -0.428  24.512  0.00  0.00    -0.377 OA
ATOM     11  N   UNL     1       3.557  -0.279  22.527  0.00  0.00    -0.297 NA
ATOM     21  C   UNL     1       3.548  -1.324  23.561  0.00  0.00    +0.112 C 
ATOM     22  C   UNL     1       4.222   0.928  23.038  0.00  0.00    +0.112 C 
ATOM     23  C   UNL     1       4.976  -1.616  24.014  0.00  0.00    +0.175 C 
ATOM     24  C   UNL     1       5.634   0.583  23.503  0.00  0.00    +0.175 C 
ENDBRANCH  20  11
ENDBRANCH  19  20
ENDBRANCH  10  19
ENDBRANCH  16  18
ENDBRANCH  14  16
BRANCH  15  17
ATOM     17  C   UNL     1      -4.106   0.647  24.906  0.00  0.00    +0.140 C 
BRANCH  17   9
ATOM      9  N   UNL     1      -4.710   1.831  24.269  0.00  0.00    -0.187 NA
ATOM     34  H   UNL     1      -5.655   1.697  23.888  0.00  0.00    +0.148 HD
BRANCH   9   1
ATOM      1  S   UNL     1      -3.717   3.018  23.558  0.00  0.00    +0.058 S 
ATOM      7  O   UNL     1      -4.361   4.312  23.669  0.00  0.00    -0.153 OA
ATOM      8  O   UNL     1      -3.260   2.539  22.267  0.00  0.00    -0.153 OA
BRANCH   1  25
ATOM     25  C   UNL     1      -2.317   3.010  24.637  0.00  0.00    +0.105 A 
ATOM     26  C   UNL     1      -1.038   2.814  24.117  0.00  0.00    +0.029 A 
ATOM     27  C   UNL     1      -2.492   3.200  26.008  0.00  0.00    +0.029 A 
ATOM     28  C   UNL     1       0.067   2.805  24.969  0.00  0.00    +0.005 A 
ATOM     29  C   UNL     1      -1.387   3.191  26.859  0.00  0.00    +0.005 A 
ATOM     30  C   UNL     1      -0.108   2.994  26.341  0.00  0.00    -0.050 A 
ATOM     31  C   UNL     1       1.073   2.985  27.250  0.00  0.00    +0.044 C 
ENDBRANCH   1  25
ENDBRANCH   9   1
ENDBRANCH  17   9
ENDBRANCH  15  17
TORSDOF 11
ENDMDL
MODEL 8
REMARK VINA RESULT:      -0.3      2.455      7.518
REMARK  Name = 25390456
REMARK  12 active torsions:
REMARK  status: ('A' for Active; 'I' for Inactive)
REMARK    1  A    between atoms: S_1  and  N_9
REMARK    2  A    between atoms: S_1  and  C_25
REMARK    3  A    between atoms: O_3  and  C_12
REMARK    4  A    between atoms: O_4  and  C_13
REMARK    5  A    between atoms: N_9  and  C_17
REMARK    6  A    between atoms: N_10  and  C_19
REMARK    7  A    between atoms: N_11  and  C_20
REMARK    8  A    between atoms: C_14  and  C_16
REMARK    9  A    between atoms: C_15  and  C_17
REMARK   10  A    between atoms: C_16  and  C_18
REMARK   11  A    between atoms: C_19  and  C_20
REMARK   12  A    between atoms: C_30  and  C_31
REMARK                            x       y       z     vdW  Elec       q    Type
REMARK                         _______ _______ _______ _____ _____    ______ ____
ROOT
ATOM      2  O   UNL     1      -0.914  -1.708  25.701  0.00  0.00    -0.366 OA
ATOM     12  C   UNL     1      -2.925  -0.654  25.067  0.00  0.00    +0.175 C 
ATOM     13  C   UNL     1      -2.919  -2.044  24.465  0.00  0.00    +0.175 C 
ATOM     14  C   UNL     1      -1.920  -0.806  26.196  0.00  0.00    +0.158 C 
ATOM     15  C   UNL     1      -1.445  -2.424  24.563  0.00  0.00    +0.165 C 
ENDROOT
BRANCH  12   3
ATOM      3  O   UNL     1      -4.194  -0.256  25.539  0.00  0.00    -0.387 OA
ATOM     32  H   UNL     1      -4.327  -0.672  26.408  0.00  0.00    +0.210 HD
ENDBRANCH  12   3
BRANCH  13   4
ATOM      4  O   UNL     1      -3.664  -2.943  25.286  0.00  0.00    -0.387 OA
ATOM     33  H   UNL     1      -4.546  -3.034  24.889  0.00  0.00    +0.210 HD
ENDBRANCH  13   4
BRANCH  14  16
ATOM     16  C   UNL     1      -1.273   0.505  26.606  0.00  0.00    +0.130 C 
BRANCH  16  18
ATOM      5  O   UNL     1      -1.606   1.268  24.335  0.00  0.00    -0.276 OA
ATOM     10  N   UNL     1      -0.836   2.770  25.933  0.00  0.00    -0.314 N 
ATOM     18  C   UNL     1      -1.268   1.528  25.486  0.00  0.00    +0.216 C 
ATOM     35  H   UNL     1      -0.571   2.885  26.907  0.00  0.00    +0.149 HD
BRANCH  10  19
ATOM     19  C   UNL     1      -0.732   3.925  25.073  0.00  0.00    +0.119 C 
BRANCH  19  20
ATOM     20  C   UNL     1      -1.805   4.954  25.402  0.00  0.00    +0.103 C 
BRANCH  20  11
ATOM      6  O   UNL     1      -4.990   2.407  24.407  0.00  0.00    -0.377 OA
ATOM     11  N   UNL     1      -3.116   4.476  24.965  0.00  0.00    -0.297 NA
ATOM     21  C   UNL     1      -3.786   3.734  26.043  0.00  0.00    +0.112 C 
ATOM     22  C   UNL     1      -2.990   3.627  23.773  0.00  0.00    +0.112 C 
ATOM     23  C   UNL     1      -5.145   3.235  25.561  0.00  0.00    +0.175 C 
ATOM     24  C   UNL     1      -4.368   3.131  23.344  0.00  0.00    +0.175 C 
ENDBRANCH  20  11
ENDBRANCH  19  20
ENDBRANCH  10  19
ENDBRANCH  16  18
ENDBRANCH  14  16
BRANCH  15  17
ATOM     17  C   UNL     1      -0.640  -2.015  23.338  0.00  0.00    +0.140 C 
BRANCH  17   9
ATOM      9  N   UNL     1       0.470  -1.136  23.750  0.00  0.00    -0.187 NA
ATOM     34  H   UNL     1       0.507  -0.909  24.752  0.00  0.00    +0.148 HD
BRANCH   9   1
ATOM      1  S   UNL     1       1.130  -0.020  22.647  0.00  0.00    +0.058 S 
ATOM      7  O   UNL     1       0.676   1.316  22.986  0.00  0.00    -0.153 OA
ATOM      8  O   UNL     1       0.956  -0.528  21.300  0.00  0.00    -0.153 OA
BRANCH   1  25
ATOM     25  C   UNL     1       2.855  -0.121  23.019  0.00  0.00    +0.105 A 
ATOM     26  C   UNL     1       3.384  -1.294  23.557  0.00  0.00    +0.029 A 
ATOM     27  C   UNL     1       3.686   0.972  22.775  0.00  0.00    +0.029 A 
ATOM     28  C   UNL     1       4.745  -1.373  23.854  0.00  0.00    +0.005 A 
ATOM     29  C   UNL     1       5.047   0.893  23.072  0.00  0.00    +0.005 A 
ATOM     30  C   UNL     1       5.577  -0.279  23.611  0.00  0.00    -0.050 A 
ATOM     31  C   UNL     1       7.031  -0.364  23.928  0.00  0.00    +0.044 C 
ENDBRANCH   1  25
ENDBRANCH   9   1
ENDBRANCH  17   9
ENDBRANCH  15  17
TORSDOF 11
ENDMDL
