MODEL 1
REMARK VINA RESULT:      -4.9      0.000      0.000
REMARK  Name = 51137966
REMARK  5 active torsions:
REMARK  status: ('A' for Active; 'I' for Inactive)
REMARK    1  A    between atoms: C_6  and  C_10
REMARK    2  A    between atoms: C_7  and  C_14
REMARK    3  A    between atoms: C_10  and  C_13
REMARK    4  A    between atoms: C_13  and  C_21
REMARK    5  A    between atoms: C_13  and  C_22
REMARK                            x       y       z     vdW  Elec       q    Type
REMARK                         _______ _______ _______ _____ _____    ______ ____
ROOT
ATOM      3  N   UNL     1      -6.208 -10.602  13.126  0.00  0.00    -0.299 NA
ATOM      5  N   UNL     1      -4.448 -10.675  17.859  0.00  0.00    -0.360 N 
ATOM      6  C   UNL     1      -7.281 -10.043  13.958  0.00  0.00    +0.085 C 
ATOM      7  C   UNL     1      -4.929  -9.915  13.239  0.00  0.00    +0.145 C 
ATOM      8  C   UNL     1      -7.064 -10.124  15.473  0.00  0.00    -0.021 A 
ATOM      9  C   UNL     1      -3.998 -10.621  14.222  0.00  0.00    +0.065 C 
ATOM     11  C   UNL     1      -5.815 -10.370  16.111  0.00  0.00    +0.008 A 
ATOM     12  C   UNL     1      -4.476 -10.589  15.636  0.00  0.00    -0.020 A 
ATOM     15  C   UNL     1      -5.750 -10.406  17.509  0.00  0.00    +0.047 A 
ATOM     16  C   UNL     1      -3.672 -10.781  16.742  0.00  0.00    +0.087 A 
ATOM     17  C   UNL     1      -8.163  -9.861  16.330  0.00  0.00    +0.006 A 
ATOM     20  C   UNL     1      -6.854 -10.191  18.336  0.00  0.00    +0.026 A 
ATOM     23  C   UNL     1      -8.065  -9.904  17.719  0.00  0.00    +0.002 A 
ATOM     26  H   UNL     1      -6.104 -11.603  13.290  0.00  0.00    +0.123 HD
ATOM     27  H   UNL     1      -4.112 -10.763  18.808  0.00  0.00    +0.165 HD
ENDROOT
BRANCH   7  14
ATOM      1  O   UNL     1      -6.707  -8.695   8.681  0.00  0.00    -0.377 OA
ATOM      2  O   UNL     1      -3.272 -10.586  11.695  0.00  0.00    -0.274 OA
ATOM      4  N   UNL     1      -5.027  -9.319  10.855  0.00  0.00    -0.296 N 
ATOM     14  C   UNL     1      -4.329  -9.973  11.867  0.00  0.00    +0.233 C 
ATOM     18  C   UNL     1      -6.214  -8.478  11.046  0.00  0.00    +0.136 C 
ATOM     19  C   UNL     1      -4.513  -9.330   9.485  0.00  0.00    +0.136 C 
ATOM     24  C   UNL     1      -7.266  -8.804   9.992  0.00  0.00    +0.179 C 
ATOM     25  C   UNL     1      -5.635  -9.625   8.500  0.00  0.00    +0.179 C 
ENDBRANCH   7  14
BRANCH   6  10
ATOM     10  C   UNL     1      -8.553 -10.781  13.503  0.00  0.00    +0.026 C 
BRANCH  10  13
ATOM     13  C   UNL     1      -9.450  -9.927  12.603  0.00  0.00    -0.015 C 
ATOM     21  C   UNL     1     -10.551  -9.286  13.451  0.00  0.00    +0.007 C 
ATOM     22  C   UNL     1     -10.077 -10.730  11.462  0.00  0.00    +0.007 C 
ENDBRANCH  10  13
ENDBRANCH   6  10
TORSDOF 3
ENDMDL
MODEL 2
REMARK VINA RESULT:      -4.8      1.920      4.382
REMARK  Name = 51137966
REMARK  5 active torsions:
REMARK  status: ('A' for Active; 'I' for Inactive)
REMARK    1  A    between atoms: C_6  and  C_10
REMARK    2  A    between atoms: C_7  and  C_14
REMARK    3  A    between atoms: C_10  and  C_13
REMARK    4  A    between atoms: C_13  and  C_21
REMARK    5  A    between atoms: C_13  and  C_22
REMARK                            x       y       z     vdW  Elec       q    Type
REMARK                         _______ _______ _______ _____ _____    ______ ____
ROOT
ATOM      3  N   UNL     1      -6.982  -9.285  12.956  0.00  0.00    -0.299 NA
ATOM      5  N   UNL     1      -5.270 -10.359  17.584  0.00  0.00    -0.360 N 
ATOM      6  C   UNL     1      -5.670  -9.916  12.759  0.00  0.00    +0.085 C 
ATOM      7  C   UNL     1      -7.934 -10.083  13.714  0.00  0.00    +0.145 C 
ATOM      8  C   UNL     1      -4.855 -10.175  14.030  0.00  0.00    -0.021 A 
ATOM      9  C   UNL     1      -7.958  -9.681  15.187  0.00  0.00    +0.065 C 
ATOM     11  C   UNL     1      -5.377 -10.174  15.355  0.00  0.00    +0.008 A 
ATOM     12  C   UNL     1      -6.687  -9.971  15.913  0.00  0.00    -0.020 A 
ATOM     15  C   UNL     1      -4.525 -10.439  16.433  0.00  0.00    +0.047 A 
ATOM     16  C   UNL     1      -6.573 -10.084  17.284  0.00  0.00    +0.087 A 
ATOM     17  C   UNL     1      -3.486 -10.521  13.898  0.00  0.00    +0.006 A 
ATOM     20  C   UNL     1      -3.168 -10.732  16.285  0.00  0.00    +0.026 A 
ATOM     23  C   UNL     1      -2.663 -10.781  14.992  0.00  0.00    +0.002 A 
ATOM     26  H   UNL     1      -6.881  -8.353  13.358  0.00  0.00    +0.123 HD
ATOM     27  H   UNL     1      -4.909 -10.502  18.517  0.00  0.00    +0.165 HD
ENDROOT
BRANCH   7  14
ATOM      1  O   UNL     1      -9.551  -9.952   8.939  0.00  0.00    -0.377 OA
ATOM      2  O   UNL     1     -10.160  -9.299  13.804  0.00  0.00    -0.274 OA
ATOM      4  N   UNL     1      -9.415 -10.086  11.750  0.00  0.00    -0.296 N 
ATOM     14  C   UNL     1      -9.270  -9.787  13.103  0.00  0.00    +0.233 C 
ATOM     18  C   UNL     1      -8.424 -10.781  10.921  0.00  0.00    +0.136 C 
ATOM     19  C   UNL     1     -10.686  -9.823  11.074  0.00  0.00    +0.136 C 
ATOM     24  C   UNL     1      -8.277 -10.080   9.576  0.00  0.00    +0.179 C 
ATOM     25  C   UNL     1     -10.442  -9.158   9.727  0.00  0.00    +0.179 C 
ENDBRANCH   7  14
BRANCH   6  10
ATOM     10  C   UNL     1      -4.940  -8.996  11.765  0.00  0.00    +0.026 C 
BRANCH  10  13
ATOM     13  C   UNL     1      -4.614  -9.686  10.437  0.00  0.00    -0.015 C 
ATOM     21  C   UNL     1      -3.217 -10.306  10.521  0.00  0.00    +0.007 C 
ATOM     22  C   UNL     1      -4.688  -8.734   9.244  0.00  0.00    +0.007 C 
ENDBRANCH  10  13
ENDBRANCH   6  10
TORSDOF 3
ENDMDL
MODEL 3
REMARK VINA RESULT:      -4.4      1.712      2.907
REMARK  Name = 51137966
REMARK  5 active torsions:
REMARK  status: ('A' for Active; 'I' for Inactive)
REMARK    1  A    between atoms: C_6  and  C_10
REMARK    2  A    between atoms: C_7  and  C_14
REMARK    3  A    between atoms: C_10  and  C_13
REMARK    4  A    between atoms: C_13  and  C_21
REMARK    5  A    between atoms: C_13  and  C_22
REMARK                            x       y       z     vdW  Elec       q    Type
REMARK                         _______ _______ _______ _____ _____    ______ ____
ROOT
ATOM      3  N   UNL     1      -8.084 -10.426  14.445  0.00  0.00    -0.299 NA
ATOM      5  N   UNL     1      -3.353 -10.781  16.175  0.00  0.00    -0.360 N 
ATOM      6  C   UNL     1      -8.136  -9.974  15.842  0.00  0.00    +0.085 C 
ATOM      7  C   UNL     1      -7.144  -9.699  13.605  0.00  0.00    +0.145 C 
ATOM      8  C   UNL     1      -6.849 -10.159  16.653  0.00  0.00    -0.021 A 
ATOM      9  C   UNL     1      -5.813 -10.438  13.481  0.00  0.00    +0.065 C 
ATOM     11  C   UNL     1      -5.558 -10.402  16.101  0.00  0.00    +0.008 A 
ATOM     12  C   UNL     1      -5.052 -10.531  14.762  0.00  0.00    -0.020 A 
ATOM     15  C   UNL     1      -4.458 -10.540  16.955  0.00  0.00    +0.047 A 
ATOM     16  C   UNL     1      -3.696 -10.772  14.855  0.00  0.00    +0.087 A 
ATOM     17  C   UNL     1      -6.908 -10.006  18.062  0.00  0.00    +0.006 A 
ATOM     20  C   UNL     1      -4.544 -10.432  18.344  0.00  0.00    +0.026 A 
ATOM     23  C   UNL     1      -5.792 -10.148  18.885  0.00  0.00    +0.002 A 
ATOM     26  H   UNL     1      -7.922 -11.431  14.394  0.00  0.00    +0.123 HD
ATOM     27  H   UNL     1      -2.417 -10.926  16.529  0.00  0.00    +0.165 HD
ENDROOT
BRANCH   7  14
ATOM      1  O   UNL     1      -5.459  -8.265   9.073  0.00  0.00    -0.377 OA
ATOM      2  O   UNL     1      -9.017  -9.757  12.168  0.00  0.00    -0.274 OA
ATOM      4  N   UNL     1      -6.949  -9.417  11.169  0.00  0.00    -0.296 N 
ATOM     14  C   UNL     1      -7.794  -9.630  12.256  0.00  0.00    +0.233 C 
ATOM     18  C   UNL     1      -5.483  -9.388  11.224  0.00  0.00    +0.136 C 
ATOM     19  C   UNL     1      -7.502  -9.332   9.818  0.00  0.00    +0.136 C 
ATOM     24  C   UNL     1      -4.948  -8.217  10.408  0.00  0.00    +0.179 C 
ATOM     25  C   UNL     1      -6.886  -8.161   9.066  0.00  0.00    +0.179 C 
ENDBRANCH   7  14
BRANCH   6  10
ATOM     10  C   UNL     1      -9.332 -10.727  16.451  0.00  0.00    +0.026 C 
BRANCH  10  13
ATOM     13  C   UNL     1     -10.419  -9.790  16.986  0.00  0.00    -0.015 C 
ATOM     21  C   UNL     1      -9.989  -8.339  16.762  0.00  0.00    +0.007 C 
ATOM     22  C   UNL     1     -10.719 -10.018  18.467  0.00  0.00    +0.007 C 
ENDBRANCH  10  13
ENDBRANCH   6  10
TORSDOF 3
ENDMDL
MODEL 4
REMARK VINA RESULT:      -4.3      2.116      4.037
REMARK  Name = 51137966
REMARK  5 active torsions:
REMARK  status: ('A' for Active; 'I' for Inactive)
REMARK    1  A    between atoms: C_6  and  C_10
REMARK    2  A    between atoms: C_7  and  C_14
REMARK    3  A    between atoms: C_10  and  C_13
REMARK    4  A    between atoms: C_13  and  C_21
REMARK    5  A    between atoms: C_13  and  C_22
REMARK                            x       y       z     vdW  Elec       q    Type
REMARK                         _______ _______ _______ _____ _____    ______ ____
ROOT
ATOM      3  N   UNL     1      -7.010 -10.448  14.087  0.00  0.00    -0.299 NA
ATOM      5  N   UNL     1      -2.150 -10.781  12.754  0.00  0.00    -0.360 N 
ATOM      6  C   UNL     1      -6.244 -10.012  15.262  0.00  0.00    +0.085 C 
ATOM      7  C   UNL     1      -6.731  -9.704  12.868  0.00  0.00    +0.145 C 
ATOM      8  C   UNL     1      -4.725 -10.195  15.176  0.00  0.00    -0.021 A 
ATOM      9  C   UNL     1      -5.716 -10.430  11.987  0.00  0.00    +0.065 C 
ATOM     11  C   UNL     1      -3.992 -10.420  13.976  0.00  0.00    +0.008 A 
ATOM     12  C   UNL     1      -4.354 -10.531  12.589  0.00  0.00    -0.020 A 
ATOM     15  C   UNL     1      -2.600 -10.558  14.033  0.00  0.00    +0.047 A 
ATOM     16  C   UNL     1      -3.195 -10.761  11.877  0.00  0.00    +0.087 A 
ATOM     17  C   UNL     1      -3.958 -10.057  16.361  0.00  0.00    +0.006 A 
ATOM     20  C   UNL     1      -1.867 -10.465  15.217  0.00  0.00    +0.026 A 
ATOM     23  C   UNL     1      -2.572 -10.198  16.385  0.00  0.00    +0.002 A 
ATOM     26  H   UNL     1      -6.907 -11.451  13.937  0.00  0.00    +0.123 HD
ATOM     27  H   UNL     1      -1.182 -10.922  12.499  0.00  0.00    +0.165 HD
ENDROOT
BRANCH   7  14
ATOM      1  O   UNL     1      -8.055  -7.786   8.396  0.00  0.00    -0.377 OA
ATOM      2  O   UNL     1      -9.082  -9.894  12.751  0.00  0.00    -0.274 OA
ATOM      4  N   UNL     1      -7.991  -9.242  10.807  0.00  0.00    -0.296 N 
ATOM     14  C   UNL     1      -8.041  -9.626  12.145  0.00  0.00    +0.233 C 
ATOM     18  C   UNL     1      -6.767  -9.041  10.024  0.00  0.00    +0.136 C 
ATOM     19  C   UNL     1      -9.226  -9.137  10.029  0.00  0.00    +0.136 C 
ATOM     24  C   UNL     1      -6.873  -7.764   9.200  0.00  0.00    +0.179 C 
ATOM     25  C   UNL     1      -9.229  -7.854   9.211  0.00  0.00    +0.179 C 
ENDBRANCH   7  14
BRANCH   6  10
ATOM     10  C   UNL     1      -6.866 -10.781  16.441  0.00  0.00    +0.026 C 
BRANCH  10  13
ATOM     13  C   UNL     1      -7.637  -9.876  17.406  0.00  0.00    -0.015 C 
ATOM     21  C   UNL     1      -8.158 -10.714  18.576  0.00  0.00    +0.007 C 
ATOM     22  C   UNL     1      -8.802  -9.150  16.732  0.00  0.00    +0.007 C 
ENDBRANCH  10  13
ENDBRANCH   6  10
TORSDOF 3
ENDMDL
MODEL 5
REMARK VINA RESULT:      -3.4      1.816      4.273
REMARK  Name = 51137966
REMARK  5 active torsions:
REMARK  status: ('A' for Active; 'I' for Inactive)
REMARK    1  A    between atoms: C_6  and  C_10
REMARK    2  A    between atoms: C_7  and  C_14
REMARK    3  A    between atoms: C_10  and  C_13
REMARK    4  A    between atoms: C_13  and  C_21
REMARK    5  A    between atoms: C_13  and  C_22
REMARK                            x       y       z     vdW  Elec       q    Type
REMARK                         _______ _______ _______ _____ _____    ______ ____
ROOT
ATOM      3  N   UNL     1      -6.099  -9.964  14.246  0.00  0.00    -0.299 NA
ATOM      5  N   UNL     1      -8.700  -9.941  18.575  0.00  0.00    -0.360 N 
ATOM      6  C   UNL     1      -5.203 -10.551  15.252  0.00  0.00    +0.085 C 
ATOM      7  C   UNL     1      -7.384 -10.635  14.110  0.00  0.00    +0.145 C 
ATOM      8  C   UNL     1      -5.695 -10.490  16.702  0.00  0.00    -0.021 A 
ATOM      9  C   UNL     1      -8.473  -9.932  14.917  0.00  0.00    +0.065 C 
ATOM     11  C   UNL     1      -7.038 -10.237  17.103  0.00  0.00    +0.008 A 
ATOM     12  C   UNL     1      -8.264  -9.992  16.394  0.00  0.00    -0.020 A 
ATOM     15  C   UNL     1      -7.359 -10.222  18.466  0.00  0.00    +0.047 A 
ATOM     16  C   UNL     1      -9.256  -9.807  17.336  0.00  0.00    +0.087 A 
ATOM     17  C   UNL     1      -4.776 -10.781  17.742  0.00  0.00    +0.006 A 
ATOM     20  C   UNL     1      -6.429 -10.465  19.478  0.00  0.00    +0.026 A 
ATOM     23  C   UNL     1      -5.127 -10.759  19.090  0.00  0.00    +0.002 A 
ATOM     26  H   UNL     1      -6.221  -8.964  14.406  0.00  0.00    +0.123 HD
ATOM     27  H   UNL     1      -9.205  -9.864  19.448  0.00  0.00    +0.165 HD
ENDROOT
BRANCH   7  14
ATOM      1  O   UNL     1      -4.601  -9.670  10.016  0.00  0.00    -0.377 OA
ATOM      2  O   UNL     1      -8.904 -10.512  12.306  0.00  0.00    -0.274 OA
ATOM      4  N   UNL     1      -6.645 -10.504  11.767  0.00  0.00    -0.296 N 
ATOM     14  C   UNL     1      -7.720 -10.547  12.652  0.00  0.00    +0.233 C 
ATOM     18  C   UNL     1      -5.234 -10.670  12.134  0.00  0.00    +0.136 C 
ATOM     19  C   UNL     1      -6.885 -10.414  10.327  0.00  0.00    +0.136 C 
ATOM     24  C   UNL     1      -4.380  -9.625  11.428  0.00  0.00    +0.179 C 
ATOM     25  C   UNL     1      -5.965  -9.376   9.701  0.00  0.00    +0.179 C 
ENDBRANCH   7  14
BRANCH   6  10
ATOM     10  C   UNL     1      -3.862  -9.823  15.052  0.00  0.00    +0.026 C 
BRANCH  10  13
ATOM     13  C   UNL     1      -2.689 -10.781  14.827  0.00  0.00    -0.015 C 
ATOM     21  C   UNL     1      -1.677 -10.614  15.963  0.00  0.00    +0.007 C 
ATOM     22  C   UNL     1      -1.997 -10.561  13.481  0.00  0.00    +0.007 C 
ENDBRANCH  10  13
ENDBRANCH   6  10
TORSDOF 3
ENDMDL
MODEL 6
REMARK VINA RESULT:      -3.3     14.368     16.750
REMARK  Name = 51137966
REMARK  5 active torsions:
REMARK  status: ('A' for Active; 'I' for Inactive)
REMARK    1  A    between atoms: C_6  and  C_10
REMARK    2  A    between atoms: C_7  and  C_14
REMARK    3  A    between atoms: C_10  and  C_13
REMARK    4  A    between atoms: C_13  and  C_21
REMARK    5  A    between atoms: C_13  and  C_22
REMARK                            x       y       z     vdW  Elec       q    Type
REMARK                         _______ _______ _______ _____ _____    ______ ____
ROOT
ATOM      3  N   UNL     1      -1.594   0.792  25.520  0.00  0.00    -0.299 NA
ATOM      5  N   UNL     1      -5.013   4.507  25.639  0.00  0.00    -0.360 N 
ATOM      6  C   UNL     1      -2.846   0.196  25.035  0.00  0.00    +0.085 C 
ATOM      7  C   UNL     1      -1.148   1.962  24.778  0.00  0.00    +0.145 C 
ATOM      8  C   UNL     1      -4.094   1.078  25.147  0.00  0.00    -0.021 A 
ATOM      9  C   UNL     1      -1.572   3.258  25.465  0.00  0.00    +0.065 C 
ATOM     11  C   UNL     1      -4.087   2.488  25.351  0.00  0.00    +0.008 A 
ATOM     12  C   UNL     1      -3.049   3.473  25.494  0.00  0.00    -0.020 A 
ATOM     15  C   UNL     1      -5.301   3.181  25.423  0.00  0.00    +0.047 A 
ATOM     16  C   UNL     1      -3.662   4.695  25.678  0.00  0.00    +0.087 A 
ATOM     17  C   UNL     1      -5.366   0.480  24.960  0.00  0.00    +0.006 A 
ATOM     20  C   UNL     1      -6.546   2.566  25.282  0.00  0.00    +0.026 A 
ATOM     23  C   UNL     1      -6.558   1.198  25.036  0.00  0.00    +0.002 A 
ATOM     26  H   UNL     1      -1.648   0.989  26.519  0.00  0.00    +0.123 HD
ATOM     27  H   UNL     1      -5.703   5.240  25.736  0.00  0.00    +0.165 HD
ENDROOT
BRANCH   7  14
ATOM      1  O   UNL     1       2.112  -0.547  21.863  0.00  0.00    -0.377 OA
ATOM      2  O   UNL     1       0.984   2.327  25.726  0.00  0.00    -0.274 OA
ATOM      4  N   UNL     1       0.930   1.275  23.656  0.00  0.00    -0.296 N 
ATOM     14  C   UNL     1       0.347   1.877  24.770  0.00  0.00    +0.233 C 
ATOM     18  C   UNL     1       0.215   0.846  22.449  0.00  0.00    +0.136 C 
ATOM     19  C   UNL     1       2.385   1.148  23.571  0.00  0.00    +0.136 C 
ATOM     24  C   UNL     1       0.691  -0.536  22.019  0.00  0.00    +0.179 C 
ATOM     25  C   UNL     1       2.767  -0.248  23.098  0.00  0.00    +0.179 C 
ENDBRANCH   7  14
BRANCH   6  10
ATOM     10  C   UNL     1      -2.981  -1.121  25.820  0.00  0.00    +0.026 C 
BRANCH  10  13
ATOM     13  C   UNL     1      -2.972  -2.358  24.918  0.00  0.00    -0.015 C 
ATOM     21  C   UNL     1      -1.604  -2.481  24.244  0.00  0.00    +0.007 C 
ATOM     22  C   UNL     1      -4.071  -2.321  23.855  0.00  0.00    +0.007 C 
ENDBRANCH  10  13
ENDBRANCH   6  10
TORSDOF 3
ENDMDL
MODEL 7
REMARK VINA RESULT:      -3.2      1.372      2.405
REMARK  Name = 51137966
REMARK  5 active torsions:
REMARK  status: ('A' for Active; 'I' for Inactive)
REMARK    1  A    between atoms: C_6  and  C_10
REMARK    2  A    between atoms: C_7  and  C_14
REMARK    3  A    between atoms: C_10  and  C_13
REMARK    4  A    between atoms: C_13  and  C_21
REMARK    5  A    between atoms: C_13  and  C_22
REMARK                            x       y       z     vdW  Elec       q    Type
REMARK                         _______ _______ _______ _____ _____    ______ ____
ROOT
ATOM      3  N   UNL     1      -7.241 -10.345  13.632  0.00  0.00    -0.299 NA
ATOM      5  N   UNL     1      -4.683 -10.781  17.964  0.00  0.00    -0.360 N 
ATOM      6  C   UNL     1      -8.154  -9.875  14.682  0.00  0.00    +0.085 C 
ATOM      7  C   UNL     1      -5.963  -9.649  13.579  0.00  0.00    +0.145 C 
ATOM      8  C   UNL     1      -7.676 -10.078  16.124  0.00  0.00    -0.021 A 
ATOM      9  C   UNL     1      -4.873 -10.418  14.323  0.00  0.00    +0.065 C 
ATOM     11  C   UNL     1      -6.333 -10.355  16.512  0.00  0.00    +0.008 A 
ATOM     12  C   UNL     1      -5.097 -10.512  15.795  0.00  0.00    -0.020 A 
ATOM     15  C   UNL     1      -6.025 -10.507  17.869  0.00  0.00    +0.047 A 
ATOM     16  C   UNL     1      -4.113 -10.781  16.724  0.00  0.00    +0.087 A 
ATOM     17  C   UNL     1      -8.609  -9.906  17.178  0.00  0.00    +0.006 A 
ATOM     20  C   UNL     1      -6.969 -10.380  18.890  0.00  0.00    +0.026 A 
ATOM     23  C   UNL     1      -8.270 -10.062  18.520  0.00  0.00    +0.002 A 
ATOM     26  H   UNL     1      -7.107 -11.354  13.690  0.00  0.00    +0.123 HD
ATOM     27  H   UNL     1      -4.186 -10.942  18.830  0.00  0.00    +0.165 HD
ENDROOT
BRANCH   7  14
ATOM      1  O   UNL     1      -1.566  -9.849  11.119  0.00  0.00    -0.377 OA
ATOM      2  O   UNL     1      -6.470  -9.237  11.309  0.00  0.00    -0.274 OA
ATOM      4  N   UNL     1      -4.303  -9.920  11.785  0.00  0.00    -0.296 N 
ATOM     14  C   UNL     1      -5.611  -9.583  12.124  0.00  0.00    +0.233 C 
ATOM     18  C   UNL     1      -3.296 -10.456  12.708  0.00  0.00    +0.136 C 
ATOM     19  C   UNL     1      -3.874  -9.878  10.387  0.00  0.00    +0.136 C 
ATOM     24  C   UNL     1      -1.958  -9.758  12.491  0.00  0.00    +0.179 C 
ATOM     25  C   UNL     1      -2.517  -9.201  10.269  0.00  0.00    +0.179 C 
ENDBRANCH   7  14
BRANCH   6  10
ATOM     10  C   UNL     1      -9.483 -10.595  14.393  0.00  0.00    +0.026 C 
BRANCH  10  13
ATOM     13  C   UNL     1     -10.536  -9.677  13.765  0.00  0.00    -0.015 C 
ATOM     21  C   UNL     1     -10.156  -9.395  12.310  0.00  0.00    +0.007 C 
ATOM     22  C   UNL     1     -10.696  -8.358  14.523  0.00  0.00    +0.007 C 
ENDBRANCH  10  13
ENDBRANCH   6  10
TORSDOF 3
ENDMDL
MODEL 8
REMARK VINA RESULT:      -2.0     14.389     16.681
REMARK  Name = 51137966
REMARK  5 active torsions:
REMARK  status: ('A' for Active; 'I' for Inactive)
REMARK    1  A    between atoms: C_6  and  C_10
REMARK    2  A    between atoms: C_7  and  C_14
REMARK    3  A    between atoms: C_10  and  C_13
REMARK    4  A    between atoms: C_13  and  C_21
REMARK    5  A    between atoms: C_13  and  C_22
REMARK                            x       y       z     vdW  Elec       q    Type
REMARK                         _______ _______ _______ _____ _____    ______ ____
ROOT
ATOM      3  N   UNL     1      -1.681  -0.135  24.754  0.00  0.00    -0.299 NA
ATOM      5  N   UNL     1      -2.065   4.865  25.349  0.00  0.00    -0.360 N 
ATOM      6  C   UNL     1      -3.114   0.170  24.644  0.00  0.00    +0.085 C 
ATOM      7  C   UNL     1      -0.831   0.588  23.820  0.00  0.00    +0.145 C 
ATOM      8  C   UNL     1      -3.518   1.611  24.972  0.00  0.00    -0.021 A 
ATOM      9  C   UNL     1      -0.215   1.828  24.465  0.00  0.00    +0.065 C 
ATOM     11  C   UNL     1      -2.625   2.720  25.035  0.00  0.00    +0.008 A 
ATOM     12  C   UNL     1      -1.211   2.878  24.831  0.00  0.00    -0.020 A 
ATOM     15  C   UNL     1      -3.126   3.992  25.334  0.00  0.00    +0.047 A 
ATOM     16  C   UNL     1      -0.910   4.208  25.042  0.00  0.00    +0.087 A 
ATOM     17  C   UNL     1      -4.893   1.905  25.155  0.00  0.00    +0.006 A 
ATOM     20  C   UNL     1      -4.479   4.253  25.557  0.00  0.00    +0.026 A 
ATOM     23  C   UNL     1      -5.361   3.184  25.449  0.00  0.00    +0.002 A 
ATOM     26  H   UNL     1      -1.357  -0.018  25.714  0.00  0.00    +0.123 HD
ATOM     27  H   UNL     1      -2.135   5.855  25.542  0.00  0.00    +0.165 HD
ENDROOT
BRANCH   7  14
ATOM      1  O   UNL     1       4.016   1.241  22.594  0.00  0.00    -0.377 OA
ATOM      2  O   UNL     1      -0.022  -1.547  23.214  0.00  0.00    -0.274 OA
ATOM      4  N   UNL     1       1.555   0.146  23.418  0.00  0.00    -0.296 N 
ATOM     14  C   UNL     1       0.262  -0.371  23.459  0.00  0.00    +0.233 C 
ATOM     18  C   UNL     1       1.942   1.501  23.825  0.00  0.00    +0.136 C 
ATOM     19  C   UNL     1       2.680  -0.722  23.070  0.00  0.00    +0.136 C 
ATOM     24  C   UNL     1       2.897   2.105  22.803  0.00  0.00    +0.179 C 
ATOM     25  C   UNL     1       3.598  -0.025  22.076  0.00  0.00    +0.179 C 
ENDBRANCH   7  14
BRANCH   6  10
ATOM     10  C   UNL     1      -3.803  -0.859  25.558  0.00  0.00    +0.026 C 
BRANCH  10  13
ATOM     13  C   UNL     1      -3.924  -2.244  24.915  0.00  0.00    -0.015 C 
ATOM     21  C   UNL     1      -2.566  -2.948  24.975  0.00  0.00    +0.007 C 
ATOM     22  C   UNL     1      -4.410  -2.181  23.467  0.00  0.00    +0.007 C 
ENDBRANCH  10  13
ENDBRANCH   6  10
TORSDOF 3
ENDMDL
MODEL 9
REMARK VINA RESULT:      -1.4      1.777      4.243
REMARK  Name = 51137966
REMARK  5 active torsions:
REMARK  status: ('A' for Active; 'I' for Inactive)
REMARK    1  A    between atoms: C_6  and  C_10
REMARK    2  A    between atoms: C_7  and  C_14
REMARK    3  A    between atoms: C_10  and  C_13
REMARK    4  A    between atoms: C_13  and  C_21
REMARK    5  A    between atoms: C_13  and  C_22
REMARK                            x       y       z     vdW  Elec       q    Type
REMARK                         _______ _______ _______ _____ _____    ______ ____
ROOT
ATOM      3  N   UNL     1      -3.912  -9.689  13.716  0.00  0.00    -0.299 NA
ATOM      5  N   UNL     1      -8.467  -9.470  15.885  0.00  0.00    -0.360 N 
ATOM      6  C   UNL     1      -3.780 -10.404  14.992  0.00  0.00    +0.085 C 
ATOM      7  C   UNL     1      -4.955 -10.199  12.837  0.00  0.00    +0.145 C 
ATOM      8  C   UNL     1      -4.987 -10.323  15.932  0.00  0.00    -0.021 A 
ATOM      9  C   UNL     1      -6.245  -9.393  12.971  0.00  0.00    +0.065 C 
ATOM     11  C   UNL     1      -6.300  -9.923  15.549  0.00  0.00    +0.008 A 
ATOM     12  C   UNL     1      -6.899  -9.516  14.308  0.00  0.00    -0.020 A 
ATOM     15  C   UNL     1      -7.321  -9.905  16.506  0.00  0.00    +0.047 A 
ATOM     16  C   UNL     1      -8.227  -9.239  14.562  0.00  0.00    +0.087 A 
ATOM     17  C   UNL     1      -4.829 -10.748  17.276  0.00  0.00    +0.006 A 
ATOM     20  C   UNL     1      -7.135 -10.283  17.837  0.00  0.00    +0.026 A 
ATOM     23  C   UNL     1      -5.868 -10.719  18.205  0.00  0.00    +0.002 A 
ATOM     26  H   UNL     1      -4.017  -8.687  13.869  0.00  0.00    +0.123 HD
ATOM     27  H   UNL     1      -9.363  -9.356  16.339  0.00  0.00    +0.165 HD
ENDROOT
BRANCH   7  14
ATOM      1  O   UNL     1      -7.102 -10.490   8.285  0.00  0.00    -0.377 OA
ATOM      2  O   UNL     1      -3.195  -9.995  11.276  0.00  0.00    -0.274 OA
ATOM      4  N   UNL     1      -5.355  -9.940  10.425  0.00  0.00    -0.296 N 
ATOM     14  C   UNL     1      -4.415 -10.034  11.449  0.00  0.00    +0.233 C 
ATOM     18  C   UNL     1      -6.807  -9.855  10.608  0.00  0.00    +0.136 C 
ATOM     19  C   UNL     1      -4.913  -9.782   9.039  0.00  0.00    +0.136 C 
ATOM     24  C   UNL     1      -7.517 -10.777   9.623  0.00  0.00    +0.179 C 
ATOM     25  C   UNL     1      -5.699 -10.710   8.124  0.00  0.00    +0.179 C 
ENDBRANCH   7  14
BRANCH   6  10
ATOM     10  C   UNL     1      -2.498  -9.835  15.627  0.00  0.00    +0.026 C 
BRANCH  10  13
ATOM     13  C   UNL     1      -1.219 -10.376  14.980  0.00  0.00    -0.015 C 
ATOM     21  C   UNL     1      -0.038 -10.139  15.923  0.00  0.00    +0.007 C 
ATOM     22  C   UNL     1      -0.931  -9.738  13.620  0.00  0.00    +0.007 C 
ENDBRANCH  10  13
ENDBRANCH   6  10
TORSDOF 3
ENDMDL
MODEL 10
REMARK VINA RESULT:      -1.0      2.505      3.946
REMARK  Name = 51137966
REMARK  5 active torsions:
REMARK  status: ('A' for Active; 'I' for Inactive)
REMARK    1  A    between atoms: C_6  and  C_10
REMARK    2  A    between atoms: C_7  and  C_14
REMARK    3  A    between atoms: C_10  and  C_13
REMARK    4  A    between atoms: C_13  and  C_21
REMARK    5  A    between atoms: C_13  and  C_22
REMARK                            x       y       z     vdW  Elec       q    Type
REMARK                         _______ _______ _______ _____ _____    ______ ____
ROOT
ATOM      3  N   UNL     1      -4.720 -10.636  11.685  0.00  0.00    -0.299 NA
ATOM      5  N   UNL     1      -5.388 -10.585  16.691  0.00  0.00    -0.360 N 
ATOM      6  C   UNL     1      -6.018  -9.985  11.907  0.00  0.00    +0.085 C 
ATOM      7  C   UNL     1      -3.600 -10.012  12.375  0.00  0.00    +0.145 C 
ATOM      8  C   UNL     1      -6.540 -10.009  13.347  0.00  0.00    -0.021 A 
ATOM      9  C   UNL     1      -3.286 -10.719  13.692  0.00  0.00    +0.065 C 
ATOM     11  C   UNL     1      -5.754 -10.289  14.501  0.00  0.00    +0.008 A 
ATOM     12  C   UNL     1      -4.366 -10.599  14.715  0.00  0.00    -0.020 A 
ATOM     15  C   UNL     1      -6.353 -10.266  15.766  0.00  0.00    +0.047 A 
ATOM     16  C   UNL     1      -4.188 -10.781  16.071  0.00  0.00    +0.087 A 
ATOM     17  C   UNL     1      -7.892  -9.651  13.583  0.00  0.00    +0.006 A 
ATOM     20  C   UNL     1      -7.698  -9.957  15.974  0.00  0.00    +0.026 A 
ATOM     23  C   UNL     1      -8.459  -9.635  14.856  0.00  0.00    +0.002 A 
ATOM     26  H   UNL     1      -4.771 -11.633  11.895  0.00  0.00    +0.123 HD
ATOM     27  H   UNL     1      -5.542 -10.646  17.688  0.00  0.00    +0.165 HD
ENDROOT
BRANCH   7  14
ATOM      1  O   UNL     1       0.942  -7.827  12.218  0.00  0.00    -0.377 OA
ATOM      2  O   UNL     1      -2.577 -10.781  10.389  0.00  0.00    -0.274 OA
ATOM      4  N   UNL     1      -1.236  -9.576  11.852  0.00  0.00    -0.296 N 
ATOM     14  C   UNL     1      -2.433 -10.163  11.447  0.00  0.00    +0.233 C 
ATOM     18  C   UNL     1      -0.996  -8.946  13.155  0.00  0.00    +0.136 C 
ATOM     19  C   UNL     1      -0.049  -9.672  11.003  0.00  0.00    +0.136 C 
ATOM     24  C   UNL     1      -0.255  -7.626  12.974  0.00  0.00    +0.179 C 
ATOM     25  C   UNL     1       0.647  -8.322  10.910  0.00  0.00    +0.179 C 
ENDBRANCH   7  14
BRANCH   6  10
ATOM     10  C   UNL     1      -6.974 -10.677  10.920  0.00  0.00    +0.026 C 
BRANCH  10  13
ATOM     13  C   UNL     1      -7.231  -9.850   9.656  0.00  0.00    -0.015 C 
ATOM     21  C   UNL     1      -6.824 -10.667   8.428  0.00  0.00    +0.007 C 
ATOM     22  C   UNL     1      -6.483  -8.516   9.662  0.00  0.00    +0.007 C 
ENDBRANCH  10  13
ENDBRANCH   6  10
TORSDOF 3
ENDMDL
