MODEL 1
REMARK VINA RESULT:      -4.0      0.000      0.000
REMARK  Name = 75536699
REMARK  8 active torsions:
REMARK  status: ('A' for Active; 'I' for Inactive)
REMARK    1  A    between atoms: S_1  and  N_7
REMARK    2  A    between atoms: S_1  and  C_19
REMARK    3  A    between atoms: O_3  and  C_10
REMARK    4  A    between atoms: N_6  and  C_8
REMARK    5  A    between atoms: N_6  and  C_9
REMARK    6  A    between atoms: N_7  and  C_18
REMARK    7  A    between atoms: C_11  and  C_18
REMARK    8  A    between atoms: C_24  and  C_25
REMARK                            x       y       z     vdW  Elec       q    Type
REMARK                         _______ _______ _______ _____ _____    ______ ____
ROOT
ATOM      2  O   UNL     1      -0.917   1.062  26.112  0.00  0.00    -0.371 OA
ATOM      8  C   UNL     1       0.559   0.975  24.253  0.00  0.00    +0.111 C 
ATOM     10  C   UNL     1      -0.185   2.297  24.234  0.00  0.00    +0.164 C 
ATOM     11  C   UNL     1      -0.632   2.404  25.685  0.00  0.00    +0.164 C 
ATOM     14  C   UNL     1      -0.324   0.148  25.173  0.00  0.00    +0.181 C 
ENDROOT
BRANCH  10   3
ATOM      3  O   UNL     1       0.640   3.382  23.855  0.00  0.00    -0.388 OA
ATOM     27  H   UNL     1       1.553   3.179  24.121  0.00  0.00    +0.210 HD
ENDBRANCH  10   3
BRANCH   8   6
ATOM      6  N   UNL     1       0.721   0.378  22.937  0.00  0.00    -0.306 NA
ATOM     26  H   UNL     1       0.399   1.024  22.216  0.00  0.00    +0.123 HD
BRANCH   6   9
ATOM      9  C   UNL     1       2.119   0.025  22.698  0.00  0.00    +0.054 C 
ATOM     12  C   UNL     1       2.558  -1.060  23.688  0.00  0.00    +0.019 C 
ATOM     13  C   UNL     1       3.000   1.273  22.821  0.00  0.00    +0.019 C 
ATOM     15  C   UNL     1       4.038  -1.401  23.519  0.00  0.00    +0.002 C 
ATOM     16  C   UNL     1       4.479   0.929  22.653  0.00  0.00    +0.002 C 
ATOM     17  C   UNL     1       4.917  -0.160  23.628  0.00  0.00    +0.000 C 
ENDBRANCH   6   9
ENDBRANCH   8   6
BRANCH  11  18
ATOM     18  C   UNL     1      -1.862   3.273  25.873  0.00  0.00    +0.140 C 
BRANCH  18   7
ATOM      7  N   UNL     1      -2.396   3.670  24.555  0.00  0.00    -0.187 NA
ATOM     28  H   UNL     1      -2.004   4.532  24.157  0.00  0.00    +0.148 HD
BRANCH   7   1
ATOM      1  S   UNL     1      -3.968   3.209  24.099  0.00  0.00    +0.058 S 
ATOM      4  O   UNL     1      -4.184   3.548  22.705  0.00  0.00    -0.153 OA
ATOM      5  O   UNL     1      -4.905   3.659  25.111  0.00  0.00    -0.153 OA
BRANCH   1  19
ATOM     19  C   UNL     1      -3.880   1.448  24.224  0.00  0.00    +0.105 A 
ATOM     20  C   UNL     1      -4.341   0.807  25.374  0.00  0.00    +0.029 A 
ATOM     21  C   UNL     1      -3.346   0.700  23.175  0.00  0.00    +0.029 A 
ATOM     22  C   UNL     1      -4.268  -0.582  25.474  0.00  0.00    +0.005 A 
ATOM     23  C   UNL     1      -3.274  -0.689  23.275  0.00  0.00    +0.005 A 
ATOM     24  C   UNL     1      -3.735  -1.331  24.425  0.00  0.00    -0.050 A 
ATOM     25  C   UNL     1      -3.657  -2.816  24.532  0.00  0.00    +0.044 C 
ENDBRANCH   1  19
ENDBRANCH   7   1
ENDBRANCH  18   7
ENDBRANCH  11  18
TORSDOF 7
ENDMDL
MODEL 2
REMARK VINA RESULT:      -4.0     14.978     17.587
REMARK  Name = 75536699
REMARK  8 active torsions:
REMARK  status: ('A' for Active; 'I' for Inactive)
REMARK    1  A    between atoms: S_1  and  N_7
REMARK    2  A    between atoms: S_1  and  C_19
REMARK    3  A    between atoms: O_3  and  C_10
REMARK    4  A    between atoms: N_6  and  C_8
REMARK    5  A    between atoms: N_6  and  C_9
REMARK    6  A    between atoms: N_7  and  C_18
REMARK    7  A    between atoms: C_11  and  C_18
REMARK    8  A    between atoms: C_24  and  C_25
REMARK                            x       y       z     vdW  Elec       q    Type
REMARK                         _______ _______ _______ _____ _____    ______ ____
ROOT
ATOM      2  O   UNL     1      -4.049 -10.588  15.010  0.00  0.00    -0.371 OA
ATOM      8  C   UNL     1      -6.325 -10.097  15.480  0.00  0.00    +0.111 C 
ATOM     10  C   UNL     1      -6.084  -9.952  13.989  0.00  0.00    +0.164 C 
ATOM     11  C   UNL     1      -4.820 -10.781  13.813  0.00  0.00    +0.164 C 
ATOM     14  C   UNL     1      -4.906 -10.028  16.021  0.00  0.00    +0.181 C 
ENDROOT
BRANCH  10   3
ATOM      3  O   UNL     1      -7.155 -10.452  13.212  0.00  0.00    -0.388 OA
ATOM     27  H   UNL     1      -7.343  -9.814  12.503  0.00  0.00    +0.210 HD
ENDBRANCH  10   3
BRANCH   8   6
ATOM      6  N   UNL     1      -7.191  -9.069  16.033  0.00  0.00    -0.306 NA
ATOM     26  H   UNL     1      -7.515  -8.446  15.293  0.00  0.00    +0.123 HD
BRANCH   6   9
ATOM      9  C   UNL     1      -8.338  -9.670  16.712  0.00  0.00    +0.054 C 
ATOM     12  C   UNL     1      -9.459  -8.635  16.856  0.00  0.00    +0.019 C 
ATOM     13  C   UNL     1      -7.908 -10.213  18.079  0.00  0.00    +0.019 C 
ATOM     15  C   UNL     1     -10.647  -9.206  17.630  0.00  0.00    +0.002 C 
ATOM     16  C   UNL     1      -9.098 -10.781  18.851  0.00  0.00    +0.002 C 
ATOM     17  C   UNL     1     -10.222  -9.758  18.987  0.00  0.00    +0.000 C 
ENDBRANCH   6   9
ENDBRANCH   8   6
BRANCH  11  18
ATOM     18  C   UNL     1      -3.998 -10.376  12.603  0.00  0.00    +0.140 C 
BRANCH  18   7
ATOM      7  N   UNL     1      -4.770 -10.631  11.371  0.00  0.00    -0.187 NA
ATOM     28  H   UNL     1      -5.082 -11.599  11.232  0.00  0.00    +0.148 HD
BRANCH   7   1
ATOM      1  S   UNL     1      -4.534  -9.651  10.000  0.00  0.00    +0.058 S 
ATOM      4  O   UNL     1      -4.117 -10.478   8.884  0.00  0.00    -0.153 OA
ATOM      5  O   UNL     1      -3.752  -8.490  10.379  0.00  0.00    -0.153 OA
BRANCH   1  19
ATOM     19  C   UNL     1      -6.175  -9.083   9.673  0.00  0.00    +0.105 A 
ATOM     20  C   UNL     1      -7.271  -9.833  10.099  0.00  0.00    +0.029 A 
ATOM     21  C   UNL     1      -6.375  -7.884   8.987  0.00  0.00    +0.029 A 
ATOM     22  C   UNL     1      -8.566  -9.385   9.838  0.00  0.00    +0.005 A 
ATOM     23  C   UNL     1      -7.669  -7.437   8.727  0.00  0.00    +0.005 A 
ATOM     24  C   UNL     1      -8.766  -8.188   9.152  0.00  0.00    -0.050 A 
ATOM     25  C   UNL     1     -10.151  -7.709   8.874  0.00  0.00    +0.044 C 
ENDBRANCH   1  19
ENDBRANCH   7   1
ENDBRANCH  18   7
ENDBRANCH  11  18
TORSDOF 7
ENDMDL
MODEL 3
REMARK VINA RESULT:      -3.9      1.803      2.254
REMARK  Name = 75536699
REMARK  8 active torsions:
REMARK  status: ('A' for Active; 'I' for Inactive)
REMARK    1  A    between atoms: S_1  and  N_7
REMARK    2  A    between atoms: S_1  and  C_19
REMARK    3  A    between atoms: O_3  and  C_10
REMARK    4  A    between atoms: N_6  and  C_8
REMARK    5  A    between atoms: N_6  and  C_9
REMARK    6  A    between atoms: N_7  and  C_18
REMARK    7  A    between atoms: C_11  and  C_18
REMARK    8  A    between atoms: C_24  and  C_25
REMARK                            x       y       z     vdW  Elec       q    Type
REMARK                         _______ _______ _______ _____ _____    ______ ____
ROOT
ATOM      2  O   UNL     1      -1.813   3.830  26.262  0.00  0.00    -0.371 OA
ATOM      8  C   UNL     1      -0.782   2.392  24.678  0.00  0.00    +0.111 C 
ATOM     10  C   UNL     1      -2.248   2.551  24.321  0.00  0.00    +0.164 C 
ATOM     11  C   UNL     1      -2.590   3.841  25.053  0.00  0.00    +0.164 C 
ATOM     14  C   UNL     1      -0.775   2.843  26.129  0.00  0.00    +0.181 C 
ENDROOT
BRANCH  10   3
ATOM      3  O   UNL     1      -2.462   2.662  22.928  0.00  0.00    -0.388 OA
ATOM     27  H   UNL     1      -2.176   1.834  22.507  0.00  0.00    +0.210 HD
ENDBRANCH  10   3
BRANCH   8   6
ATOM      6  N   UNL     1      -0.283   1.037  24.504  0.00  0.00    -0.306 NA
ATOM     26  H   UNL     1      -1.059   0.396  24.339  0.00  0.00    +0.123 HD
BRANCH   6   9
ATOM      9  C   UNL     1       0.659   0.972  23.388  0.00  0.00    +0.054 C 
ATOM     12  C   UNL     1       0.632  -0.428  22.765  0.00  0.00    +0.019 C 
ATOM     13  C   UNL     1       2.067   1.334  23.874  0.00  0.00    +0.019 C 
ATOM     15  C   UNL     1       1.661  -0.557  21.642  0.00  0.00    +0.002 C 
ATOM     16  C   UNL     1       3.094   1.202  22.750  0.00  0.00    +0.002 C 
ATOM     17  C   UNL     1       3.062  -0.186  22.118  0.00  0.00    +0.000 C 
ENDBRANCH   6   9
ENDBRANCH   8   6
BRANCH  11  18
ATOM     18  C   UNL     1      -4.064   3.968  25.392  0.00  0.00    +0.140 C 
BRANCH  18   7
ATOM      7  N   UNL     1      -4.849   3.051  24.543  0.00  0.00    -0.187 NA
ATOM     28  H   UNL     1      -5.154   3.431  23.639  0.00  0.00    +0.148 HD
BRANCH   7   1
ATOM      1  S   UNL     1      -5.775   1.814  25.255  0.00  0.00    +0.058 S 
ATOM      4  O   UNL     1      -6.971   1.593  24.465  0.00  0.00    -0.153 OA
ATOM      5  O   UNL     1      -5.878   2.062  26.681  0.00  0.00    -0.153 OA
BRANCH   1  19
ATOM     19  C   UNL     1      -4.721   0.410  25.052  0.00  0.00    +0.105 A 
ATOM     20  C   UNL     1      -3.869   0.022  26.085  0.00  0.00    +0.029 A 
ATOM     21  C   UNL     1      -4.739  -0.309  23.856  0.00  0.00    +0.029 A 
ATOM     22  C   UNL     1      -3.035  -1.084  25.923  0.00  0.00    +0.005 A 
ATOM     23  C   UNL     1      -3.905  -1.415  23.694  0.00  0.00    +0.005 A 
ATOM     24  C   UNL     1      -3.052  -1.803  24.728  0.00  0.00    -0.050 A 
ATOM     25  C   UNL     1      -2.161  -2.986  24.555  0.00  0.00    +0.044 C 
ENDBRANCH   1  19
ENDBRANCH   7   1
ENDBRANCH  18   7
ENDBRANCH  11  18
TORSDOF 7
ENDMDL
MODEL 4
REMARK VINA RESULT:      -3.8      2.087      5.645
REMARK  Name = 75536699
REMARK  8 active torsions:
REMARK  status: ('A' for Active; 'I' for Inactive)
REMARK    1  A    between atoms: S_1  and  N_7
REMARK    2  A    between atoms: S_1  and  C_19
REMARK    3  A    between atoms: O_3  and  C_10
REMARK    4  A    between atoms: N_6  and  C_8
REMARK    5  A    between atoms: N_6  and  C_9
REMARK    6  A    between atoms: N_7  and  C_18
REMARK    7  A    between atoms: C_11  and  C_18
REMARK    8  A    between atoms: C_24  and  C_25
REMARK                            x       y       z     vdW  Elec       q    Type
REMARK                         _______ _______ _______ _____ _____    ______ ____
ROOT
ATOM      2  O   UNL     1      -2.545   3.225  23.624  0.00  0.00    -0.371 OA
ATOM      8  C   UNL     1      -4.588   2.166  24.213  0.00  0.00    +0.111 C 
ATOM     10  C   UNL     1      -4.110   3.005  25.383  0.00  0.00    +0.164 C 
ATOM     11  C   UNL     1      -3.164   3.972  24.685  0.00  0.00    +0.164 C 
ATOM     14  C   UNL     1      -3.310   2.028  23.401  0.00  0.00    +0.181 C 
ENDROOT
BRANCH  10   3
ATOM      3  O   UNL     1      -5.166   3.681  26.038  0.00  0.00    -0.388 OA
ATOM     27  H   UNL     1      -5.993   3.202  25.859  0.00  0.00    +0.210 HD
ENDBRANCH  10   3
BRANCH   8   6
ATOM      6  N   UNL     1      -5.150   0.884  24.606  0.00  0.00    -0.306 NA
ATOM     26  H   UNL     1      -5.912   0.627  23.978  0.00  0.00    +0.123 HD
BRANCH   6   9
ATOM      9  C   UNL     1      -4.123  -0.156  24.591  0.00  0.00    +0.054 C 
ATOM     12  C   UNL     1      -4.617  -1.364  23.786  0.00  0.00    +0.019 C 
ATOM     13  C   UNL     1      -3.769  -0.558  26.027  0.00  0.00    +0.019 C 
ATOM     15  C   UNL     1      -3.599  -2.504  23.814  0.00  0.00    +0.002 C 
ATOM     16  C   UNL     1      -2.753  -1.698  26.052  0.00  0.00    +0.002 C 
ATOM     17  C   UNL     1      -3.234  -2.898  25.241  0.00  0.00    +0.000 C 
ENDBRANCH   6   9
ENDBRANCH   8   6
BRANCH  11  18
ATOM     18  C   UNL     1      -2.097   4.539  25.603  0.00  0.00    +0.140 C 
BRANCH  18   7
ATOM      7  N   UNL     1      -0.790   3.935  25.277  0.00  0.00    -0.187 NA
ATOM     28  H   UNL     1      -0.441   4.114  24.328  0.00  0.00    +0.148 HD
BRANCH   7   1
ATOM      1  S   UNL     1      -0.282   2.520  26.074  0.00  0.00    +0.058 S 
ATOM      4  O   UNL     1      -1.429   1.871  26.679  0.00  0.00    -0.153 OA
ATOM      5  O   UNL     1       0.889   2.823  26.874  0.00  0.00    -0.153 OA
BRANCH   1  19
ATOM     19  C   UNL     1       0.261   1.519  24.723  0.00  0.00    +0.105 A 
ATOM     20  C   UNL     1       1.394   1.883  23.996  0.00  0.00    +0.029 A 
ATOM     21  C   UNL     1      -0.444   0.365  24.382  0.00  0.00    +0.029 A 
ATOM     22  C   UNL     1       1.821   1.095  22.928  0.00  0.00    +0.005 A 
ATOM     23  C   UNL     1      -0.017  -0.424  23.314  0.00  0.00    +0.005 A 
ATOM     24  C   UNL     1       1.116  -0.059  22.586  0.00  0.00    -0.050 A 
ATOM     25  C   UNL     1       1.573  -0.903  21.444  0.00  0.00    +0.044 C 
ENDBRANCH   1  19
ENDBRANCH   7   1
ENDBRANCH  18   7
ENDBRANCH  11  18
TORSDOF 7
ENDMDL
MODEL 5
REMARK VINA RESULT:      -3.4      3.232      6.747
REMARK  Name = 75536699
REMARK  8 active torsions:
REMARK  status: ('A' for Active; 'I' for Inactive)
REMARK    1  A    between atoms: S_1  and  N_7
REMARK    2  A    between atoms: S_1  and  C_19
REMARK    3  A    between atoms: O_3  and  C_10
REMARK    4  A    between atoms: N_6  and  C_8
REMARK    5  A    between atoms: N_6  and  C_9
REMARK    6  A    between atoms: N_7  and  C_18
REMARK    7  A    between atoms: C_11  and  C_18
REMARK    8  A    between atoms: C_24  and  C_25
REMARK                            x       y       z     vdW  Elec       q    Type
REMARK                         _______ _______ _______ _____ _____    ______ ____
ROOT
ATOM      2  O   UNL     1      -1.568  -0.876  26.009  0.00  0.00    -0.371 OA
ATOM      8  C   UNL     1      -3.807  -0.832  25.219  0.00  0.00    +0.111 C 
ATOM     10  C   UNL     1      -2.962  -1.656  24.266  0.00  0.00    +0.164 C 
ATOM     11  C   UNL     1      -1.779  -2.012  25.155  0.00  0.00    +0.164 C 
ATOM     14  C   UNL     1      -2.741  -0.044  25.962  0.00  0.00    +0.181 C 
ENDROOT
BRANCH  10   3
ATOM      3  O   UNL     1      -3.635  -2.808  23.796  0.00  0.00    -0.388 OA
ATOM     27  H   UNL     1      -4.406  -2.522  23.278  0.00  0.00    +0.210 HD
ENDBRANCH  10   3
BRANCH   8   6
ATOM      6  N   UNL     1      -4.777   0.020  24.551  0.00  0.00    -0.306 NA
ATOM     26  H   UNL     1      -5.716  -0.362  24.660  0.00  0.00    +0.123 HD
BRANCH   6   9
ATOM      9  C   UNL     1      -4.729   1.379  25.089  0.00  0.00    +0.054 C 
ATOM     12  C   UNL     1      -5.974   1.644  25.944  0.00  0.00    +0.019 C 
ATOM     13  C   UNL     1      -4.621   2.390  23.942  0.00  0.00    +0.019 C 
ATOM     15  C   UNL     1      -5.996   3.082  26.461  0.00  0.00    +0.002 C 
ATOM     16  C   UNL     1      -4.646   3.826  24.462  0.00  0.00    +0.002 C 
ATOM     17  C   UNL     1      -5.876   4.091  25.324  0.00  0.00    +0.000 C 
ENDBRANCH   6   9
ENDBRANCH   8   6
BRANCH  11  18
ATOM     18  C   UNL     1      -0.511  -2.312  24.377  0.00  0.00    +0.140 C 
BRANCH  18   7
ATOM      7  N   UNL     1       0.463  -1.221  24.577  0.00  0.00    -0.187 NA
ATOM     28  H   UNL     1       0.590  -0.909  25.547  0.00  0.00    +0.148 HD
BRANCH   7   1
ATOM      1  S   UNL     1       0.770  -0.113  23.323  0.00  0.00    +0.058 S 
ATOM      4  O   UNL     1       0.026  -0.504  22.142  0.00  0.00    -0.153 OA
ATOM      5  O   UNL     1       2.200   0.121  23.239  0.00  0.00    -0.153 OA
BRANCH   1  19
ATOM     19  C   UNL     1       0.043   1.367  23.960  0.00  0.00    +0.105 A 
ATOM     20  C   UNL     1      -0.925   2.044  23.219  0.00  0.00    +0.029 A 
ATOM     21  C   UNL     1       0.440   1.859  25.204  0.00  0.00    +0.029 A 
ATOM     22  C   UNL     1      -1.496   3.213  23.721  0.00  0.00    +0.005 A 
ATOM     23  C   UNL     1      -0.132   3.028  25.706  0.00  0.00    +0.005 A 
ATOM     24  C   UNL     1      -1.100   3.705  24.964  0.00  0.00    -0.050 A 
ATOM     25  C   UNL     1      -1.711   4.956  25.501  0.00  0.00    +0.044 C 
ENDBRANCH   1  19
ENDBRANCH   7   1
ENDBRANCH  18   7
ENDBRANCH  11  18
TORSDOF 7
ENDMDL
MODEL 6
REMARK VINA RESULT:      -3.1      1.936      3.682
REMARK  Name = 75536699
REMARK  8 active torsions:
REMARK  status: ('A' for Active; 'I' for Inactive)
REMARK    1  A    between atoms: S_1  and  N_7
REMARK    2  A    between atoms: S_1  and  C_19
REMARK    3  A    between atoms: O_3  and  C_10
REMARK    4  A    between atoms: N_6  and  C_8
REMARK    5  A    between atoms: N_6  and  C_9
REMARK    6  A    between atoms: N_7  and  C_18
REMARK    7  A    between atoms: C_11  and  C_18
REMARK    8  A    between atoms: C_24  and  C_25
REMARK                            x       y       z     vdW  Elec       q    Type
REMARK                         _______ _______ _______ _____ _____    ______ ____
ROOT
ATOM      2  O   UNL     1      -1.616  -1.275  25.142  0.00  0.00    -0.371 OA
ATOM      8  C   UNL     1       0.141  -0.135  24.021  0.00  0.00    +0.111 C 
ATOM     10  C   UNL     1      -1.190   0.408  23.535  0.00  0.00    +0.164 C 
ATOM     11  C   UNL     1      -2.110  -0.008  24.675  0.00  0.00    +0.164 C 
ATOM     14  C   UNL     1      -0.281  -1.459  24.637  0.00  0.00    +0.181 C 
ENDROOT
BRANCH  10   3
ATOM      3  O   UNL     1      -1.174   1.810  23.356  0.00  0.00    -0.388 OA
ATOM     27  H   UNL     1      -0.477   2.184  23.922  0.00  0.00    +0.210 HD
ENDBRANCH  10   3
BRANCH   8   6
ATOM      6  N   UNL     1       1.127  -0.293  22.963  0.00  0.00    -0.306 NA
ATOM     26  H   UNL     1       0.936   0.362  22.205  0.00  0.00    +0.123 HD
BRANCH   6   9
ATOM      9  C   UNL     1       2.477  -0.074  23.479  0.00  0.00    +0.054 C 
ATOM     12  C   UNL     1       3.208   0.952  22.605  0.00  0.00    +0.019 C 
ATOM     13  C   UNL     1       3.239  -1.403  23.524  0.00  0.00    +0.019 C 
ATOM     15  C   UNL     1       4.651   1.150  23.068  0.00  0.00    +0.002 C 
ATOM     16  C   UNL     1       4.681  -1.202  23.986  0.00  0.00    +0.002 C 
ATOM     17  C   UNL     1       5.409  -0.172  23.127  0.00  0.00    +0.000 C 
ENDBRANCH   6   9
ENDBRANCH   8   6
BRANCH  11  18
ATOM     18  C   UNL     1      -3.562  -0.148  24.255  0.00  0.00    +0.140 C 
BRANCH  18   7
ATOM      7  N   UNL     1      -4.441   0.187  25.393  0.00  0.00    -0.187 NA
ATOM     28  H   UNL     1      -4.810  -0.613  25.921  0.00  0.00    +0.148 HD
BRANCH   7   1
ATOM      1  S   UNL     1      -5.338   1.633  25.379  0.00  0.00    +0.058 S 
ATOM      4  O   UNL     1      -5.970   1.819  26.671  0.00  0.00    -0.153 OA
ATOM      5  O   UNL     1      -6.130   1.685  24.165  0.00  0.00    -0.153 OA
BRANCH   1  19
ATOM     19  C   UNL     1      -4.064   2.847  25.216  0.00  0.00    +0.105 A 
ATOM     20  C   UNL     1      -4.022   3.667  24.089  0.00  0.00    +0.029 A 
ATOM     21  C   UNL     1      -3.098   2.984  26.214  0.00  0.00    +0.029 A 
ATOM     22  C   UNL     1      -3.015   4.623  23.958  0.00  0.00    +0.005 A 
ATOM     23  C   UNL     1      -2.092   3.940  26.083  0.00  0.00    +0.005 A 
ATOM     24  C   UNL     1      -2.050   4.760  24.955  0.00  0.00    -0.050 A 
ATOM     25  C   UNL     1      -0.973   5.782  24.816  0.00  0.00    +0.044 C 
ENDBRANCH   1  19
ENDBRANCH   7   1
ENDBRANCH  18   7
ENDBRANCH  11  18
TORSDOF 7
ENDMDL
MODEL 7
REMARK VINA RESULT:      -2.8      2.168      2.888
REMARK  Name = 75536699
REMARK  8 active torsions:
REMARK  status: ('A' for Active; 'I' for Inactive)
REMARK    1  A    between atoms: S_1  and  N_7
REMARK    2  A    between atoms: S_1  and  C_19
REMARK    3  A    between atoms: O_3  and  C_10
REMARK    4  A    between atoms: N_6  and  C_8
REMARK    5  A    between atoms: N_6  and  C_9
REMARK    6  A    between atoms: N_7  and  C_18
REMARK    7  A    between atoms: C_11  and  C_18
REMARK    8  A    between atoms: C_24  and  C_25
REMARK                            x       y       z     vdW  Elec       q    Type
REMARK                         _______ _______ _______ _____ _____    ______ ____
ROOT
ATOM      2  O   UNL     1      -0.757   3.255  26.582  0.00  0.00    -0.371 OA
ATOM      8  C   UNL     1       0.523   2.321  24.812  0.00  0.00    +0.111 C 
ATOM     10  C   UNL     1      -0.430   3.356  24.242  0.00  0.00    +0.164 C 
ATOM     11  C   UNL     1      -0.744   4.181  25.483  0.00  0.00    +0.164 C 
ATOM     14  C   UNL     1      -0.114   2.038  26.162  0.00  0.00    +0.181 C 
ENDROOT
BRANCH  10   3
ATOM      3  O   UNL     1       0.161   4.140  23.224  0.00  0.00    -0.388 OA
ATOM     27  H   UNL     1       0.823   4.724  23.632  0.00  0.00    +0.210 HD
ENDBRANCH  10   3
BRANCH   8   6
ATOM      6  N   UNL     1       0.652   1.132  23.986  0.00  0.00    -0.306 NA
ATOM     26  H   UNL     1       1.557   0.690  24.146  0.00  0.00    +0.123 HD
BRANCH   6   9
ATOM      9  C   UNL     1      -0.422   0.183  24.276  0.00  0.00    +0.054 C 
ATOM     12  C   UNL     1      -0.638   0.088  25.791  0.00  0.00    +0.019 C 
ATOM     13  C   UNL     1      -0.081  -1.187  23.680  0.00  0.00    +0.019 C 
ATOM     15  C   UNL     1      -1.702  -0.954  26.136  0.00  0.00    +0.002 C 
ATOM     16  C   UNL     1      -1.145  -2.226  24.028  0.00  0.00    +0.002 C 
ATOM     17  C   UNL     1      -1.372  -2.316  25.534  0.00  0.00    +0.000 C 
ENDBRANCH   6   9
ENDBRANCH   8   6
BRANCH  11  18
ATOM     18  C   UNL     1      -2.077   4.902  25.404  0.00  0.00    +0.140 C 
BRANCH  18   7
ATOM      7  N   UNL     1      -3.153   4.007  25.873  0.00  0.00    -0.187 NA
ATOM     28  H   UNL     1      -2.860   3.248  26.500  0.00  0.00    +0.148 HD
BRANCH   7   1
ATOM      1  S   UNL     1      -4.548   3.782  24.926  0.00  0.00    +0.058 S 
ATOM      4  O   UNL     1      -4.397   4.493  23.671  0.00  0.00    -0.153 OA
ATOM      5  O   UNL     1      -5.720   4.002  25.752  0.00  0.00    -0.153 OA
BRANCH   1  19
ATOM     19  C   UNL     1      -4.478   2.050  24.582  0.00  0.00    +0.105 A 
ATOM     20  C   UNL     1      -5.226   1.156  25.347  0.00  0.00    +0.029 A 
ATOM     21  C   UNL     1      -3.670   1.576  23.548  0.00  0.00    +0.029 A 
ATOM     22  C   UNL     1      -5.168  -0.211  25.078  0.00  0.00    +0.005 A 
ATOM     23  C   UNL     1      -3.612   0.209  23.279  0.00  0.00    +0.005 A 
ATOM     24  C   UNL     1      -4.361  -0.685  24.044  0.00  0.00    -0.050 A 
ATOM     25  C   UNL     1      -4.299  -2.147  23.756  0.00  0.00    +0.044 C 
ENDBRANCH   1  19
ENDBRANCH   7   1
ENDBRANCH  18   7
ENDBRANCH  11  18
TORSDOF 7
ENDMDL
MODEL 8
REMARK VINA RESULT:      -2.7      2.024      6.647
REMARK  Name = 75536699
REMARK  8 active torsions:
REMARK  status: ('A' for Active; 'I' for Inactive)
REMARK    1  A    between atoms: S_1  and  N_7
REMARK    2  A    between atoms: S_1  and  C_19
REMARK    3  A    between atoms: O_3  and  C_10
REMARK    4  A    between atoms: N_6  and  C_8
REMARK    5  A    between atoms: N_6  and  C_9
REMARK    6  A    between atoms: N_7  and  C_18
REMARK    7  A    between atoms: C_11  and  C_18
REMARK    8  A    between atoms: C_24  and  C_25
REMARK                            x       y       z     vdW  Elec       q    Type
REMARK                         _______ _______ _______ _____ _____    ______ ____
ROOT
ATOM      2  O   UNL     1      -1.866   2.687  22.749  0.00  0.00    -0.371 OA
ATOM      8  C   UNL     1      -3.337   2.153  24.536  0.00  0.00    +0.111 C 
ATOM     10  C   UNL     1      -1.910   2.161  25.054  0.00  0.00    +0.164 C 
ATOM     11  C   UNL     1      -1.217   3.003  23.992  0.00  0.00    +0.164 C 
ATOM     14  C   UNL     1      -3.111   2.027  23.038  0.00  0.00    +0.181 C 
ENDROOT
BRANCH  10   3
ATOM      3  O   UNL     1      -1.800   2.740  26.340  0.00  0.00    -0.388 OA
ATOM     27  H   UNL     1      -1.987   3.691  26.265  0.00  0.00    +0.210 HD
ENDBRANCH  10   3
BRANCH   8   6
ATOM      6  N   UNL     1      -4.147   1.074  25.079  0.00  0.00    -0.306 NA
ATOM     26  H   UNL     1      -5.107   1.155  24.746  0.00  0.00    +0.123 HD
BRANCH   6   9
ATOM      9  C   UNL     1      -3.598  -0.226  24.699  0.00  0.00    +0.054 C 
ATOM     12  C   UNL     1      -4.672  -1.056  23.986  0.00  0.00    +0.019 C 
ATOM     13  C   UNL     1      -3.072  -0.953  25.942  0.00  0.00    +0.019 C 
ATOM     15  C   UNL     1      -4.157  -2.453  23.641  0.00  0.00    +0.002 C 
ATOM     16  C   UNL     1      -2.560  -2.350  25.594  0.00  0.00    +0.002 C 
ATOM     17  C   UNL     1      -3.621  -3.176  24.873  0.00  0.00    +0.000 C 
ENDBRANCH   6   9
ENDBRANCH   8   6
BRANCH  11  18
ATOM     18  C   UNL     1       0.270   2.724  23.879  0.00  0.00    +0.140 C 
BRANCH  18   7
ATOM      7  N   UNL     1       0.574   1.406  24.470  0.00  0.00    -0.187 NA
ATOM     28  H   UNL     1       1.057   1.425  25.376  0.00  0.00    +0.148 HD
BRANCH   7   1
ATOM      1  S   UNL     1       0.789   0.050  23.466  0.00  0.00    +0.058 S 
ATOM      4  O   UNL     1       0.303   0.356  22.134  0.00  0.00    -0.153 OA
ATOM      5  O   UNL     1       0.316  -1.132  24.161  0.00  0.00    -0.153 OA
BRANCH   1  19
ATOM     19  C   UNL     1       2.551  -0.069  23.389  0.00  0.00    +0.105 A 
ATOM     20  C   UNL     1       3.303   1.006  22.915  0.00  0.00    +0.029 A 
ATOM     21  C   UNL     1       3.190  -1.239  23.801  0.00  0.00    +0.029 A 
ATOM     22  C   UNL     1       4.693   0.911  22.853  0.00  0.00    +0.005 A 
ATOM     23  C   UNL     1       4.580  -1.334  23.738  0.00  0.00    +0.005 A 
ATOM     24  C   UNL     1       5.332  -0.259  23.264  0.00  0.00    -0.050 A 
ATOM     25  C   UNL     1       6.818  -0.361  23.196  0.00  0.00    +0.044 C 
ENDBRANCH   1  19
ENDBRANCH   7   1
ENDBRANCH  18   7
ENDBRANCH  11  18
TORSDOF 7
ENDMDL
MODEL 9
REMARK VINA RESULT:      -2.5      2.402      4.623
REMARK  Name = 75536699
REMARK  8 active torsions:
REMARK  status: ('A' for Active; 'I' for Inactive)
REMARK    1  A    between atoms: S_1  and  N_7
REMARK    2  A    between atoms: S_1  and  C_19
REMARK    3  A    between atoms: O_3  and  C_10
REMARK    4  A    between atoms: N_6  and  C_8
REMARK    5  A    between atoms: N_6  and  C_9
REMARK    6  A    between atoms: N_7  and  C_18
REMARK    7  A    between atoms: C_11  and  C_18
REMARK    8  A    between atoms: C_24  and  C_25
REMARK                            x       y       z     vdW  Elec       q    Type
REMARK                         _______ _______ _______ _____ _____    ______ ____
ROOT
ATOM      2  O   UNL     1      -0.203   1.659  25.614  0.00  0.00    -0.371 OA
ATOM      8  C   UNL     1       0.128  -0.380  24.442  0.00  0.00    +0.111 C 
ATOM     10  C   UNL     1       0.601   0.772  23.575  0.00  0.00    +0.164 C 
ATOM     11  C   UNL     1       0.817   1.857  24.621  0.00  0.00    +0.164 C 
ATOM     14  C   UNL     1      -0.757   0.343  25.444  0.00  0.00    +0.181 C 
ENDROOT
BRANCH  10   3
ATOM      3  O   UNL     1       1.791   0.473  22.872  0.00  0.00    -0.388 OA
ATOM     27  H   UNL     1       2.547   0.660  23.456  0.00  0.00    +0.210 HD
ENDBRANCH  10   3
BRANCH   8   6
ATOM      6  N   UNL     1      -0.581  -1.412  23.703  0.00  0.00    -0.306 NA
ATOM     26  H   UNL     1      -0.050  -2.283  23.718  0.00  0.00    +0.123 HD
BRANCH   6   9
ATOM      9  C   UNL     1      -1.911  -1.633  24.269  0.00  0.00    +0.054 C 
ATOM     12  C   UNL     1      -2.280  -3.117  24.167  0.00  0.00    +0.019 C 
ATOM     13  C   UNL     1      -2.938  -0.757  23.543  0.00  0.00    +0.019 C 
ATOM     15  C   UNL     1      -3.697  -3.374  24.680  0.00  0.00    +0.002 C 
ATOM     16  C   UNL     1      -4.352  -1.017  24.057  0.00  0.00    +0.002 C 
ATOM     17  C   UNL     1      -4.721  -2.495  23.969  0.00  0.00    +0.000 C 
ENDBRANCH   6   9
ENDBRANCH   8   6
BRANCH  11  18
ATOM     18  C   UNL     1       0.717   3.263  24.058  0.00  0.00    +0.140 C 
BRANCH  18   7
ATOM      7  N   UNL     1      -0.702   3.638  23.906  0.00  0.00    -0.187 NA
ATOM     28  H   UNL     1      -1.004   3.862  22.950  0.00  0.00    +0.148 HD
BRANCH   7   1
ATOM      1  S   UNL     1      -1.541   4.343  25.207  0.00  0.00    +0.058 S 
ATOM      4  O   UNL     1      -1.716   5.760  24.956  0.00  0.00    -0.153 OA
ATOM      5  O   UNL     1      -0.947   3.892  26.452  0.00  0.00    -0.153 OA
BRANCH   1  19
ATOM     19  C   UNL     1      -3.124   3.567  25.081  0.00  0.00    +0.105 A 
ATOM     20  C   UNL     1      -3.455   2.838  23.940  0.00  0.00    +0.029 A 
ATOM     21  C   UNL     1      -4.044   3.686  26.124  0.00  0.00    +0.029 A 
ATOM     22  C   UNL     1      -4.705   2.228  23.839  0.00  0.00    +0.005 A 
ATOM     23  C   UNL     1      -5.294   3.076  26.023  0.00  0.00    +0.005 A 
ATOM     24  C   UNL     1      -5.625   2.347  24.880  0.00  0.00    -0.050 A 
ATOM     25  C   UNL     1      -6.962   1.695  24.773  0.00  0.00    +0.044 C 
ENDBRANCH   1  19
ENDBRANCH   7   1
ENDBRANCH  18   7
ENDBRANCH  11  18
TORSDOF 7
ENDMDL
MODEL 10
REMARK VINA RESULT:      -2.3      2.676      7.301
REMARK  Name = 75536699
REMARK  8 active torsions:
REMARK  status: ('A' for Active; 'I' for Inactive)
REMARK    1  A    between atoms: S_1  and  N_7
REMARK    2  A    between atoms: S_1  and  C_19
REMARK    3  A    between atoms: O_3  and  C_10
REMARK    4  A    between atoms: N_6  and  C_8
REMARK    5  A    between atoms: N_6  and  C_9
REMARK    6  A    between atoms: N_7  and  C_18
REMARK    7  A    between atoms: C_11  and  C_18
REMARK    8  A    between atoms: C_24  and  C_25
REMARK                            x       y       z     vdW  Elec       q    Type
REMARK                         _______ _______ _______ _____ _____    ______ ____
ROOT
ATOM      2  O   UNL     1      -1.519  -1.086  25.867  0.00  0.00    -0.371 OA
ATOM      8  C   UNL     1      -3.836  -0.926  25.369  0.00  0.00    +0.111 C 
ATOM     10  C   UNL     1      -3.127  -1.609  24.214  0.00  0.00    +0.164 C 
ATOM     11  C   UNL     1      -1.854  -2.090  24.895  0.00  0.00    +0.164 C 
ATOM     14  C   UNL     1      -2.673  -0.254  26.080  0.00  0.00    +0.181 C 
ENDROOT
BRANCH  10   3
ATOM      3  O   UNL     1      -3.873  -2.681  23.673  0.00  0.00    -0.388 OA
ATOM     27  H   UNL     1      -3.567  -2.840  22.764  0.00  0.00    +0.210 HD
ENDBRANCH  10   3
BRANCH   8   6
ATOM      6  N   UNL     1      -4.862   0.015  24.948  0.00  0.00    -0.306 NA
ATOM     26  H   UNL     1      -5.715  -0.131  25.489  0.00  0.00    +0.123 HD
BRANCH   6   9
ATOM      9  C   UNL     1      -4.399   1.392  25.112  0.00  0.00    +0.054 C 
ATOM     12  C   UNL     1      -5.588   2.305  25.433  0.00  0.00    +0.019 C 
ATOM     13  C   UNL     1      -3.675   1.853  23.843  0.00  0.00    +0.019 C 
ATOM     15  C   UNL     1      -5.153   3.767  25.536  0.00  0.00    +0.002 C 
ATOM     16  C   UNL     1      -3.244   3.314  23.948  0.00  0.00    +0.002 C 
ATOM     17  C   UNL     1      -4.421   4.226  24.279  0.00  0.00    +0.000 C 
ENDBRANCH   6   9
ENDBRANCH   8   6
BRANCH  11  18
ATOM     18  C   UNL     1      -0.693  -2.280  23.935  0.00  0.00    +0.140 C 
BRANCH  18   7
ATOM      7  N   UNL     1       0.388  -1.332  24.270  0.00  0.00    -0.187 NA
ATOM     28  H   UNL     1       0.553  -1.180  25.272  0.00  0.00    +0.148 HD
BRANCH   7   1
ATOM      1  S   UNL     1       0.798  -0.089  23.183  0.00  0.00    +0.058 S 
ATOM      4  O   UNL     1       0.350   1.183  23.716  0.00  0.00    -0.153 OA
ATOM      5  O   UNL     1       0.420  -0.491  21.842  0.00  0.00    -0.153 OA
BRANCH   1  19
ATOM     19  C   UNL     1       2.564  -0.117  23.250  0.00  0.00    +0.105 A 
ATOM     20  C   UNL     1       3.227  -1.250  23.722  0.00  0.00    +0.029 A 
ATOM     21  C   UNL     1       3.296   0.996  22.834  0.00  0.00    +0.029 A 
ATOM     22  C   UNL     1       4.620  -1.271  23.777  0.00  0.00    +0.005 A 
ATOM     23  C   UNL     1       4.689   0.975  22.890  0.00  0.00    +0.005 A 
ATOM     24  C   UNL     1       5.351  -0.159  23.362  0.00  0.00    -0.050 A 
ATOM     25  C   UNL     1       6.842  -0.181  23.421  0.00  0.00    +0.044 C 
ENDBRANCH   1  19
ENDBRANCH   7   1
ENDBRANCH  18   7
ENDBRANCH  11  18
TORSDOF 7
ENDMDL
