MODEL 1
REMARK VINA RESULT:      -0.4      0.000      0.000
REMARK  Name = 44716314
REMARK  7 active torsions:
REMARK  status: ('A' for Active; 'I' for Inactive)
REMARK    1  A    between atoms: N_4  and  C_16
REMARK    2  A    between atoms: N_5  and  C_19
REMARK    3  A    between atoms: N_8  and  C_30
REMARK    4  A    between atoms: C_10  and  C_16
REMARK    5  A    between atoms: C_11  and  C_17
REMARK    6  A    between atoms: C_19  and  C_21
REMARK    7  A    between atoms: C_20  and  C_22
REMARK                            x       y       z     vdW  Elec       q    Type
REMARK                         _______ _______ _______ _____ _____    ______ ____
ROOT
ATOM      3  N   UNL     1      -4.656   3.886  26.208  0.00  0.00    -0.297 NA
ATOM      9  C   UNL     1      -4.154   3.583  23.673  0.00  0.00    +0.005 C 
ATOM     10  C   UNL     1      -3.203   4.077  25.952  0.00  0.00    +0.078 C 
ATOM     11  C   UNL     1      -4.941   2.382  24.234  0.00  0.00    +0.092 C 
ATOM     12  C   UNL     1      -2.853   3.753  24.484  0.00  0.00    +0.025 C 
ATOM     13  C   UNL     1      -5.016   4.833  23.921  0.00  0.00    +0.020 C 
ATOM     14  C   UNL     1      -5.085   2.539  25.757  0.00  0.00    +0.097 C 
ATOM     15  C   UNL     1      -5.395   4.897  25.412  0.00  0.00    +0.085 C 
ENDROOT
BRANCH  11  17
ATOM      2  O   UNL     1      -3.309   1.023  23.142  0.00  0.00    -0.275 OA
ATOM      5  N   UNL     1      -4.943  -0.004  24.444  0.00  0.00    -0.311 N 
ATOM     17  C   UNL     1      -4.293   1.078  23.875  0.00  0.00    +0.218 C 
ATOM     33  H   UNL     1      -5.753   0.155  25.036  0.00  0.00    +0.149 HD
BRANCH   5  19
ATOM     19  C   UNL     1      -4.530  -1.374  24.236  0.00  0.00    +0.139 C 
BRANCH  19  21
ATOM      1  F   UNL     1       0.731  -2.284  26.023  0.00  0.00    -0.205 F 
ATOM     21  C   UNL     1      -3.128  -1.616  24.712  0.00  0.00    -0.030 A 
ATOM     23  C   UNL     1      -2.302  -2.506  24.025  0.00  0.00    +0.008 A 
ATOM     24  C   UNL     1      -2.650  -0.951  25.842  0.00  0.00    +0.008 A 
ATOM     27  C   UNL     1      -0.999  -2.732  24.468  0.00  0.00    +0.038 A 
ATOM     28  C   UNL     1      -1.347  -1.177  26.285  0.00  0.00    +0.038 A 
ATOM     29  C   UNL     1      -0.521  -2.068  25.599  0.00  0.00    +0.123 A 
ENDBRANCH  19  21
ENDBRANCH   5  19
ENDBRANCH  11  17
BRANCH  10  16
ATOM     16  C   UNL     1      -2.330   3.290  26.933  0.00  0.00    +0.164 C 
BRANCH  16   4
ATOM      4  N   UNL     1      -1.103   2.742  26.260  0.00  0.00    -0.250 N 
ATOM      6  N   UNL     1       0.113   2.918  26.801  0.00  0.00    -0.065 NA
ATOM      7  N   UNL     1       0.993   2.332  25.996  0.00  0.00    -0.130 NA
ATOM     18  C   UNL     1      -1.037   2.040  25.095  0.00  0.00    +0.138 A 
ATOM     20  C   UNL     1       0.304   1.790  24.946  0.00  0.00    +0.113 A 
BRANCH  20  22
ATOM     22  C   UNL     1       0.902   1.074  23.865  0.00  0.00    +0.005 A 
ATOM     25  C   UNL     1       2.269   1.198  23.617  0.00  0.00    +0.032 A 
ATOM     26  C   UNL     1       0.118   0.250  23.057  0.00  0.00    +0.010 A 
ATOM     30  C   UNL     1       2.852   0.497  22.560  0.00  0.00    +0.025 A 
ATOM     31  C   UNL     1       0.701  -0.450  22.001  0.00  0.00    +0.002 A 
ATOM     32  C   UNL     1       2.068  -0.326  21.753  0.00  0.00    +0.023 A 
BRANCH  30   8
ATOM      8  N   UNL     1       4.234   0.623  22.308  0.00  0.00    -0.358 N 
ATOM     34  H   UNL     1       4.559   1.199  21.542  0.00  0.00    +0.142 HD
ATOM     35  H   UNL     1       4.901   0.142  22.896  0.00  0.00    +0.142 HD
ENDBRANCH  30   8
ENDBRANCH  20  22
ENDBRANCH  16   4
ENDBRANCH  10  16
TORSDOF 7
ENDMDL
MODEL 2
REMARK VINA RESULT:       0.1      1.933      2.673
REMARK  Name = 44716314
REMARK  7 active torsions:
REMARK  status: ('A' for Active; 'I' for Inactive)
REMARK    1  A    between atoms: N_4  and  C_16
REMARK    2  A    between atoms: N_5  and  C_19
REMARK    3  A    between atoms: N_8  and  C_30
REMARK    4  A    between atoms: C_10  and  C_16
REMARK    5  A    between atoms: C_11  and  C_17
REMARK    6  A    between atoms: C_19  and  C_21
REMARK    7  A    between atoms: C_20  and  C_22
REMARK                            x       y       z     vdW  Elec       q    Type
REMARK                         _______ _______ _______ _____ _____    ______ ____
ROOT
ATOM      3  N   UNL     1      -2.418   4.551  25.785  0.00  0.00    -0.297 NA
ATOM      9  C   UNL     1      -4.179   4.011  23.947  0.00  0.00    +0.005 C 
ATOM     10  C   UNL     1      -1.879   3.528  24.850  0.00  0.00    +0.078 C 
ATOM     11  C   UNL     1      -4.787   3.883  25.356  0.00  0.00    +0.092 C 
ATOM     12  C   UNL     1      -2.956   3.078  23.840  0.00  0.00    +0.025 C 
ATOM     13  C   UNL     1      -3.665   5.456  23.815  0.00  0.00    +0.020 C 
ATOM     14  C   UNL     1      -3.677   4.067  26.405  0.00  0.00    +0.097 C 
ATOM     15  C   UNL     1      -2.730   5.769  24.997  0.00  0.00    +0.085 C 
ENDROOT
BRANCH  11  17
ATOM      2  O   UNL     1      -6.379   2.428  26.381  0.00  0.00    -0.275 OA
ATOM      5  N   UNL     1      -5.035   1.601  24.670  0.00  0.00    -0.311 N 
ATOM     17  C   UNL     1      -5.500   2.575  25.536  0.00  0.00    +0.218 C 
ATOM     33  H   UNL     1      -4.298   1.832  24.008  0.00  0.00    +0.149 HD
BRANCH   5  19
ATOM     19  C   UNL     1      -5.541   0.248  24.655  0.00  0.00    +0.139 C 
BRANCH  19  21
ATOM      1  F   UNL     1      -1.392  -3.555  24.817  0.00  0.00    -0.205 F 
ATOM     21  C   UNL     1      -4.435  -0.766  24.698  0.00  0.00    -0.030 A 
ATOM     23  C   UNL     1      -3.367  -0.596  25.579  0.00  0.00    +0.008 A 
ATOM     24  C   UNL     1      -4.476  -1.878  23.857  0.00  0.00    +0.008 A 
ATOM     27  C   UNL     1      -2.339  -1.538  25.619  0.00  0.00    +0.038 A 
ATOM     28  C   UNL     1      -3.447  -2.820  23.897  0.00  0.00    +0.038 A 
ATOM     29  C   UNL     1      -2.379  -2.650  24.778  0.00  0.00    +0.123 A 
ENDBRANCH  19  21
ENDBRANCH   5  19
ENDBRANCH  11  17
BRANCH  10  16
ATOM     16  C   UNL     1      -1.253   2.339  25.583  0.00  0.00    +0.164 C 
BRANCH  16   4
ATOM      4  N   UNL     1      -0.287   1.596  24.704  0.00  0.00    -0.250 N 
ATOM      6  N   UNL     1      -0.728   0.827  23.695  0.00  0.00    -0.065 NA
ATOM      7  N   UNL     1       0.339   0.305  23.101  0.00  0.00    -0.130 NA
ATOM     18  C   UNL     1       1.072   1.588  24.783  0.00  0.00    +0.138 A 
ATOM     20  C   UNL     1       1.449   0.761  23.755  0.00  0.00    +0.113 A 
BRANCH  20  22
ATOM     22  C   UNL     1       2.793   0.421  23.412  0.00  0.00    +0.005 A 
ATOM     25  C   UNL     1       3.324  -0.808  23.804  0.00  0.00    +0.032 A 
ATOM     26  C   UNL     1       3.574   1.318  22.684  0.00  0.00    +0.010 A 
ATOM     30  C   UNL     1       4.636  -1.140  23.468  0.00  0.00    +0.025 A 
ATOM     31  C   UNL     1       4.887   0.986  22.348  0.00  0.00    +0.002 A 
ATOM     32  C   UNL     1       5.418  -0.243  22.740  0.00  0.00    +0.023 A 
BRANCH  30   8
ATOM      8  N   UNL     1       5.174  -2.382  23.865  0.00  0.00    -0.358 N 
ATOM     34  H   UNL     1       4.841  -2.832  24.707  0.00  0.00    +0.142 HD
ATOM     35  H   UNL     1       5.890  -2.826  23.305  0.00  0.00    +0.142 HD
ENDBRANCH  30   8
ENDBRANCH  20  22
ENDBRANCH  16   4
ENDBRANCH  10  16
TORSDOF 7
ENDMDL
MODEL 3
REMARK VINA RESULT:       0.7      2.664      5.225
REMARK  Name = 44716314
REMARK  7 active torsions:
REMARK  status: ('A' for Active; 'I' for Inactive)
REMARK    1  A    between atoms: N_4  and  C_16
REMARK    2  A    between atoms: N_5  and  C_19
REMARK    3  A    between atoms: N_8  and  C_30
REMARK    4  A    between atoms: C_10  and  C_16
REMARK    5  A    between atoms: C_11  and  C_17
REMARK    6  A    between atoms: C_19  and  C_21
REMARK    7  A    between atoms: C_20  and  C_22
REMARK                            x       y       z     vdW  Elec       q    Type
REMARK                         _______ _______ _______ _____ _____    ______ ____
ROOT
ATOM      3  N   UNL     1      -3.160  -1.872  23.683  0.00  0.00    -0.297 NA
ATOM      9  C   UNL     1      -3.438  -1.097  26.151  0.00  0.00    +0.005 C 
ATOM     10  C   UNL     1      -1.970  -1.085  24.105  0.00  0.00    +0.078 C 
ATOM     11  C   UNL     1      -4.665  -0.712  25.304  0.00  0.00    +0.092 C 
ATOM     12  C   UNL     1      -2.175  -0.485  25.513  0.00  0.00    +0.025 C 
ATOM     13  C   UNL     1      -3.300  -2.627  26.063  0.00  0.00    +0.020 C 
ATOM     14  C   UNL     1      -4.392  -1.059  23.831  0.00  0.00    +0.097 C 
ATOM     15  C   UNL     1      -3.271  -3.047  24.582  0.00  0.00    +0.085 C 
ENDROOT
BRANCH  11  17
ATOM      2  O   UNL     1      -5.843   1.109  26.304  0.00  0.00    -0.275 OA
ATOM      5  N   UNL     1      -4.343   1.548  24.579  0.00  0.00    -0.311 N 
ATOM     17  C   UNL     1      -5.022   0.736  25.470  0.00  0.00    +0.218 C 
ATOM     33  H   UNL     1      -3.684   1.132  23.926  0.00  0.00    +0.149 HD
BRANCH   5  19
ATOM     19  C   UNL     1      -4.524   2.981  24.518  0.00  0.00    +0.139 C 
BRANCH  19  21
ATOM      1  F   UNL     1       0.362   5.741  24.978  0.00  0.00    -0.205 F 
ATOM     21  C   UNL     1      -3.222   3.717  24.641  0.00  0.00    -0.030 A 
ATOM     23  C   UNL     1      -2.018   3.041  24.444  0.00  0.00    +0.008 A 
ATOM     24  C   UNL     1      -3.216   5.077  24.952  0.00  0.00    +0.008 A 
ATOM     27  C   UNL     1      -0.807   3.724  24.558  0.00  0.00    +0.038 A 
ATOM     28  C   UNL     1      -2.006   5.760  25.066  0.00  0.00    +0.038 A 
ATOM     29  C   UNL     1      -0.801   5.084  24.870  0.00  0.00    +0.123 A 
ENDBRANCH  19  21
ENDBRANCH   5  19
ENDBRANCH  11  17
BRANCH  10  16
ATOM     16  C   UNL     1      -1.584  -0.016  23.080  0.00  0.00    +0.164 C 
BRANCH  16   4
ATOM      4  N   UNL     1      -0.129  -0.103  22.715  0.00  0.00    -0.250 N 
ATOM      6  N   UNL     1       0.246  -0.408  21.462  0.00  0.00    -0.065 NA
ATOM      7  N   UNL     1       1.575  -0.412  21.437  0.00  0.00    -0.130 NA
ATOM     18  C   UNL     1       0.946   0.097  23.526  0.00  0.00    +0.138 A 
ATOM     20  C   UNL     1       2.018  -0.105  22.694  0.00  0.00    +0.113 A 
BRANCH  20  22
ATOM     22  C   UNL     1       3.392  -0.011  23.071  0.00  0.00    +0.005 A 
ATOM     25  C   UNL     1       4.041  -1.114  23.625  0.00  0.00    +0.032 A 
ATOM     26  C   UNL     1       4.085   1.185  22.885  0.00  0.00    +0.010 A 
ATOM     30  C   UNL     1       5.383  -1.022  23.992  0.00  0.00    +0.025 A 
ATOM     31  C   UNL     1       5.427   1.278  23.253  0.00  0.00    +0.002 A 
ATOM     32  C   UNL     1       6.076   0.174  23.807  0.00  0.00    +0.023 A 
BRANCH  30   8
ATOM      8  N   UNL     1       6.040  -2.137  24.553  0.00  0.00    -0.358 N 
ATOM     34  H   UNL     1       6.825  -2.002  25.178  0.00  0.00    +0.142 HD
ATOM     35  H   UNL     1       5.723  -3.073  24.336  0.00  0.00    +0.142 HD
ENDBRANCH  30   8
ENDBRANCH  20  22
ENDBRANCH  16   4
ENDBRANCH  10  16
TORSDOF 7
ENDMDL
MODEL 4
REMARK VINA RESULT:       1.6      2.352      5.955
REMARK  Name = 44716314
REMARK  7 active torsions:
REMARK  status: ('A' for Active; 'I' for Inactive)
REMARK    1  A    between atoms: N_4  and  C_16
REMARK    2  A    between atoms: N_5  and  C_19
REMARK    3  A    between atoms: N_8  and  C_30
REMARK    4  A    between atoms: C_10  and  C_16
REMARK    5  A    between atoms: C_11  and  C_17
REMARK    6  A    between atoms: C_19  and  C_21
REMARK    7  A    between atoms: C_20  and  C_22
REMARK                            x       y       z     vdW  Elec       q    Type
REMARK                         _______ _______ _______ _____ _____    ______ ____
ROOT
ATOM      3  N   UNL     1      -3.540  -1.666  25.674  0.00  0.00    -0.297 NA
ATOM      9  C   UNL     1      -1.262  -2.558  24.787  0.00  0.00    +0.005 C 
ATOM     10  C   UNL     1      -3.664  -2.036  24.239  0.00  0.00    +0.078 C 
ATOM     11  C   UNL     1      -1.095  -1.189  25.475  0.00  0.00    +0.092 C 
ATOM     12  C   UNL     1      -2.292  -2.425  23.647  0.00  0.00    +0.025 C 
ATOM     13  C   UNL     1      -1.860  -3.512  25.835  0.00  0.00    +0.020 C 
ATOM     14  C   UNL     1      -2.482  -0.640  25.850  0.00  0.00    +0.097 C 
ATOM     15  C   UNL     1      -3.135  -2.880  26.424  0.00  0.00    +0.085 C 
ENDROOT
BRANCH  11  17
ATOM      2  O   UNL     1      -0.325   0.982  24.846  0.00  0.00    -0.275 OA
ATOM      5  N   UNL     1       0.299  -0.852  23.556  0.00  0.00    -0.311 N 
ATOM     17  C   UNL     1      -0.337  -0.224  24.612  0.00  0.00    +0.218 C 
ATOM     33  H   UNL     1       0.221  -1.861  23.455  0.00  0.00    +0.149 HD
BRANCH   5  19
ATOM     19  C   UNL     1       1.079  -0.143  22.567  0.00  0.00    +0.139 C 
BRANCH  19  21
ATOM      1  F   UNL     1       6.559  -0.073  23.856  0.00  0.00    -0.205 F 
ATOM     21  C   UNL     1       2.539  -0.125  22.911  0.00  0.00    -0.030 A 
ATOM     23  C   UNL     1       3.294   1.026  22.685  0.00  0.00    +0.008 A 
ATOM     24  C   UNL     1       3.142  -1.258  23.456  0.00  0.00    +0.008 A 
ATOM     27  C   UNL     1       4.652   1.044  23.004  0.00  0.00    +0.038 A 
ATOM     28  C   UNL     1       4.500  -1.241  23.775  0.00  0.00    +0.038 A 
ATOM     29  C   UNL     1       5.255  -0.090  23.548  0.00  0.00    +0.123 A 
ENDBRANCH  19  21
ENDBRANCH   5  19
ENDBRANCH  11  17
BRANCH  10  16
ATOM     16  C   UNL     1      -4.353  -0.948  23.412  0.00  0.00    +0.164 C 
BRANCH  16   4
ATOM      4  N   UNL     1      -4.112   0.418  23.990  0.00  0.00    -0.250 N 
ATOM      6  N   UNL     1      -4.983   0.961  24.856  0.00  0.00    -0.065 NA
ATOM      7  N   UNL     1      -4.513   2.157  25.193  0.00  0.00    -0.130 NA
ATOM     18  C   UNL     1      -3.061   1.249  23.750  0.00  0.00    +0.138 A 
ATOM     20  C   UNL     1      -3.336   2.348  24.524  0.00  0.00    +0.113 A 
BRANCH  20  22
ATOM     22  C   UNL     1      -2.525   3.520  24.623  0.00  0.00    +0.005 A 
ATOM     25  C   UNL     1      -1.376   3.641  23.842  0.00  0.00    +0.032 A 
ATOM     26  C   UNL     1      -2.882   4.542  25.502  0.00  0.00    +0.010 A 
ATOM     30  C   UNL     1      -0.584   4.785  23.940  0.00  0.00    +0.025 A 
ATOM     31  C   UNL     1      -2.091   5.686  25.600  0.00  0.00    +0.002 A 
ATOM     32  C   UNL     1      -0.941   5.807  24.819  0.00  0.00    +0.023 A 
BRANCH  30   8
ATOM      8  N   UNL     1       0.579   4.908  23.151  0.00  0.00    -0.358 N 
ATOM     34  H   UNL     1       1.070   5.791  23.106  0.00  0.00    +0.142 HD
ATOM     35  H   UNL     1       0.926   4.111  22.633  0.00  0.00    +0.142 HD
ENDBRANCH  30   8
ENDBRANCH  20  22
ENDBRANCH  16   4
ENDBRANCH  10  16
TORSDOF 7
ENDMDL
MODEL 5
REMARK VINA RESULT:       3.4      2.331      6.673
REMARK  Name = 44716314
REMARK  7 active torsions:
REMARK  status: ('A' for Active; 'I' for Inactive)
REMARK    1  A    between atoms: N_4  and  C_16
REMARK    2  A    between atoms: N_5  and  C_19
REMARK    3  A    between atoms: N_8  and  C_30
REMARK    4  A    between atoms: C_10  and  C_16
REMARK    5  A    between atoms: C_11  and  C_17
REMARK    6  A    between atoms: C_19  and  C_21
REMARK    7  A    between atoms: C_20  and  C_22
REMARK                            x       y       z     vdW  Elec       q    Type
REMARK                         _______ _______ _______ _____ _____    ______ ____
ROOT
ATOM      3  N   UNL     1      -3.423  -1.951  25.509  0.00  0.00    -0.297 NA
ATOM      9  C   UNL     1      -0.949  -2.562  24.981  0.00  0.00    +0.005 C 
ATOM     10  C   UNL     1      -3.315  -2.479  24.122  0.00  0.00    +0.078 C 
ATOM     11  C   UNL     1      -1.066  -1.122  25.517  0.00  0.00    +0.092 C 
ATOM     12  C   UNL     1      -1.839  -2.706  23.730  0.00  0.00    +0.025 C 
ATOM     13  C   UNL     1      -1.529  -3.487  26.065  0.00  0.00    +0.020 C 
ATOM     14  C   UNL     1      -2.553  -0.760  25.675  0.00  0.00    +0.097 C 
ATOM     15  C   UNL     1      -2.944  -3.006  26.436  0.00  0.00    +0.085 C 
ENDROOT
BRANCH  11  17
ATOM      2  O   UNL     1      -0.465   1.072  24.790  0.00  0.00    -0.275 OA
ATOM      5  N   UNL     1       0.394  -0.768  23.651  0.00  0.00    -0.311 N 
ATOM     17  C   UNL     1      -0.353  -0.141  24.633  0.00  0.00    +0.218 C 
ATOM     33  H   UNL     1       0.415  -1.783  23.611  0.00  0.00    +0.149 HD
BRANCH   5  19
ATOM     19  C   UNL     1       1.158  -0.048  22.658  0.00  0.00    +0.139 C 
BRANCH  19  21
ATOM      1  F   UNL     1       6.675  -0.130  23.781  0.00  0.00    -0.205 F 
ATOM     21  C   UNL     1       2.629  -0.069  22.957  0.00  0.00    -0.030 A 
ATOM     23  C   UNL     1       3.213  -1.213  23.503  0.00  0.00    +0.008 A 
ATOM     24  C   UNL     1       3.412   1.054  22.690  0.00  0.00    +0.008 A 
ATOM     27  C   UNL     1       4.579  -1.233  23.781  0.00  0.00    +0.038 A 
ATOM     28  C   UNL     1       4.778   1.033  22.968  0.00  0.00    +0.038 A 
ATOM     29  C   UNL     1       5.362  -0.110  23.515  0.00  0.00    +0.123 A 
ENDBRANCH  19  21
ENDBRANCH   5  19
ENDBRANCH  11  17
BRANCH  10  16
ATOM     16  C   UNL     1      -4.046  -1.599  23.105  0.00  0.00    +0.164 C 
BRANCH  16   4
ATOM      4  N   UNL     1      -3.740  -0.143  23.315  0.00  0.00    -0.250 N 
ATOM      6  N   UNL     1      -2.958   0.525  22.453  0.00  0.00    -0.065 NA
ATOM      7  N   UNL     1      -2.867   1.777  22.890  0.00  0.00    -0.130 NA
ATOM     18  C   UNL     1      -4.173   0.660  24.326  0.00  0.00    +0.138 A 
ATOM     20  C   UNL     1      -3.606   1.875  24.036  0.00  0.00    +0.113 A 
BRANCH  20  22
ATOM     22  C   UNL     1      -3.758   3.069  24.806  0.00  0.00    +0.005 A 
ATOM     25  C   UNL     1      -5.029   3.598  25.030  0.00  0.00    +0.032 A 
ATOM     26  C   UNL     1      -2.634   3.705  25.333  0.00  0.00    +0.010 A 
ATOM     30  C   UNL     1      -5.176   4.763  25.783  0.00  0.00    +0.025 A 
ATOM     31  C   UNL     1      -2.781   4.870  26.086  0.00  0.00    +0.002 A 
ATOM     32  C   UNL     1      -4.053   5.399  26.310  0.00  0.00    +0.023 A 
BRANCH  30   8
ATOM      8  N   UNL     1      -6.461   5.299  26.009  0.00  0.00    -0.358 N 
ATOM     34  H   UNL     1      -6.624   5.908  26.800  0.00  0.00    +0.142 HD
ATOM     35  H   UNL     1      -7.220   5.078  25.378  0.00  0.00    +0.142 HD
ENDBRANCH  30   8
ENDBRANCH  20  22
ENDBRANCH  16   4
ENDBRANCH  10  16
TORSDOF 7
ENDMDL
