MODEL 1
REMARK VINA RESULT:      -2.7      0.000      0.000
REMARK  Name = 11883396
REMARK  5 active torsions:
REMARK  status: ('A' for Active; 'I' for Inactive)
REMARK    1  A    between atoms: O_6  and  C_16
REMARK    2  A    between atoms: O_6  and  C_20
REMARK    3  A    between atoms: N_10  and  C_15
REMARK    4  A    between atoms: N_12  and  C_25
REMARK    5  A    between atoms: C_28  and  C_31
REMARK                            x       y       z     vdW  Elec       q    Type
REMARK                         _______ _______ _______ _____ _____    ______ ____
ROOT
ATOM      4  O   UNL     1      -1.947  -0.389  24.596  0.00  0.00    -0.368 OA
ATOM      5  O   UNL     1      -2.290  -3.294  25.517  0.00  0.00    -0.368 OA
ATOM     13  C   UNL     1      -1.281  -2.663  24.702  0.00  0.00    +0.173 C 
ATOM     14  C   UNL     1      -1.987  -1.621  23.858  0.00  0.00    +0.192 C 
ATOM     15  C   UNL     1      -0.345  -1.853  25.568  0.00  0.00    +0.131 C 
ATOM     16  C   UNL     1      -3.390  -2.173  23.765  0.00  0.00    +0.235 C 
ATOM     17  C   UNL     1      -1.119  -0.560  25.758  0.00  0.00    +0.185 C 
ATOM     18  C   UNL     1      -3.579  -2.795  25.130  0.00  0.00    +0.207 C 
ENDROOT
BRANCH  15  10
ATOM      7  O   UNL     1       0.146   0.141  23.646  0.00  0.00    -0.253 OA
ATOM      8  O   UNL     1       4.994   0.197  22.655  0.00  0.00    -0.377 OA
ATOM     10  N   UNL     1       0.916  -1.619  24.901  0.00  0.00    -0.292 N 
ATOM     11  N   UNL     1       2.359  -0.510  23.391  0.00  0.00    -0.281 N 
ATOM     19  C   UNL     1       1.077  -0.609  23.960  0.00  0.00    +0.303 C 
ATOM     21  C   UNL     1       3.471  -1.449  23.593  0.00  0.00    +0.137 C 
ATOM     22  C   UNL     1       2.615   0.523  22.386  0.00  0.00    +0.137 C 
ATOM     23  C   UNL     1       4.791  -0.702  23.746  0.00  0.00    +0.179 C 
ATOM     24  C   UNL     1       3.964   1.186  22.616  0.00  0.00    +0.179 C 
ATOM     32  H   UNL     1       1.706  -2.149  25.239  0.00  0.00    +0.151 HD
ENDBRANCH  15  10
BRANCH  16   6
ATOM      6  O   UNL     1      -4.364  -1.191  23.490  0.00  0.00    -0.442 OA
BRANCH   6  20
ATOM      9  O   UNL     1      -4.951  -0.202  25.466  0.00  0.00    -0.226 OA
ATOM     12  N   UNL     1      -3.849   0.986  23.776  0.00  0.00    -0.251 N 
ATOM     20  C   UNL     1      -4.435  -0.121  24.358  0.00  0.00    +0.405 C 
ATOM     33  H   UNL     1      -3.471   0.856  22.841  0.00  0.00    +0.158 HD
BRANCH  12  25
ATOM     25  C   UNL     1      -3.709   2.283  24.320  0.00  0.00    +0.037 A 
ATOM     26  C   UNL     1      -2.457   2.899  24.345  0.00  0.00    +0.035 A 
ATOM     27  C   UNL     1      -4.823   2.947  24.834  0.00  0.00    +0.023 A 
ATOM     28  C   UNL     1      -2.320   4.179  24.883  0.00  0.00    +0.057 A 
ATOM     29  C   UNL     1      -4.685   4.227  25.373  0.00  0.00    +0.002 A 
ATOM     30  C   UNL     1      -3.433   4.842  25.396  0.00  0.00    +0.012 A 
BRANCH  28  31
ATOM      1  F   UNL     1      -0.103   4.253  25.776  0.00  0.00    -0.166 F 
ATOM      2  F   UNL     1      -0.346   4.832  23.701  0.00  0.00    -0.166 F 
ATOM      3  F   UNL     1      -1.049   6.147  25.283  0.00  0.00    -0.166 F 
ATOM     31  C   UNL     1      -0.982   4.836  24.909  0.00  0.00    +0.417 C 
ENDBRANCH  28  31
ENDBRANCH  12  25
ENDBRANCH   6  20
ENDBRANCH  16   6
TORSDOF 5
ENDMDL
MODEL 2
REMARK VINA RESULT:      -0.9      3.063      5.307
REMARK  Name = 11883396
REMARK  5 active torsions:
REMARK  status: ('A' for Active; 'I' for Inactive)
REMARK    1  A    between atoms: O_6  and  C_16
REMARK    2  A    between atoms: O_6  and  C_20
REMARK    3  A    between atoms: N_10  and  C_15
REMARK    4  A    between atoms: N_12  and  C_25
REMARK    5  A    between atoms: C_28  and  C_31
REMARK                            x       y       z     vdW  Elec       q    Type
REMARK                         _______ _______ _______ _____ _____    ______ ____
ROOT
ATOM      4  O   UNL     1      -3.349   3.176  24.035  0.00  0.00    -0.368 OA
ATOM      5  O   UNL     1      -2.584   5.127  26.274  0.00  0.00    -0.368 OA
ATOM     13  C   UNL     1      -1.949   3.923  25.797  0.00  0.00    +0.173 C 
ATOM     14  C   UNL     1      -3.057   2.959  25.425  0.00  0.00    +0.192 C 
ATOM     15  C   UNL     1      -1.246   4.190  24.486  0.00  0.00    +0.131 C 
ATOM     16  C   UNL     1      -4.192   3.409  26.313  0.00  0.00    +0.235 C 
ATOM     17  C   UNL     1      -2.384   4.086  23.484  0.00  0.00    +0.185 C 
ATOM     18  C   UNL     1      -4.001   4.909  26.339  0.00  0.00    +0.207 C 
ENDROOT
BRANCH  15  10
ATOM      7  O   UNL     1      -1.623   1.765  23.112  0.00  0.00    -0.253 OA
ATOM      8  O   UNL     1       2.798  -0.349  22.429  0.00  0.00    -0.377 OA
ATOM     10  N   UNL     1      -0.225   3.201  24.228  0.00  0.00    -0.292 N 
ATOM     11  N   UNL     1       0.601   1.157  23.372  0.00  0.00    -0.281 N 
ATOM     19  C   UNL     1      -0.492   2.024  23.539  0.00  0.00    +0.303 C 
ATOM     21  C   UNL     1       1.931   1.316  23.974  0.00  0.00    +0.137 C 
ATOM     22  C   UNL     1       0.405  -0.109  22.663  0.00  0.00    +0.137 C 
ATOM     23  C   UNL     1       3.025   0.951  22.977  0.00  0.00    +0.179 C 
ATOM     24  C   UNL     1       1.561  -0.387  21.715  0.00  0.00    +0.179 C 
ATOM     32  H   UNL     1       0.722   3.462  24.468  0.00  0.00    +0.151 HD
ENDBRANCH  15  10
BRANCH  16   6
ATOM      6  O   UNL     1      -5.465   3.044  25.827  0.00  0.00    -0.442 OA
BRANCH   6  20
ATOM      9  O   UNL     1      -6.575   1.461  24.607  0.00  0.00    -0.226 OA
ATOM     12  N   UNL     1      -4.397   1.107  25.390  0.00  0.00    -0.251 N 
ATOM     20  C   UNL     1      -5.569   1.816  25.210  0.00  0.00    +0.405 C 
ATOM     33  H   UNL     1      -3.668   1.573  25.924  0.00  0.00    +0.158 HD
BRANCH  12  25
ATOM     25  C   UNL     1      -4.083  -0.190  24.923  0.00  0.00    +0.037 A 
ATOM     26  C   UNL     1      -2.799  -0.705  25.102  0.00  0.00    +0.035 A 
ATOM     27  C   UNL     1      -5.058  -0.954  24.281  0.00  0.00    +0.023 A 
ATOM     28  C   UNL     1      -2.491  -1.985  24.640  0.00  0.00    +0.057 A 
ATOM     29  C   UNL     1      -4.749  -2.234  23.819  0.00  0.00    +0.002 A 
ATOM     30  C   UNL     1      -3.465  -2.749  23.999  0.00  0.00    +0.012 A 
BRANCH  28  31
ATOM      1  F   UNL     1      -0.227  -1.625  25.324  0.00  0.00    -0.166 F 
ATOM      2  F   UNL     1      -1.067  -3.589  25.699  0.00  0.00    -0.166 F 
ATOM      3  F   UNL     1      -0.569  -2.992  23.668  0.00  0.00    -0.166 F 
ATOM     31  C   UNL     1      -1.118  -2.535  24.831  0.00  0.00    +0.417 C 
ENDBRANCH  28  31
ENDBRANCH  12  25
ENDBRANCH   6  20
ENDBRANCH  16   6
TORSDOF 5
ENDMDL
MODEL 3
REMARK VINA RESULT:       0.5      1.540      2.028
REMARK  Name = 11883396
REMARK  5 active torsions:
REMARK  status: ('A' for Active; 'I' for Inactive)
REMARK    1  A    between atoms: O_6  and  C_16
REMARK    2  A    between atoms: O_6  and  C_20
REMARK    3  A    between atoms: N_10  and  C_15
REMARK    4  A    between atoms: N_12  and  C_25
REMARK    5  A    between atoms: C_28  and  C_31
REMARK                            x       y       z     vdW  Elec       q    Type
REMARK                         _______ _______ _______ _____ _____    ______ ____
ROOT
ATOM      4  O   UNL     1      -1.768  -1.072  23.667  0.00  0.00    -0.368 OA
ATOM      5  O   UNL     1      -1.721  -1.140  26.732  0.00  0.00    -0.368 OA
ATOM     13  C   UNL     1      -0.717  -1.479  25.754  0.00  0.00    +0.173 C 
ATOM     14  C   UNL     1      -1.440  -2.125  24.589  0.00  0.00    +0.192 C 
ATOM     15  C   UNL     1      -0.124  -0.223  25.161  0.00  0.00    +0.131 C 
ATOM     16  C   UNL     1      -2.673  -2.697  25.247  0.00  0.00    +0.235 C 
ATOM     17  C   UNL     1      -1.149   0.149  24.102  0.00  0.00    +0.185 C 
ATOM     18  C   UNL     1      -2.988  -1.654  26.296  0.00  0.00    +0.207 C 
ENDROOT
BRANCH  15  10
ATOM      7  O   UNL     1       1.447   1.649  23.768  0.00  0.00    -0.253 OA
ATOM      8  O   UNL     1       5.854  -0.398  22.831  0.00  0.00    -0.377 OA
ATOM     10  N   UNL     1       1.170  -0.482  24.571  0.00  0.00    -0.292 N 
ATOM     11  N   UNL     1       3.124   0.095  23.372  0.00  0.00    -0.281 N 
ATOM     19  C   UNL     1       1.886   0.501  23.897  0.00  0.00    +0.303 C 
ATOM     21  C   UNL     1       3.647  -1.278  23.348  0.00  0.00    +0.137 C 
ATOM     22  C   UNL     1       3.941   1.066  22.640  0.00  0.00    +0.137 C 
ATOM     23  C   UNL     1       5.136  -1.297  23.677  0.00  0.00    +0.179 C 
ATOM     24  C   UNL     1       5.407   0.945  23.025  0.00  0.00    +0.179 C 
ATOM     32  H   UNL     1       1.583  -1.380  24.776  0.00  0.00    +0.151 HD
ENDBRANCH  15  10
BRANCH  16   6
ATOM      6  O   UNL     1      -3.747  -2.893  24.355  0.00  0.00    -0.442 OA
BRANCH   6  20
ATOM      9  O   UNL     1      -5.365  -1.799  23.166  0.00  0.00    -0.226 OA
ATOM     12  N   UNL     1      -4.159  -0.736  24.868  0.00  0.00    -0.251 N 
ATOM     20  C   UNL     1      -4.513  -1.789  24.046  0.00  0.00    +0.405 C 
ATOM     33  H   UNL     1      -3.423  -0.923  25.545  0.00  0.00    +0.158 HD
BRANCH  12  25
ATOM     25  C   UNL     1      -4.693   0.572  24.886  0.00  0.00    +0.037 A 
ATOM     26  C   UNL     1      -3.840   1.676  24.838  0.00  0.00    +0.035 A 
ATOM     27  C   UNL     1      -6.073   0.760  24.952  0.00  0.00    +0.023 A 
ATOM     28  C   UNL     1      -4.368   2.966  24.855  0.00  0.00    +0.057 A 
ATOM     29  C   UNL     1      -6.601   2.052  24.971  0.00  0.00    +0.002 A 
ATOM     30  C   UNL     1      -5.747   3.155  24.922  0.00  0.00    +0.012 A 
BRANCH  28  31
ATOM      1  F   UNL     1      -2.182   3.835  24.422  0.00  0.00    -0.166 F 
ATOM      2  F   UNL     1      -3.863   5.115  23.933  0.00  0.00    -0.166 F 
ATOM      3  F   UNL     1      -3.333   4.767  26.013  0.00  0.00    -0.166 F 
ATOM     31  C   UNL     1      -3.456   4.145  24.804  0.00  0.00    +0.417 C 
ENDBRANCH  28  31
ENDBRANCH  12  25
ENDBRANCH   6  20
ENDBRANCH  16   6
TORSDOF 5
ENDMDL
