MODEL 1
REMARK VINA RESULT:       4.2      0.000      0.000
REMARK  Name = 40777193
REMARK  8 active torsions:
REMARK  status: ('A' for Active; 'I' for Inactive)
REMARK    1  A    between atoms: S_1  and  C_31
REMARK    2  A    between atoms: S_1  and  C_34
REMARK    3  A    between atoms: N_4  and  C_15
REMARK    4  A    between atoms: N_5  and  C_16
REMARK    5  A    between atoms: N_6  and  C_22
REMARK    6  A    between atoms: N_7  and  C_25
REMARK    7  A    between atoms: C_9  and  C_15
REMARK    8  A    between atoms: C_10  and  C_16
REMARK                            x       y       z     vdW  Elec       q    Type
REMARK                         _______ _______ _______ _____ _____    ______ ____
ROOT
ATOM      3  N   UNL     1      -3.911   4.973  24.250  0.00  0.00    -0.298 NA
ATOM      8  C   UNL     1      -1.787   3.943  25.343  0.00  0.00    -0.003 C 
ATOM      9  C   UNL     1      -1.955   3.447  23.889  0.00  0.00    +0.020 C 
ATOM     10  C   UNL     1      -4.262   4.341  25.552  0.00  0.00    +0.074 C 
ATOM     11  C   UNL     1      -3.050   3.593  26.150  0.00  0.00    +0.024 C 
ATOM     12  C   UNL     1      -3.301   3.972  23.341  0.00  0.00    +0.089 C 
ATOM     13  C   UNL     1      -1.694   5.479  25.284  0.00  0.00    +0.019 C 
ATOM     14  C   UNL     1      -2.907   6.031  24.513  0.00  0.00    +0.085 C 
ENDROOT
BRANCH   9  15
ATOM     15  C   UNL     1      -1.845   1.930  23.753  0.00  0.00    +0.089 C 
BRANCH  15   4
ATOM      4  N   UNL     1      -0.518   1.543  23.278  0.00  0.00    -0.299 NA
ATOM      6  N   UNL     1       2.101   0.421  23.483  0.00  0.00    -0.327 N 
ATOM     17  C   UNL     1      -0.338   0.090  23.378  0.00  0.00    +0.103 C 
ATOM     18  C   UNL     1       0.526   2.230  24.049  0.00  0.00    +0.103 C 
ATOM     19  C   UNL     1       1.028  -0.335  22.830  0.00  0.00    +0.120 C 
ATOM     20  C   UNL     1       1.919   1.878  23.524  0.00  0.00    +0.120 C 
BRANCH   6  22
ATOM     22  C   UNL     1       3.408  -0.079  23.470  0.00  0.00    +0.030 A 
ATOM     23  C   UNL     1       4.472   0.758  23.134  0.00  0.00    +0.023 A 
ATOM     24  C   UNL     1       3.646  -1.414  23.796  0.00  0.00    +0.023 A 
ATOM     26  C   UNL     1       5.775   0.260  23.125  0.00  0.00    +0.002 A 
ATOM     27  C   UNL     1       4.950  -1.912  23.787  0.00  0.00    +0.002 A 
ATOM     28  C   UNL     1       6.014  -1.074  23.452  0.00  0.00    +0.000 A 
ENDBRANCH   6  22
ENDBRANCH  15   4
ENDBRANCH   9  15
BRANCH  10  16
ATOM     16  C   UNL     1      -5.494   3.439  25.449  0.00  0.00    +0.124 C 
BRANCH  16   5
ATOM      2  O   UNL     1      -4.386   1.450  23.712  0.00  0.00    -0.253 OA
ATOM      5  N   UNL     1      -5.160   2.068  25.799  0.00  0.00    -0.298 N 
ATOM      7  N   UNL     1      -4.405  -0.070  25.501  0.00  0.00    -0.269 N 
ATOM     21  C   UNL     1      -4.621   1.166  24.884  0.00  0.00    +0.304 C 
ATOM     35  H   UNL     1      -5.333   1.760  26.751  0.00  0.00    +0.150 HD
ATOM     36  H   UNL     1      -4.657  -0.138  26.484  0.00  0.00    +0.156 HD
BRANCH   7  25
ATOM     25  C   UNL     1      -3.875  -1.246  24.925  0.00  0.00    +0.036 A 
ATOM     29  C   UNL     1      -2.558  -1.621  25.189  0.00  0.00    +0.038 A 
ATOM     30  C   UNL     1      -4.670  -2.033  24.090  0.00  0.00    +0.023 A 
ATOM     31  C   UNL     1      -2.036  -2.783  24.620  0.00  0.00    +0.009 A 
ATOM     32  C   UNL     1      -4.148  -3.194  23.521  0.00  0.00    +0.003 A 
ATOM     33  C   UNL     1      -2.830  -3.569  23.785  0.00  0.00    +0.015 A 
BRANCH  31   1
ATOM      1  S   UNL     1      -0.352  -3.263  24.959  0.00  0.00    -0.129 S 
ATOM     34  C   UNL     1       0.207  -1.909  26.030  0.00  0.00    +0.090 C 
ENDBRANCH  31   1
ENDBRANCH   7  25
ENDBRANCH  16   5
ENDBRANCH  10  16
TORSDOF 7
ENDMDL
MODEL 2
REMARK VINA RESULT:       7.9      3.171      5.083
REMARK  Name = 40777193
REMARK  8 active torsions:
REMARK  status: ('A' for Active; 'I' for Inactive)
REMARK    1  A    between atoms: S_1  and  C_31
REMARK    2  A    between atoms: S_1  and  C_34
REMARK    3  A    between atoms: N_4  and  C_15
REMARK    4  A    between atoms: N_5  and  C_16
REMARK    5  A    between atoms: N_6  and  C_22
REMARK    6  A    between atoms: N_7  and  C_25
REMARK    7  A    between atoms: C_9  and  C_15
REMARK    8  A    between atoms: C_10  and  C_16
REMARK                            x       y       z     vdW  Elec       q    Type
REMARK                         _______ _______ _______ _____ _____    ______ ____
ROOT
ATOM      3  N   UNL     1      -4.040   2.747  25.707  0.00  0.00    -0.298 NA
ATOM      8  C   UNL     1      -5.318   1.245  24.009  0.00  0.00    -0.003 C 
ATOM      9  C   UNL     1      -4.339   0.406  24.860  0.00  0.00    +0.020 C 
ATOM     10  C   UNL     1      -3.917   3.309  24.335  0.00  0.00    +0.074 C 
ATOM     11  C   UNL     1      -4.538   2.360  23.287  0.00  0.00    +0.024 C 
ATOM     12  C   UNL     1      -3.508   1.363  25.745  0.00  0.00    +0.089 C 
ATOM     13  C   UNL     1      -6.289   1.930  24.989  0.00  0.00    +0.019 C 
ATOM     14  C   UNL     1      -5.482   2.698  26.051  0.00  0.00    +0.085 C 
ENDROOT
BRANCH   9  15
ATOM     15  C   UNL     1      -3.445  -0.508  24.026  0.00  0.00    +0.089 C 
BRANCH  15   4
ATOM      4  N   UNL     1      -2.037  -0.146  24.185  0.00  0.00    -0.299 NA
ATOM      6  N   UNL     1       0.755  -0.209  23.585  0.00  0.00    -0.327 N 
ATOM     17  C   UNL     1      -1.526   0.484  22.962  0.00  0.00    +0.103 C 
ATOM     18  C   UNL     1      -1.234  -1.333  24.509  0.00  0.00    +0.103 C 
ATOM     19  C   UNL     1      -0.067   0.918  23.134  0.00  0.00    +0.120 C 
ATOM     20  C   UNL     1       0.232  -0.959  24.734  0.00  0.00    +0.120 C 
BRANCH   6  22
ATOM     22  C   UNL     1       2.142  -0.174  23.397  0.00  0.00    +0.030 A 
ATOM     23  C   UNL     1       2.744   0.962  22.858  0.00  0.00    +0.023 A 
ATOM     24  C   UNL     1       2.921  -1.275  23.754  0.00  0.00    +0.023 A 
ATOM     26  C   UNL     1       4.127   0.998  22.676  0.00  0.00    +0.002 A 
ATOM     27  C   UNL     1       4.304  -1.239  23.571  0.00  0.00    +0.002 A 
ATOM     28  C   UNL     1       4.906  -0.101  23.032  0.00  0.00    +0.000 A 
ENDBRANCH   6  22
ENDBRANCH  15   4
ENDBRANCH   9  15
BRANCH  10  16
ATOM     16  C   UNL     1      -2.474   3.678  23.983  0.00  0.00    +0.124 C 
BRANCH  16   5
ATOM      2  O   UNL     1      -0.900   4.619  26.184  0.00  0.00    -0.253 OA
ATOM      5  N   UNL     1      -1.535   2.901  24.776  0.00  0.00    -0.298 N 
ATOM      7  N   UNL     1       0.008   2.466  26.406  0.00  0.00    -0.269 N 
ATOM     21  C   UNL     1      -0.809   3.445  25.834  0.00  0.00    +0.304 C 
ATOM     35  H   UNL     1      -1.403   1.922  24.540  0.00  0.00    +0.150 HD
ATOM     36  H   UNL     1      -0.035   1.537  25.994  0.00  0.00    +0.156 HD
BRANCH   7  25
ATOM     25  C   UNL     1       0.897   2.607  27.497  0.00  0.00    +0.036 A 
ATOM     29  C   UNL     1       0.497   2.222  28.776  0.00  0.00    +0.038 A 
ATOM     30  C   UNL     1       2.172   3.133  27.293  0.00  0.00    +0.023 A 
ATOM     31  C   UNL     1       1.375   2.361  29.852  0.00  0.00    +0.009 A 
ATOM     32  C   UNL     1       3.050   3.272  28.369  0.00  0.00    +0.003 A 
ATOM     33  C   UNL     1       2.650   2.887  29.649  0.00  0.00    +0.015 A 
BRANCH  31   1
ATOM      1  S   UNL     1       0.865   1.866  31.488  0.00  0.00    -0.129 S 
ATOM     34  C   UNL     1       0.093   3.387  32.107  0.00  0.00    +0.090 C 
ENDBRANCH  31   1
ENDBRANCH   7  25
ENDBRANCH  16   5
ENDBRANCH  10  16
TORSDOF 7
ENDMDL
MODEL 3
REMARK VINA RESULT:       8.1      1.002      1.766
REMARK  Name = 40777193
REMARK  8 active torsions:
REMARK  status: ('A' for Active; 'I' for Inactive)
REMARK    1  A    between atoms: S_1  and  C_31
REMARK    2  A    between atoms: S_1  and  C_34
REMARK    3  A    between atoms: N_4  and  C_15
REMARK    4  A    between atoms: N_5  and  C_16
REMARK    5  A    between atoms: N_6  and  C_22
REMARK    6  A    between atoms: N_7  and  C_25
REMARK    7  A    between atoms: C_9  and  C_15
REMARK    8  A    between atoms: C_10  and  C_16
REMARK                            x       y       z     vdW  Elec       q    Type
REMARK                         _______ _______ _______ _____ _____    ______ ____
ROOT
ATOM      3  N   UNL     1      -4.269   4.711  24.051  0.00  0.00    -0.298 NA
ATOM      8  C   UNL     1      -2.058   4.162  25.306  0.00  0.00    -0.003 C 
ATOM      9  C   UNL     1      -2.157   3.361  23.988  0.00  0.00    +0.020 C 
ATOM     10  C   UNL     1      -4.563   4.328  25.459  0.00  0.00    +0.074 C 
ATOM     11  C   UNL     1      -3.285   3.853  26.184  0.00  0.00    +0.024 C 
ATOM     12  C   UNL     1      -3.546   3.616  23.360  0.00  0.00    +0.089 C 
ATOM     13  C   UNL     1      -2.130   5.654  24.930  0.00  0.00    +0.019 C 
ATOM     14  C   UNL     1      -3.387   5.902  24.078  0.00  0.00    +0.085 C 
ENDROOT
BRANCH   9  15
ATOM     15  C   UNL     1      -1.884   1.870  24.167  0.00  0.00    +0.089 C 
BRANCH  15   4
ATOM      4  N   UNL     1      -0.591   1.503  23.591  0.00  0.00    -0.299 NA
ATOM      6  N   UNL     1       2.064   0.451  23.603  0.00  0.00    -0.327 N 
ATOM     17  C   UNL     1      -0.366   0.058  23.709  0.00  0.00    +0.103 C 
ATOM     18  C   UNL     1       0.495   2.235  24.257  0.00  0.00    +0.103 C 
ATOM     19  C   UNL     1       0.961  -0.348  23.060  0.00  0.00    +0.120 C 
ATOM     20  C   UNL     1       1.848   1.903  23.625  0.00  0.00    +0.120 C 
BRANCH   6  22
ATOM     22  C   UNL     1       3.378  -0.018  23.492  0.00  0.00    +0.030 A 
ATOM     23  C   UNL     1       4.391   0.840  23.065  0.00  0.00    +0.023 A 
ATOM     24  C   UNL     1       3.675  -1.342  23.813  0.00  0.00    +0.023 A 
ATOM     26  C   UNL     1       5.702   0.374  22.959  0.00  0.00    +0.002 A 
ATOM     27  C   UNL     1       4.986  -1.809  23.706  0.00  0.00    +0.002 A 
ATOM     28  C   UNL     1       5.999  -0.950  23.279  0.00  0.00    +0.000 A 
ENDBRANCH   6  22
ENDBRANCH  15   4
ENDBRANCH   9  15
BRANCH  10  16
ATOM     16  C   UNL     1      -5.690   3.298  25.560  0.00  0.00    +0.124 C 
BRANCH  16   5
ATOM      2  O   UNL     1      -4.555   1.250  23.909  0.00  0.00    -0.253 OA
ATOM      5  N   UNL     1      -5.176   2.012  26.001  0.00  0.00    -0.298 N 
ATOM      7  N   UNL     1      -4.228  -0.062  25.828  0.00  0.00    -0.269 N 
ATOM     21  C   UNL     1      -4.638   1.072  25.122  0.00  0.00    +0.304 C 
ATOM     35  H   UNL     1      -5.217   1.792  26.991  0.00  0.00    +0.150 HD
ATOM     36  H   UNL     1      -4.369  -0.049  26.835  0.00  0.00    +0.156 HD
BRANCH   7  25
ATOM     25  C   UNL     1      -3.634  -1.237  25.312  0.00  0.00    +0.036 A 
ATOM     29  C   UNL     1      -4.271  -1.953  24.298  0.00  0.00    +0.038 A 
ATOM     30  C   UNL     1      -2.413  -1.681  25.818  0.00  0.00    +0.023 A 
ATOM     31  C   UNL     1      -3.685  -3.112  23.789  0.00  0.00    +0.009 A 
ATOM     32  C   UNL     1      -1.826  -2.840  25.308  0.00  0.00    +0.003 A 
ATOM     33  C   UNL     1      -2.463  -3.556  24.295  0.00  0.00    +0.015 A 
BRANCH  31   1
ATOM      1  S   UNL     1      -4.497  -4.027  22.492  0.00  0.00    -0.129 S 
ATOM     34  C   UNL     1      -6.228  -3.977  23.036  0.00  0.00    +0.090 C 
ENDBRANCH  31   1
ENDBRANCH   7  25
ENDBRANCH  16   5
ENDBRANCH  10  16
TORSDOF 7
ENDMDL
MODEL 4
REMARK VINA RESULT:       8.1      2.982      5.293
REMARK  Name = 40777193
REMARK  8 active torsions:
REMARK  status: ('A' for Active; 'I' for Inactive)
REMARK    1  A    between atoms: S_1  and  C_31
REMARK    2  A    between atoms: S_1  and  C_34
REMARK    3  A    between atoms: N_4  and  C_15
REMARK    4  A    between atoms: N_5  and  C_16
REMARK    5  A    between atoms: N_6  and  C_22
REMARK    6  A    between atoms: N_7  and  C_25
REMARK    7  A    between atoms: C_9  and  C_15
REMARK    8  A    between atoms: C_10  and  C_16
REMARK                            x       y       z     vdW  Elec       q    Type
REMARK                         _______ _______ _______ _____ _____    ______ ____
ROOT
ATOM      3  N   UNL     1      -5.098   0.935  24.258  0.00  0.00    -0.298 NA
ATOM      8  C   UNL     1      -5.094   3.263  25.419  0.00  0.00    -0.003 C 
ATOM      9  C   UNL     1      -4.363   3.324  24.059  0.00  0.00    +0.020 C 
ATOM     10  C   UNL     1      -4.581   0.811  25.648  0.00  0.00    +0.074 C 
ATOM     11  C   UNL     1      -4.427   2.198  26.309  0.00  0.00    +0.024 C 
ATOM     12  C   UNL     1      -4.270   1.891  23.485  0.00  0.00    +0.089 C 
ATOM     13  C   UNL     1      -6.530   2.785  25.134  0.00  0.00    +0.019 C 
ATOM     14  C   UNL     1      -6.478   1.472  24.332  0.00  0.00    +0.085 C 
ENDROOT
BRANCH   9  15
ATOM     15  C   UNL     1      -2.990   3.987  24.141  0.00  0.00    +0.089 C 
BRANCH  15   4
ATOM      4  N   UNL     1      -2.127   3.284  25.090  0.00  0.00    -0.299 NA
ATOM      6  N   UNL     1      -0.100   3.044  27.088  0.00  0.00    -0.327 N 
ATOM     17  C   UNL     1      -2.373   3.757  26.457  0.00  0.00    +0.103 C 
ATOM     18  C   UNL     1      -0.714   3.477  24.741  0.00  0.00    +0.103 C 
ATOM     19  C   UNL     1      -1.516   2.989  27.468  0.00  0.00    +0.120 C 
ATOM     20  C   UNL     1       0.198   2.699  25.692  0.00  0.00    +0.120 C 
BRANCH   6  22
ATOM     22  C   UNL     1       0.886   2.801  28.051  0.00  0.00    +0.030 A 
ATOM     23  C   UNL     1       0.535   2.256  29.286  0.00  0.00    +0.023 A 
ATOM     24  C   UNL     1       2.219   3.101  27.773  0.00  0.00    +0.023 A 
ATOM     26  C   UNL     1       1.519   2.011  30.244  0.00  0.00    +0.002 A 
ATOM     27  C   UNL     1       3.203   2.855  28.732  0.00  0.00    +0.002 A 
ATOM     28  C   UNL     1       2.852   2.309  29.967  0.00  0.00    +0.000 A 
ENDBRANCH   6  22
ENDBRANCH  15   4
ENDBRANCH   9  15
BRANCH  10  16
ATOM     16  C   UNL     1      -3.285   0.001  25.718  0.00  0.00    +0.124 C 
BRANCH  16   5
ATOM      2  O   UNL     1      -1.019  -1.327  24.575  0.00  0.00    -0.253 OA
ATOM      5  N   UNL     1      -2.256   0.600  24.885  0.00  0.00    -0.298 N 
ATOM      7  N   UNL     1      -0.360   0.710  23.611  0.00  0.00    -0.269 N 
ATOM     21  C   UNL     1      -1.184  -0.126  24.370  0.00  0.00    +0.304 C 
ATOM     35  H   UNL     1      -2.324   1.592  24.677  0.00  0.00    +0.150 HD
ATOM     36  H   UNL     1      -0.641   1.685  23.540  0.00  0.00    +0.156 HD
BRANCH   7  25
ATOM     25  C   UNL     1       0.825   0.366  22.921  0.00  0.00    +0.036 A 
ATOM     29  C   UNL     1       2.066   0.729  23.444  0.00  0.00    +0.038 A 
ATOM     30  C   UNL     1       0.753  -0.335  21.717  0.00  0.00    +0.023 A 
ATOM     31  C   UNL     1       3.236   0.390  22.763  0.00  0.00    +0.009 A 
ATOM     32  C   UNL     1       1.922  -0.674  21.036  0.00  0.00    +0.003 A 
ATOM     33  C   UNL     1       3.164  -0.311  21.559  0.00  0.00    +0.015 A 
BRANCH  31   1
ATOM      1  S   UNL     1       4.823   0.852  23.431  0.00  0.00    -0.129 S 
ATOM     34  C   UNL     1       5.394  -0.717  24.141  0.00  0.00    +0.090 C 
ENDBRANCH  31   1
ENDBRANCH   7  25
ENDBRANCH  16   5
ENDBRANCH  10  16
TORSDOF 7
ENDMDL
