MODEL 1
REMARK VINA RESULT:      -1.8      0.000      0.000
REMARK  Name = 75536095
REMARK  9 active torsions:
REMARK  status: ('A' for Active; 'I' for Inactive)
REMARK    1  A    between atoms: S_1  and  N_7
REMARK    2  A    between atoms: S_1  and  C_17
REMARK    3  A    between atoms: O_2  and  C_11
REMARK    4  A    between atoms: O_3  and  C_13
REMARK    5  A    between atoms: O_6  and  C_20
REMARK    6  A    between atoms: O_6  and  C_26
REMARK    7  A    between atoms: N_7  and  C_9
REMARK    8  A    between atoms: C_10  and  C_14
REMARK    9  A    between atoms: C_23  and  C_27
REMARK                            x       y       z     vdW  Elec       q    Type
REMARK                         _______ _______ _______ _____ _____    ______ ____
ROOT
ATOM      9  C   UNL     1      -3.308   3.149  25.323  0.00  0.00    +0.115 C 
ATOM     10  C   UNL     1      -4.250   2.346  24.384  0.00  0.00    +0.043 C 
ATOM     11  C   UNL     1      -4.212   4.116  26.099  0.00  0.00    +0.162 C 
ATOM     12  C   UNL     1      -5.674   2.797  24.752  0.00  0.00    +0.043 C 
ATOM     13  C   UNL     1      -5.470   4.222  25.240  0.00  0.00    +0.145 C 
ENDROOT
BRANCH  10  14
ATOM     14  C   UNL     1      -4.063   0.848  24.459  0.00  0.00    -0.042 A 
ATOM     15  C   UNL     1      -4.209   0.188  25.680  0.00  0.00    +0.007 A 
ATOM     16  C   UNL     1      -3.744   0.125  23.310  0.00  0.00    +0.007 A 
ATOM     18  C   UNL     1      -4.038  -1.195  25.749  0.00  0.00    +0.046 A 
ATOM     19  C   UNL     1      -3.571  -1.256  23.380  0.00  0.00    +0.046 A 
ATOM     20  C   UNL     1      -3.717  -1.918  24.600  0.00  0.00    +0.120 A 
BRANCH  20   6
ATOM      6  O   UNL     1      -3.550  -3.266  24.668  0.00  0.00    -0.495 OA
ATOM     26  C   UNL     1      -2.544  -3.838  23.833  0.00  0.00    +0.277 C 
ENDBRANCH  20   6
ENDBRANCH  10  14
BRANCH  11   2
ATOM      2  O   UNL     1      -4.513   3.524  27.361  0.00  0.00    -0.388 OA
ATOM     29  H   UNL     1      -3.739   3.652  27.936  0.00  0.00    +0.210 HD
ENDBRANCH  11   2
BRANCH  13   3
ATOM      3  O   UNL     1      -6.589   4.687  25.965  0.00  0.00    -0.389 OA
ATOM     30  H   UNL     1      -6.340   5.529  26.382  0.00  0.00    +0.210 HD
ENDBRANCH  13   3
BRANCH   9   7
ATOM      7  N   UNL     1      -2.343   3.927  24.502  0.00  0.00    -0.184 NA
ATOM     28  H   UNL     1      -2.690   4.363  23.640  0.00  0.00    +0.148 HD
BRANCH   7   1
ATOM      1  S   UNL     1      -0.676   3.790  24.798  0.00  0.00    +0.059 S 
ATOM      4  O   UNL     1      -0.402   4.133  26.181  0.00  0.00    -0.153 OA
ATOM      5  O   UNL     1       0.045   4.450  23.726  0.00  0.00    -0.153 OA
BRANCH   1  17
ATOM     17  C   UNL     1      -0.413   2.053  24.605  0.00  0.00    +0.106 A 
ATOM     21  C   UNL     1       0.223   1.566  23.464  0.00  0.00    +0.047 A 
ATOM     22  C   UNL     1      -0.844   1.169  25.595  0.00  0.00    +0.028 A 
ATOM     23  C   UNL     1       0.429   0.195  23.311  0.00  0.00    +0.054 A 
ATOM     24  C   UNL     1      -0.637  -0.201  25.443  0.00  0.00    +0.003 A 
ATOM     25  C   UNL     1      -0.001  -0.689  24.301  0.00  0.00    +0.019 A 
BRANCH  23  27
ATOM      8  N   UNL     1       1.610  -0.710  21.191  0.00  0.00    -0.191 NA
ATOM     27  C   UNL     1       1.081  -0.304  22.142  0.00  0.00    +0.099 C 
ENDBRANCH  23  27
ENDBRANCH   1  17
ENDBRANCH   7   1
ENDBRANCH   9   7
TORSDOF 8
ENDMDL
MODEL 2
REMARK VINA RESULT:      -1.2      2.600      5.648
REMARK  Name = 75536095
REMARK  9 active torsions:
REMARK  status: ('A' for Active; 'I' for Inactive)
REMARK    1  A    between atoms: S_1  and  N_7
REMARK    2  A    between atoms: S_1  and  C_17
REMARK    3  A    between atoms: O_2  and  C_11
REMARK    4  A    between atoms: O_3  and  C_13
REMARK    5  A    between atoms: O_6  and  C_20
REMARK    6  A    between atoms: O_6  and  C_26
REMARK    7  A    between atoms: N_7  and  C_9
REMARK    8  A    between atoms: C_10  and  C_14
REMARK    9  A    between atoms: C_23  and  C_27
REMARK                            x       y       z     vdW  Elec       q    Type
REMARK                         _______ _______ _______ _____ _____    ______ ____
ROOT
ATOM      9  C   UNL     1      -2.659   0.055  24.602  0.00  0.00    +0.115 C 
ATOM     10  C   UNL     1      -1.795  -0.730  23.578  0.00  0.00    +0.043 C 
ATOM     11  C   UNL     1      -3.250  -1.000  25.548  0.00  0.00    +0.162 C 
ATOM     12  C   UNL     1      -1.822  -2.192  24.055  0.00  0.00    +0.043 C 
ATOM     13  C   UNL     1      -3.167  -2.301  24.756  0.00  0.00    +0.145 C 
ENDROOT
BRANCH  10  14
ATOM     14  C   UNL     1      -0.394  -0.186  23.410  0.00  0.00    -0.042 A 
ATOM     15  C   UNL     1       0.524  -0.860  22.603  0.00  0.00    +0.007 A 
ATOM     16  C   UNL     1      -0.018   0.988  24.063  0.00  0.00    +0.007 A 
ATOM     18  C   UNL     1       1.816  -0.357  22.448  0.00  0.00    +0.046 A 
ATOM     19  C   UNL     1       1.274   1.489  23.909  0.00  0.00    +0.046 A 
ATOM     20  C   UNL     1       2.192   0.817  23.101  0.00  0.00    +0.120 A 
BRANCH  20   6
ATOM      6  O   UNL     1       3.452   1.307  22.950  0.00  0.00    -0.495 OA
ATOM     26  C   UNL     1       4.529   0.382  23.093  0.00  0.00    +0.277 C 
ENDBRANCH  20   6
ENDBRANCH  10  14
BRANCH  11   2
ATOM      2  O   UNL     1      -2.425  -1.064  26.710  0.00  0.00    -0.388 OA
ATOM     29  H   UNL     1      -2.917  -1.554  27.391  0.00  0.00    +0.210 HD
ENDBRANCH  11   2
BRANCH  13   3
ATOM      3  O   UNL     1      -3.231  -3.447  25.579  0.00  0.00    -0.389 OA
ATOM     30  H   UNL     1      -3.273  -3.144  26.502  0.00  0.00    +0.210 HD
ENDBRANCH  13   3
BRANCH   9   7
ATOM      7  N   UNL     1      -3.762   0.748  23.885  0.00  0.00    -0.184 NA
ATOM     28  H   UNL     1      -3.928   0.496  22.904  0.00  0.00    +0.148 HD
BRANCH   7   1
ATOM      1  S   UNL     1      -4.467   2.140  24.558  0.00  0.00    +0.059 S 
ATOM      4  O   UNL     1      -5.091   1.800  25.823  0.00  0.00    -0.153 OA
ATOM      5  O   UNL     1      -5.226   2.823  23.529  0.00  0.00    -0.153 OA
BRANCH   1  17
ATOM     17  C   UNL     1      -3.048   3.137  24.901  0.00  0.00    +0.106 A 
ATOM     21  C   UNL     1      -2.023   2.640  25.707  0.00  0.00    +0.047 A 
ATOM     22  C   UNL     1      -2.954   4.421  24.367  0.00  0.00    +0.028 A 
ATOM     23  C   UNL     1      -0.905   3.427  25.979  0.00  0.00    +0.054 A 
ATOM     24  C   UNL     1      -1.835   5.209  24.638  0.00  0.00    +0.003 A 
ATOM     25  C   UNL     1      -0.810   4.712  25.444  0.00  0.00    +0.019 A 
BRANCH  23  27
ATOM      8  N   UNL     1       0.997   2.505  27.475  0.00  0.00    -0.191 NA
ATOM     27  C   UNL     1       0.144   2.918  26.804  0.00  0.00    +0.099 C 
ENDBRANCH  23  27
ENDBRANCH   1  17
ENDBRANCH   7   1
ENDBRANCH   9   7
TORSDOF 8
ENDMDL
MODEL 3
REMARK VINA RESULT:      -1.2      2.506      4.704
REMARK  Name = 75536095
REMARK  9 active torsions:
REMARK  status: ('A' for Active; 'I' for Inactive)
REMARK    1  A    between atoms: S_1  and  N_7
REMARK    2  A    between atoms: S_1  and  C_17
REMARK    3  A    between atoms: O_2  and  C_11
REMARK    4  A    between atoms: O_3  and  C_13
REMARK    5  A    between atoms: O_6  and  C_20
REMARK    6  A    between atoms: O_6  and  C_26
REMARK    7  A    between atoms: N_7  and  C_9
REMARK    8  A    between atoms: C_10  and  C_14
REMARK    9  A    between atoms: C_23  and  C_27
REMARK                            x       y       z     vdW  Elec       q    Type
REMARK                         _______ _______ _______ _____ _____    ______ ____
ROOT
ATOM      9  C   UNL     1      -2.998   2.943  24.787  0.00  0.00    +0.115 C 
ATOM     10  C   UNL     1      -1.510   2.921  25.235  0.00  0.00    +0.043 C 
ATOM     11  C   UNL     1      -3.379   4.424  24.667  0.00  0.00    +0.162 C 
ATOM     12  C   UNL     1      -1.061   4.392  25.229  0.00  0.00    +0.043 C 
ATOM     13  C   UNL     1      -2.346   5.147  25.527  0.00  0.00    +0.145 C 
ENDROOT
BRANCH  10  14
ATOM     14  C   UNL     1      -0.628   2.027  24.393  0.00  0.00    -0.042 A 
ATOM     15  C   UNL     1       0.753   2.026  24.589  0.00  0.00    +0.007 A 
ATOM     16  C   UNL     1      -1.194   1.202  23.421  0.00  0.00    +0.007 A 
ATOM     18  C   UNL     1       1.567   1.200  23.814  0.00  0.00    +0.046 A 
ATOM     19  C   UNL     1      -0.380   0.378  22.645  0.00  0.00    +0.046 A 
ATOM     20  C   UNL     1       1.001   0.377  22.841  0.00  0.00    +0.120 A 
BRANCH  20   6
ATOM      6  O   UNL     1       1.795  -0.429  22.084  0.00  0.00    -0.495 OA
ATOM     26  C   UNL     1       3.157  -0.035  21.928  0.00  0.00    +0.277 C 
ENDBRANCH  20   6
ENDBRANCH  10  14
BRANCH  11   2
ATOM      2  O   UNL     1      -3.248   4.805  23.298  0.00  0.00    -0.388 OA
ATOM     29  H   UNL     1      -2.718   4.121  22.854  0.00  0.00    +0.210 HD
ENDBRANCH  11   2
BRANCH  13   3
ATOM      3  O   UNL     1      -2.229   6.517  25.205  0.00  0.00    -0.389 OA
ATOM     30  H   UNL     1      -2.551   7.027  25.968  0.00  0.00    +0.210 HD
ENDBRANCH  13   3
BRANCH   9   7
ATOM      7  N   UNL     1      -3.836   2.302  25.835  0.00  0.00    -0.184 NA
ATOM     28  H   UNL     1      -3.480   2.301  26.798  0.00  0.00    +0.148 HD
BRANCH   7   1
ATOM      1  S   UNL     1      -5.139   1.309  25.387  0.00  0.00    +0.059 S 
ATOM      4  O   UNL     1      -5.774   1.852  24.201  0.00  0.00    -0.153 OA
ATOM      5  O   UNL     1      -5.928   1.013  26.567  0.00  0.00    -0.153 OA
BRANCH   1  17
ATOM     17  C   UNL     1      -4.316  -0.187  24.929  0.00  0.00    +0.106 A 
ATOM     21  C   UNL     1      -3.008  -0.422  25.351  0.00  0.00    +0.047 A 
ATOM     22  C   UNL     1      -4.976  -1.132  24.143  0.00  0.00    +0.028 A 
ATOM     23  C   UNL     1      -2.359  -1.601  24.988  0.00  0.00    +0.054 A 
ATOM     24  C   UNL     1      -4.328  -2.312  23.780  0.00  0.00    +0.003 A 
ATOM     25  C   UNL     1      -3.019  -2.548  24.202  0.00  0.00    +0.019 A 
BRANCH  23  27
ATOM      8  N   UNL     1       0.070  -2.039  25.772  0.00  0.00    -0.191 NA
ATOM     27  C   UNL     1      -1.019  -1.843  25.421  0.00  0.00    +0.099 C 
ENDBRANCH  23  27
ENDBRANCH   1  17
ENDBRANCH   7   1
ENDBRANCH   9   7
TORSDOF 8
ENDMDL
MODEL 4
REMARK VINA RESULT:      -0.6      3.018      6.471
REMARK  Name = 75536095
REMARK  9 active torsions:
REMARK  status: ('A' for Active; 'I' for Inactive)
REMARK    1  A    between atoms: S_1  and  N_7
REMARK    2  A    between atoms: S_1  and  C_17
REMARK    3  A    between atoms: O_2  and  C_11
REMARK    4  A    between atoms: O_3  and  C_13
REMARK    5  A    between atoms: O_6  and  C_20
REMARK    6  A    between atoms: O_6  and  C_26
REMARK    7  A    between atoms: N_7  and  C_9
REMARK    8  A    between atoms: C_10  and  C_14
REMARK    9  A    between atoms: C_23  and  C_27
REMARK                            x       y       z     vdW  Elec       q    Type
REMARK                         _______ _______ _______ _____ _____    ______ ____
ROOT
ATOM      9  C   UNL     1       0.234   0.976  24.475  0.00  0.00    +0.115 C 
ATOM     10  C   UNL     1       0.847   0.276  23.231  0.00  0.00    +0.043 C 
ATOM     11  C   UNL     1      -0.836   0.017  25.012  0.00  0.00    +0.162 C 
ATOM     12  C   UNL     1       0.191  -1.114  23.180  0.00  0.00    +0.043 C 
ATOM     13  C   UNL     1      -1.167  -0.878  23.821  0.00  0.00    +0.145 C 
ENDROOT
BRANCH  10  14
ATOM     14  C   UNL     1       2.358   0.219  23.239  0.00  0.00    -0.042 A 
ATOM     15  C   UNL     1       3.099   1.336  22.851  0.00  0.00    +0.007 A 
ATOM     16  C   UNL     1       3.011  -0.948  23.633  0.00  0.00    +0.007 A 
ATOM     18  C   UNL     1       4.494   1.284  22.859  0.00  0.00    +0.046 A 
ATOM     19  C   UNL     1       4.404  -1.000  23.640  0.00  0.00    +0.046 A 
ATOM     20  C   UNL     1       5.147   0.116  23.253  0.00  0.00    +0.120 A 
BRANCH  20   6
ATOM      6  O   UNL     1       6.506   0.066  23.261  0.00  0.00    -0.495 OA
ATOM     26  C   UNL     1       7.117  -1.070  22.651  0.00  0.00    +0.277 C 
ENDBRANCH  20   6
ENDBRANCH  10  14
BRANCH  11   2
ATOM      2  O   UNL     1      -0.257  -0.745  26.070  0.00  0.00    -0.388 OA
ATOM     29  H   UNL     1       0.704  -0.601  26.041  0.00  0.00    +0.210 HD
ENDBRANCH  11   2
BRANCH  13   3
ATOM      3  O   UNL     1      -1.778  -2.093  24.204  0.00  0.00    -0.389 OA
ATOM     30  H   UNL     1      -1.988  -2.031  25.151  0.00  0.00    +0.210 HD
ENDBRANCH  13   3
BRANCH   9   7
ATOM      7  N   UNL     1      -0.409   2.249  24.055  0.00  0.00    -0.184 NA
ATOM     28  H   UNL     1      -0.192   2.609  23.118  0.00  0.00    +0.148 HD
BRANCH   7   1
ATOM      1  S   UNL     1      -1.176   3.232  25.210  0.00  0.00    +0.059 S 
ATOM      4  O   UNL     1      -1.166   4.609  24.753  0.00  0.00    -0.153 OA
ATOM      5  O   UNL     1      -0.664   2.895  26.524  0.00  0.00    -0.153 OA
BRANCH   1  17
ATOM     17  C   UNL     1      -2.842   2.645  25.138  0.00  0.00    +0.106 A 
ATOM     21  C   UNL     1      -3.103   1.329  24.758  0.00  0.00    +0.047 A 
ATOM     22  C   UNL     1      -3.895   3.501  25.459  0.00  0.00    +0.028 A 
ATOM     23  C   UNL     1      -4.417   0.867  24.700  0.00  0.00    +0.054 A 
ATOM     24  C   UNL     1      -5.210   3.039  25.403  0.00  0.00    +0.003 A 
ATOM     25  C   UNL     1      -5.472   1.723  25.023  0.00  0.00    +0.019 A 
BRANCH  23  27
ATOM      8  N   UNL     1      -4.903  -1.577  23.997  0.00  0.00    -0.191 NA
ATOM     27  C   UNL     1      -4.685  -0.481  24.312  0.00  0.00    +0.099 C 
ENDBRANCH  23  27
ENDBRANCH   1  17
ENDBRANCH   7   1
ENDBRANCH   9   7
TORSDOF 8
ENDMDL
MODEL 5
REMARK VINA RESULT:       0.0      2.920      6.907
REMARK  Name = 75536095
REMARK  9 active torsions:
REMARK  status: ('A' for Active; 'I' for Inactive)
REMARK    1  A    between atoms: S_1  and  N_7
REMARK    2  A    between atoms: S_1  and  C_17
REMARK    3  A    between atoms: O_2  and  C_11
REMARK    4  A    between atoms: O_3  and  C_13
REMARK    5  A    between atoms: O_6  and  C_20
REMARK    6  A    between atoms: O_6  and  C_26
REMARK    7  A    between atoms: N_7  and  C_9
REMARK    8  A    between atoms: C_10  and  C_14
REMARK    9  A    between atoms: C_23  and  C_27
REMARK                            x       y       z     vdW  Elec       q    Type
REMARK                         _______ _______ _______ _____ _____    ______ ____
ROOT
ATOM      9  C   UNL     1       0.184   0.645  24.406  0.00  0.00    +0.115 C 
ATOM     10  C   UNL     1       0.853  -0.009  23.165  0.00  0.00    +0.043 C 
ATOM     11  C   UNL     1      -0.857  -0.366  24.903  0.00  0.00    +0.162 C 
ATOM     12  C   UNL     1       0.255  -1.424  23.079  0.00  0.00    +0.043 C 
ATOM     13  C   UNL     1      -1.125  -1.254  23.692  0.00  0.00    +0.145 C 
ENDROOT
BRANCH  10  14
ATOM     14  C   UNL     1       2.365  -0.004  23.207  0.00  0.00    -0.042 A 
ATOM     15  C   UNL     1       3.054  -1.134  23.649  0.00  0.00    +0.007 A 
ATOM     16  C   UNL     1       3.070   1.129  22.803  0.00  0.00    +0.007 A 
ATOM     18  C   UNL     1       4.448  -1.129  23.687  0.00  0.00    +0.046 A 
ATOM     19  C   UNL     1       4.464   1.134  22.842  0.00  0.00    +0.046 A 
ATOM     20  C   UNL     1       5.154   0.005  23.284  0.00  0.00    +0.120 A 
BRANCH  20   6
ATOM      6  O   UNL     1       6.514   0.009  23.320  0.00  0.00    -0.495 OA
ATOM     26  C   UNL     1       7.183  -1.067  22.665  0.00  0.00    +0.277 C 
ENDBRANCH  20   6
ENDBRANCH  10  14
BRANCH  11   2
ATOM      2  O   UNL     1      -0.271  -1.121  25.962  0.00  0.00    -0.388 OA
ATOM     29  H   UNL     1      -0.956  -1.717  26.309  0.00  0.00    +0.210 HD
ENDBRANCH  11   2
BRANCH  13   3
ATOM      3  O   UNL     1      -1.693  -2.499  24.042  0.00  0.00    -0.389 OA
ATOM     30  H   UNL     1      -2.284  -2.766  23.317  0.00  0.00    +0.210 HD
ENDBRANCH  13   3
BRANCH   9   7
ATOM      7  N   UNL     1      -0.502   1.897  23.991  0.00  0.00    -0.184 NA
ATOM     28  H   UNL     1      -0.439   2.172  23.004  0.00  0.00    +0.148 HD
BRANCH   7   1
ATOM      1  S   UNL     1      -1.049   2.993  25.168  0.00  0.00    +0.059 S 
ATOM      4  O   UNL     1      -0.809   4.349  24.712  0.00  0.00    -0.153 OA
ATOM      5  O   UNL     1      -0.568   2.563  26.466  0.00  0.00    -0.153 OA
BRANCH   1  17
ATOM     17  C   UNL     1      -2.794   2.711  25.144  0.00  0.00    +0.106 A 
ATOM     21  C   UNL     1      -3.676   3.772  25.349  0.00  0.00    +0.047 A 
ATOM     22  C   UNL     1      -3.289   1.426  24.921  0.00  0.00    +0.028 A 
ATOM     23  C   UNL     1      -5.052   3.549  25.332  0.00  0.00    +0.054 A 
ATOM     24  C   UNL     1      -4.665   1.202  24.903  0.00  0.00    +0.003 A 
ATOM     25  C   UNL     1      -5.547   2.263  25.108  0.00  0.00    +0.019 A 
BRANCH  23  27
ATOM      8  N   UNL     1      -6.689   5.518  25.712  0.00  0.00    -0.191 NA
ATOM     27  C   UNL     1      -5.955   4.635  25.542  0.00  0.00    +0.099 C 
ENDBRANCH  23  27
ENDBRANCH   1  17
ENDBRANCH   7   1
ENDBRANCH   9   7
TORSDOF 8
ENDMDL
MODEL 6
REMARK VINA RESULT:       0.1      2.822      6.664
REMARK  Name = 75536095
REMARK  9 active torsions:
REMARK  status: ('A' for Active; 'I' for Inactive)
REMARK    1  A    between atoms: S_1  and  N_7
REMARK    2  A    between atoms: S_1  and  C_17
REMARK    3  A    between atoms: O_2  and  C_11
REMARK    4  A    between atoms: O_3  and  C_13
REMARK    5  A    between atoms: O_6  and  C_20
REMARK    6  A    between atoms: O_6  and  C_26
REMARK    7  A    between atoms: N_7  and  C_9
REMARK    8  A    between atoms: C_10  and  C_14
REMARK    9  A    between atoms: C_23  and  C_27
REMARK                            x       y       z     vdW  Elec       q    Type
REMARK                         _______ _______ _______ _____ _____    ______ ____
ROOT
ATOM      9  C   UNL     1      -0.078   0.566  24.437  0.00  0.00    +0.115 C 
ATOM     10  C   UNL     1       0.586  -0.126  23.214  0.00  0.00    +0.043 C 
ATOM     11  C   UNL     1      -1.050  -0.465  25.025  0.00  0.00    +0.162 C 
ATOM     12  C   UNL     1       0.061  -1.571  23.228  0.00  0.00    +0.043 C 
ATOM     13  C   UNL     1      -1.308  -1.435  23.875  0.00  0.00    +0.145 C 
ENDROOT
BRANCH  10  14
ATOM     14  C   UNL     1       2.097  -0.043  23.205  0.00  0.00    -0.042 A 
ATOM     15  C   UNL     1       2.858  -1.165  23.533  0.00  0.00    +0.007 A 
ATOM     16  C   UNL     1       2.728   1.155  22.871  0.00  0.00    +0.007 A 
ATOM     18  C   UNL     1       4.251  -1.089  23.524  0.00  0.00    +0.046 A 
ATOM     19  C   UNL     1       4.120   1.231  22.863  0.00  0.00    +0.046 A 
ATOM     20  C   UNL     1       4.883   0.109  23.190  0.00  0.00    +0.120 A 
BRANCH  20   6
ATOM      6  O   UNL     1       6.241   0.183  23.181  0.00  0.00    -0.495 OA
ATOM     26  C   UNL     1       6.954  -1.012  22.870  0.00  0.00    +0.277 C 
ENDBRANCH  20   6
ENDBRANCH  10  14
BRANCH  11   2
ATOM      2  O   UNL     1      -0.394  -1.126  26.105  0.00  0.00    -0.388 OA
ATOM     29  H   UNL     1       0.556  -1.152  25.898  0.00  0.00    +0.210 HD
ENDBRANCH  11   2
BRANCH  13   3
ATOM      3  O   UNL     1      -1.800  -2.683  24.314  0.00  0.00    -0.389 OA
ATOM     30  H   UNL     1      -2.398  -3.022  23.625  0.00  0.00    +0.210 HD
ENDBRANCH  13   3
BRANCH   9   7
ATOM      7  N   UNL     1      -0.839   1.756  23.974  0.00  0.00    -0.184 NA
ATOM     28  H   UNL     1      -1.241   1.729  23.029  0.00  0.00    +0.148 HD
BRANCH   7   1
ATOM      1  S   UNL     1      -0.735   3.216  24.835  0.00  0.00    +0.059 S 
ATOM      4  O   UNL     1      -0.340   4.281  23.932  0.00  0.00    -0.153 OA
ATOM      5  O   UNL     1       0.008   2.985  26.059  0.00  0.00    -0.153 OA
BRANCH   1  17
ATOM     17  C   UNL     1      -2.419   3.488  25.296  0.00  0.00    +0.106 A 
ATOM     21  C   UNL     1      -3.407   2.589  24.896  0.00  0.00    +0.047 A 
ATOM     22  C   UNL     1      -2.760   4.605  26.060  0.00  0.00    +0.028 A 
ATOM     23  C   UNL     1      -4.736   2.805  25.259  0.00  0.00    +0.054 A 
ATOM     24  C   UNL     1      -4.089   4.821  26.424  0.00  0.00    +0.003 A 
ATOM     25  C   UNL     1      -5.078   3.921  26.024  0.00  0.00    +0.019 A 
BRANCH  23  27
ATOM      8  N   UNL     1      -6.570   1.134  24.516  0.00  0.00    -0.191 NA
ATOM     27  C   UNL     1      -5.748   1.883  24.849  0.00  0.00    +0.099 C 
ENDBRANCH  23  27
ENDBRANCH   1  17
ENDBRANCH   7   1
ENDBRANCH   9   7
TORSDOF 8
ENDMDL
MODEL 7
REMARK VINA RESULT:       0.6      2.534      4.789
REMARK  Name = 75536095
REMARK  9 active torsions:
REMARK  status: ('A' for Active; 'I' for Inactive)
REMARK    1  A    between atoms: S_1  and  N_7
REMARK    2  A    between atoms: S_1  and  C_17
REMARK    3  A    between atoms: O_2  and  C_11
REMARK    4  A    between atoms: O_3  and  C_13
REMARK    5  A    between atoms: O_6  and  C_20
REMARK    6  A    between atoms: O_6  and  C_26
REMARK    7  A    between atoms: N_7  and  C_9
REMARK    8  A    between atoms: C_10  and  C_14
REMARK    9  A    between atoms: C_23  and  C_27
REMARK                            x       y       z     vdW  Elec       q    Type
REMARK                         _______ _______ _______ _____ _____    ______ ____
ROOT
ATOM      9  C   UNL     1      -2.972   3.022  23.920  0.00  0.00    +0.115 C 
ATOM     10  C   UNL     1      -2.175   2.124  24.907  0.00  0.00    +0.043 C 
ATOM     11  C   UNL     1      -3.202   4.349  24.654  0.00  0.00    +0.162 C 
ATOM     12  C   UNL     1      -1.871   3.020  26.119  0.00  0.00    +0.043 C 
ATOM     13  C   UNL     1      -3.037   3.995  26.129  0.00  0.00    +0.145 C 
ENDROOT
BRANCH  10  14
ATOM     14  C   UNL     1      -0.937   1.497  24.306  0.00  0.00    -0.042 A 
ATOM     15  C   UNL     1      -0.974   0.177  23.855  0.00  0.00    +0.007 A 
ATOM     16  C   UNL     1       0.240   2.236  24.203  0.00  0.00    +0.007 A 
ATOM     18  C   UNL     1       0.168  -0.401  23.299  0.00  0.00    +0.046 A 
ATOM     19  C   UNL     1       1.381   1.658  23.650  0.00  0.00    +0.046 A 
ATOM     20  C   UNL     1       1.346   0.338  23.197  0.00  0.00    +0.120 A 
BRANCH  20   6
ATOM      6  O   UNL     1       2.460  -0.226  22.656  0.00  0.00    -0.495 OA
ATOM     26  C   UNL     1       3.647   0.565  22.643  0.00  0.00    +0.277 C 
ENDBRANCH  20   6
ENDBRANCH  10  14
BRANCH  11   2
ATOM      2  O   UNL     1      -2.191   5.266  24.239  0.00  0.00    -0.388 OA
ATOM     29  H   UNL     1      -2.092   5.930  24.943  0.00  0.00    +0.210 HD
ENDBRANCH  11   2
BRANCH  13   3
ATOM      3  O   UNL     1      -2.762   5.123  26.934  0.00  0.00    -0.389 OA
ATOM     30  H   UNL     1      -3.190   5.892  26.519  0.00  0.00    +0.210 HD
ENDBRANCH  13   3
BRANCH   9   7
ATOM      7  N   UNL     1      -4.283   2.386  23.626  0.00  0.00    -0.184 NA
ATOM     28  H   UNL     1      -4.696   2.546  22.700  0.00  0.00    +0.148 HD
BRANCH   7   1
ATOM      1  S   UNL     1      -5.208   1.730  24.890  0.00  0.00    +0.059 S 
ATOM      4  O   UNL     1      -6.572   1.531  24.437  0.00  0.00    -0.153 OA
ATOM      5  O   UNL     1      -4.944   2.482  26.102  0.00  0.00    -0.153 OA
BRANCH   1  17
ATOM     17  C   UNL     1      -4.466   0.139  25.098  0.00  0.00    +0.106 A 
ATOM     21  C   UNL     1      -4.626  -0.840  24.118  0.00  0.00    +0.047 A 
ATOM     22  C   UNL     1      -3.720  -0.137  26.244  0.00  0.00    +0.028 A 
ATOM     23  C   UNL     1      -4.042  -2.095  24.282  0.00  0.00    +0.054 A 
ATOM     24  C   UNL     1      -3.135  -1.392  26.409  0.00  0.00    +0.003 A 
ATOM     25  C   UNL     1      -3.295  -2.371  25.429  0.00  0.00    +0.019 A 
BRANCH  23  27
ATOM      8  N   UNL     1      -4.340  -3.912  22.462  0.00  0.00    -0.191 NA
ATOM     27  C   UNL     1      -4.206  -3.098  23.278  0.00  0.00    +0.099 C 
ENDBRANCH  23  27
ENDBRANCH   1  17
ENDBRANCH   7   1
ENDBRANCH   9   7
TORSDOF 8
ENDMDL
MODEL 8
REMARK VINA RESULT:       0.9      2.664      4.511
REMARK  Name = 75536095
REMARK  9 active torsions:
REMARK  status: ('A' for Active; 'I' for Inactive)
REMARK    1  A    between atoms: S_1  and  N_7
REMARK    2  A    between atoms: S_1  and  C_17
REMARK    3  A    between atoms: O_2  and  C_11
REMARK    4  A    between atoms: O_3  and  C_13
REMARK    5  A    between atoms: O_6  and  C_20
REMARK    6  A    between atoms: O_6  and  C_26
REMARK    7  A    between atoms: N_7  and  C_9
REMARK    8  A    between atoms: C_10  and  C_14
REMARK    9  A    between atoms: C_23  and  C_27
REMARK                            x       y       z     vdW  Elec       q    Type
REMARK                         _______ _______ _______ _____ _____    ______ ____
ROOT
ATOM      9  C   UNL     1      -1.021   2.454  24.316  0.00  0.00    +0.115 C 
ATOM     10  C   UNL     1      -2.272   3.291  23.928  0.00  0.00    +0.043 C 
ATOM     11  C   UNL     1       0.033   3.468  24.784  0.00  0.00    +0.162 C 
ATOM     12  C   UNL     1      -1.928   4.740  24.311  0.00  0.00    +0.043 C 
ATOM     13  C   UNL     1      -0.416   4.788  24.163  0.00  0.00    +0.145 C 
ENDROOT
BRANCH  10  14
ATOM     14  C   UNL     1      -3.558   2.800  24.554  0.00  0.00    -0.042 A 
ATOM     15  C   UNL     1      -3.890   1.446  24.492  0.00  0.00    +0.007 A 
ATOM     16  C   UNL     1      -4.412   3.699  25.192  0.00  0.00    +0.007 A 
ATOM     18  C   UNL     1      -5.076   0.993  25.070  0.00  0.00    +0.046 A 
ATOM     19  C   UNL     1      -5.598   3.246  25.768  0.00  0.00    +0.046 A 
ATOM     20  C   UNL     1      -5.931   1.893  25.708  0.00  0.00    +0.120 A 
BRANCH  20   6
ATOM      6  O   UNL     1      -7.088   1.450  26.271  0.00  0.00    -0.495 OA
ATOM     26  C   UNL     1      -7.065   1.181  27.672  0.00  0.00    +0.277 C 
ENDBRANCH  20   6
ENDBRANCH  10  14
BRANCH  11   2
ATOM      2  O   UNL     1      -0.022   3.537  26.208  0.00  0.00    -0.388 OA
ATOM     29  H   UNL     1       0.400   2.732  26.556  0.00  0.00    +0.210 HD
ENDBRANCH  11   2
BRANCH  13   3
ATOM      3  O   UNL     1       0.133   5.913  24.816  0.00  0.00    -0.389 OA
ATOM     30  H   UNL     1      -0.535   6.620  24.797  0.00  0.00    +0.210 HD
ENDBRANCH  13   3
BRANCH   9   7
ATOM      7  N   UNL     1      -0.517   1.738  23.115  0.00  0.00    -0.184 NA
ATOM     28  H   UNL     1      -0.794   2.096  22.193  0.00  0.00    +0.148 HD
BRANCH   7   1
ATOM      1  S   UNL     1       0.181   0.198  23.278  0.00  0.00    +0.059 S 
ATOM      4  O   UNL     1       1.429   0.309  24.010  0.00  0.00    -0.153 OA
ATOM      5  O   UNL     1       0.146  -0.469  21.991  0.00  0.00    -0.153 OA
BRANCH   1  17
ATOM     17  C   UNL     1      -0.989  -0.624  24.318  0.00  0.00    +0.106 A 
ATOM     21  C   UNL     1      -2.046  -1.337  23.752  0.00  0.00    +0.047 A 
ATOM     22  C   UNL     1      -0.856  -0.557  25.705  0.00  0.00    +0.028 A 
ATOM     23  C   UNL     1      -2.970  -1.983  24.573  0.00  0.00    +0.054 A 
ATOM     24  C   UNL     1      -1.778  -1.204  26.526  0.00  0.00    +0.003 A 
ATOM     25  C   UNL     1      -2.836  -1.918  25.960  0.00  0.00    +0.019 A 
BRANCH  23  27
ATOM      8  N   UNL     1      -4.932  -3.308  23.524  0.00  0.00    -0.191 NA
ATOM     27  C   UNL     1      -4.052  -2.714  23.994  0.00  0.00    +0.099 C 
ENDBRANCH  23  27
ENDBRANCH   1  17
ENDBRANCH   7   1
ENDBRANCH   9   7
TORSDOF 8
ENDMDL
MODEL 9
REMARK VINA RESULT:       0.9      2.393      5.498
REMARK  Name = 75536095
REMARK  9 active torsions:
REMARK  status: ('A' for Active; 'I' for Inactive)
REMARK    1  A    between atoms: S_1  and  N_7
REMARK    2  A    between atoms: S_1  and  C_17
REMARK    3  A    between atoms: O_2  and  C_11
REMARK    4  A    between atoms: O_3  and  C_13
REMARK    5  A    between atoms: O_6  and  C_20
REMARK    6  A    between atoms: O_6  and  C_26
REMARK    7  A    between atoms: N_7  and  C_9
REMARK    8  A    between atoms: C_10  and  C_14
REMARK    9  A    between atoms: C_23  and  C_27
REMARK                            x       y       z     vdW  Elec       q    Type
REMARK                         _______ _______ _______ _____ _____    ______ ____
ROOT
ATOM      9  C   UNL     1      -3.127  -0.424  23.554  0.00  0.00    +0.115 C 
ATOM     10  C   UNL     1      -3.071   0.153  24.996  0.00  0.00    +0.043 C 
ATOM     11  C   UNL     1      -3.302  -1.940  23.715  0.00  0.00    +0.162 C 
ATOM     12  C   UNL     1      -3.344  -1.042  25.924  0.00  0.00    +0.043 C 
ATOM     13  C   UNL     1      -2.811  -2.224  25.132  0.00  0.00    +0.145 C 
ENDROOT
BRANCH  10  14
ATOM     14  C   UNL     1      -4.009   1.315  25.230  0.00  0.00    -0.042 A 
ATOM     15  C   UNL     1      -5.352   1.078  25.524  0.00  0.00    +0.007 A 
ATOM     16  C   UNL     1      -3.533   2.624  25.152  0.00  0.00    +0.007 A 
ATOM     18  C   UNL     1      -6.218   2.150  25.741  0.00  0.00    +0.046 A 
ATOM     19  C   UNL     1      -4.399   3.695  25.368  0.00  0.00    +0.046 A 
ATOM     20  C   UNL     1      -5.742   3.459  25.663  0.00  0.00    +0.120 A 
BRANCH  20   6
ATOM      6  O   UNL     1      -6.587   4.505  25.875  0.00  0.00    -0.495 OA
ATOM     26  C   UNL     1      -6.263   5.739  25.237  0.00  0.00    +0.277 C 
ENDBRANCH  20   6
ENDBRANCH  10  14
BRANCH  11   2
ATOM      2  O   UNL     1      -4.691  -2.240  23.593  0.00  0.00    -0.388 OA
ATOM     29  H   UNL     1      -5.091  -2.132  24.473  0.00  0.00    +0.210 HD
ENDBRANCH  11   2
BRANCH  13   3
ATOM      3  O   UNL     1      -3.294  -3.450  25.641  0.00  0.00    -0.389 OA
ATOM     30  H   UNL     1      -2.762  -4.162  25.248  0.00  0.00    +0.210 HD
ENDBRANCH  13   3
BRANCH   9   7
ATOM      7  N   UNL     1      -1.840  -0.146  22.863  0.00  0.00    -0.184 NA
ATOM     28  H   UNL     1      -1.851  -0.080  21.839  0.00  0.00    +0.148 HD
BRANCH   7   1
ATOM      1  S   UNL     1      -0.375  -0.293  23.711  0.00  0.00    +0.059 S 
ATOM      4  O   UNL     1       0.724  -0.362  22.766  0.00  0.00    -0.153 OA
ATOM      5  O   UNL     1      -0.525  -1.313  24.731  0.00  0.00    -0.153 OA
BRANCH   1  17
ATOM     17  C   UNL     1      -0.280   1.263  24.546  0.00  0.00    +0.106 A 
ATOM     21  C   UNL     1       0.106   1.314  25.885  0.00  0.00    +0.047 A 
ATOM     22  C   UNL     1      -0.593   2.439  23.864  0.00  0.00    +0.028 A 
ATOM     23  C   UNL     1       0.179   2.540  26.543  0.00  0.00    +0.054 A 
ATOM     24  C   UNL     1      -0.518   3.666  24.522  0.00  0.00    +0.003 A 
ATOM     25  C   UNL     1      -0.133   3.718  25.862  0.00  0.00    +0.019 A 
BRANCH  23  27
ATOM      8  N   UNL     1       0.897   2.637  29.030  0.00  0.00    -0.191 NA
ATOM     27  C   UNL     1       0.575   2.593  27.915  0.00  0.00    +0.099 C 
ENDBRANCH  23  27
ENDBRANCH   1  17
ENDBRANCH   7   1
ENDBRANCH   9   7
TORSDOF 8
ENDMDL
MODEL 10
REMARK VINA RESULT:       1.1      3.103      6.678
REMARK  Name = 75536095
REMARK  9 active torsions:
REMARK  status: ('A' for Active; 'I' for Inactive)
REMARK    1  A    between atoms: S_1  and  N_7
REMARK    2  A    between atoms: S_1  and  C_17
REMARK    3  A    between atoms: O_2  and  C_11
REMARK    4  A    between atoms: O_3  and  C_13
REMARK    5  A    between atoms: O_6  and  C_20
REMARK    6  A    between atoms: O_6  and  C_26
REMARK    7  A    between atoms: N_7  and  C_9
REMARK    8  A    between atoms: C_10  and  C_14
REMARK    9  A    between atoms: C_23  and  C_27
REMARK                            x       y       z     vdW  Elec       q    Type
REMARK                         _______ _______ _______ _____ _____    ______ ____
ROOT
ATOM      9  C   UNL     1      -0.172   1.317  23.923  0.00  0.00    +0.115 C 
ATOM     10  C   UNL     1       0.431   0.040  23.275  0.00  0.00    +0.043 C 
ATOM     11  C   UNL     1      -1.167   0.821  24.981  0.00  0.00    +0.162 C 
ATOM     12  C   UNL     1      -0.148  -1.138  24.078  0.00  0.00    +0.043 C 
ATOM     13  C   UNL     1      -1.492  -0.606  24.549  0.00  0.00    +0.145 C 
ENDROOT
BRANCH  10  14
ATOM     14  C   UNL     1       1.942   0.034  23.219  0.00  0.00    -0.042 A 
ATOM     15  C   UNL     1       2.628   1.177  22.806  0.00  0.00    +0.007 A 
ATOM     16  C   UNL     1       2.650  -1.113  23.578  0.00  0.00    +0.007 A 
ATOM     18  C   UNL     1       4.023   1.172  22.755  0.00  0.00    +0.046 A 
ATOM     19  C   UNL     1       4.043  -1.118  23.525  0.00  0.00    +0.046 A 
ATOM     20  C   UNL     1       4.730   0.024  23.114  0.00  0.00    +0.120 A 
BRANCH  20   6
ATOM      6  O   UNL     1       6.090   0.020  23.063  0.00  0.00    -0.495 OA
ATOM     26  C   UNL     1       6.772  -0.780  24.028  0.00  0.00    +0.277 C 
ENDBRANCH  20   6
ENDBRANCH  10  14
BRANCH  11   2
ATOM      2  O   UNL     1      -0.506   0.826  26.246  0.00  0.00    -0.388 OA
ATOM     29  H   UNL     1      -1.095   1.270  26.881  0.00  0.00    +0.210 HD
ENDBRANCH  11   2
BRANCH  13   3
ATOM      3  O   UNL     1      -2.019  -1.389  25.601  0.00  0.00    -0.389 OA
ATOM     30  H   UNL     1      -2.607  -0.819  26.125  0.00  0.00    +0.210 HD
ENDBRANCH  13   3
BRANCH   9   7
ATOM      7  N   UNL     1      -0.901   2.095  22.887  0.00  0.00    -0.184 NA
ATOM     28  H   UNL     1      -0.430   2.913  22.483  0.00  0.00    +0.148 HD
BRANCH   7   1
ATOM      1  S   UNL     1      -2.566   1.847  22.657  0.00  0.00    +0.059 S 
ATOM      4  O   UNL     1      -2.860   0.430  22.754  0.00  0.00    -0.153 OA
ATOM      5  O   UNL     1      -2.995   2.603  21.496  0.00  0.00    -0.153 OA
BRANCH   1  17
ATOM     17  C   UNL     1      -3.253   2.646  24.076  0.00  0.00    +0.106 A 
ATOM     21  C   UNL     1      -4.389   2.120  24.692  0.00  0.00    +0.047 A 
ATOM     22  C   UNL     1      -2.660   3.803  24.579  0.00  0.00    +0.028 A 
ATOM     23  C   UNL     1      -4.932   2.751  25.810  0.00  0.00    +0.054 A 
ATOM     24  C   UNL     1      -3.201   4.434  25.699  0.00  0.00    +0.003 A 
ATOM     25  C   UNL     1      -4.337   3.909  26.315  0.00  0.00    +0.019 A 
BRANCH  23  27
ATOM      8  N   UNL     1      -7.040   1.774  26.954  0.00  0.00    -0.191 NA
ATOM     27  C   UNL     1      -6.095   2.212  26.441  0.00  0.00    +0.099 C 
ENDBRANCH  23  27
ENDBRANCH   1  17
ENDBRANCH   7   1
ENDBRANCH   9   7
TORSDOF 8
ENDMDL
