MODEL 1
REMARK VINA RESULT:       4.2      0.000      0.000
REMARK  Name = 7673825
REMARK  5 active torsions:
REMARK  status: ('A' for Active; 'I' for Inactive)
REMARK    1  A    between atoms: S_1  and  C_19
REMARK    2  A    between atoms: S_1  and  C_25
REMARK    3  A    between atoms: C_16  and  C_19
REMARK    4  A    between atoms: C_17  and  C_20
REMARK    5  A    between atoms: C_23  and  C_27
REMARK                            x       y       z     vdW  Elec       q    Type
REMARK                         _______ _______ _______ _____ _____    ______ ____
ROOT
ATOM      2  O   UNL     1      -1.879   3.509  27.536  0.00  0.00    -0.267 OA
ATOM      3  O   UNL     1      -4.825  -0.617  25.834  0.00  0.00    -0.275 OA
ATOM      4  N   UNL     1      -4.040   0.629  24.035  0.00  0.00    -0.300 N 
ATOM      5  N   UNL     1      -2.194   2.905  25.305  0.00  0.00    -0.311 N 
ATOM      7  C   UNL     1      -4.465   3.089  24.136  0.00  0.00    +0.027 C 
ATOM      8  C   UNL     1      -2.518   2.236  22.898  0.00  0.00    +0.054 C 
ATOM      9  C   UNL     1      -3.641   3.272  22.868  0.00  0.00    +0.018 C 
ATOM     10  C   UNL     1      -5.058   1.670  24.194  0.00  0.00    +0.113 C 
ATOM     11  C   UNL     1      -3.580   3.393  25.350  0.00  0.00    +0.130 C 
ATOM     12  C   UNL     1      -3.125   0.819  22.901  0.00  0.00    +0.117 C 
ATOM     13  C   UNL     1      -1.638   2.420  24.119  0.00  0.00    +0.027 A 
ATOM     14  C   UNL     1      -0.336   2.093  24.071  0.00  0.00    +0.022 A 
ATOM     15  C   UNL     1      -1.433   3.054  26.481  0.00  0.00    +0.259 A 
ATOM     16  C   UNL     1      -4.047  -0.477  24.885  0.00  0.00    +0.225 C 
ATOM     17  C   UNL     1       0.013   2.644  26.406  0.00  0.00    +0.047 A 
ATOM     18  C   UNL     1       0.496   2.203  25.235  0.00  0.00    +0.015 A 
ENDROOT
BRANCH  17  20
ATOM     20  C   UNL     1       0.888   2.713  27.589  0.00  0.00    -0.011 A 
ATOM     21  C   UNL     1       0.358   2.517  28.864  0.00  0.00    +0.027 A 
ATOM     22  C   UNL     1       2.250   2.974  27.434  0.00  0.00    +0.009 A 
ATOM     23  C   UNL     1       1.188   2.582  29.984  0.00  0.00    +0.052 A 
ATOM     24  C   UNL     1       3.081   3.039  28.553  0.00  0.00    +0.002 A 
ATOM     26  C   UNL     1       2.549   2.844  29.828  0.00  0.00    +0.019 A 
BRANCH  23  27
ATOM      6  N   UNL     1       0.201   2.220  32.352  0.00  0.00    -0.191 NA
ATOM     27  C   UNL     1       0.643   2.383  31.290  0.00  0.00    +0.099 C 
ENDBRANCH  23  27
ENDBRANCH  17  20
BRANCH  16  19
ATOM     19  C   UNL     1      -3.025  -1.549  24.607  0.00  0.00    +0.164 C 
BRANCH  19   1
ATOM      1  S   UNL     1      -1.572  -1.191  25.606  0.00  0.00    -0.155 S 
ATOM     25  C   UNL     1      -0.308  -1.317  24.317  0.00  0.00    +0.085 C 
ENDBRANCH  19   1
ENDBRANCH  16  19
TORSDOF 4
ENDMDL
MODEL 2
REMARK VINA RESULT:       4.6      3.362      4.484
REMARK  Name = 7673825
REMARK  5 active torsions:
REMARK  status: ('A' for Active; 'I' for Inactive)
REMARK    1  A    between atoms: S_1  and  C_19
REMARK    2  A    between atoms: S_1  and  C_25
REMARK    3  A    between atoms: C_16  and  C_19
REMARK    4  A    between atoms: C_17  and  C_20
REMARK    5  A    between atoms: C_23  and  C_27
REMARK                            x       y       z     vdW  Elec       q    Type
REMARK                         _______ _______ _______ _____ _____    ______ ____
ROOT
ATOM      2  O   UNL     1       0.633   2.064  25.294  0.00  0.00    -0.267 OA
ATOM      3  O   UNL     1      -3.149  -1.295  27.030  0.00  0.00    -0.275 OA
ATOM      4  N   UNL     1      -3.923  -0.046  25.230  0.00  0.00    -0.300 N 
ATOM      5  N   UNL     1      -1.446   1.738  24.290  0.00  0.00    -0.311 N 
ATOM      7  C   UNL     1      -3.642   2.430  25.411  0.00  0.00    +0.027 C 
ATOM      8  C   UNL     1      -3.684   1.366  23.195  0.00  0.00    +0.054 C 
ATOM      9  C   UNL     1      -4.159   2.582  23.986  0.00  0.00    +0.018 C 
ATOM     10  C   UNL     1      -4.186   1.140  26.049  0.00  0.00    +0.113 C 
ATOM     11  C   UNL     1      -2.109   2.457  25.387  0.00  0.00    +0.130 C 
ATOM     12  C   UNL     1      -4.281   0.085  23.810  0.00  0.00    +0.117 C 
ATOM     13  C   UNL     1      -2.170   1.275  23.188  0.00  0.00    +0.027 A 
ATOM     14  C   UNL     1      -1.529   0.728  22.143  0.00  0.00    +0.022 A 
ATOM     15  C   UNL     1      -0.042   1.638  24.356  0.00  0.00    +0.259 A 
ATOM     16  C   UNL     1      -3.444  -1.207  25.834  0.00  0.00    +0.225 C 
ATOM     17  C   UNL     1       0.644   0.987  23.187  0.00  0.00    +0.047 A 
ATOM     18  C   UNL     1      -0.102   0.579  22.148  0.00  0.00    +0.015 A 
ENDROOT
BRANCH  17  20
ATOM     20  C   UNL     1       2.104   0.788  23.172  0.00  0.00    -0.011 A 
ATOM     21  C   UNL     1       2.644  -0.454  23.505  0.00  0.00    +0.027 A 
ATOM     22  C   UNL     1       2.948   1.843  22.825  0.00  0.00    +0.009 A 
ATOM     23  C   UNL     1       4.026  -0.642  23.491  0.00  0.00    +0.052 A 
ATOM     24  C   UNL     1       4.330   1.657  22.810  0.00  0.00    +0.002 A 
ATOM     26  C   UNL     1       4.870   0.414  23.144  0.00  0.00    +0.019 A 
BRANCH  23  27
ATOM      6  N   UNL     1       5.029  -2.949  24.111  0.00  0.00    -0.191 NA
ATOM     27  C   UNL     1       4.579  -1.914  23.834  0.00  0.00    +0.099 C 
ENDBRANCH  23  27
ENDBRANCH  17  20
BRANCH  16  19
ATOM     19  C   UNL     1      -3.279  -2.413  24.944  0.00  0.00    +0.164 C 
BRANCH  19   1
ATOM      1  S   UNL     1      -1.628  -2.347  24.235  0.00  0.00    -0.155 S 
ATOM     25  C   UNL     1      -0.773  -1.511  25.593  0.00  0.00    +0.085 C 
ENDBRANCH  19   1
ENDBRANCH  16  19
TORSDOF 4
ENDMDL
MODEL 3
REMARK VINA RESULT:       5.8      3.232      4.538
REMARK  Name = 7673825
REMARK  5 active torsions:
REMARK  status: ('A' for Active; 'I' for Inactive)
REMARK    1  A    between atoms: S_1  and  C_19
REMARK    2  A    between atoms: S_1  and  C_25
REMARK    3  A    between atoms: C_16  and  C_19
REMARK    4  A    between atoms: C_17  and  C_20
REMARK    5  A    between atoms: C_23  and  C_27
REMARK                            x       y       z     vdW  Elec       q    Type
REMARK                         _______ _______ _______ _____ _____    ______ ____
ROOT
ATOM      2  O   UNL     1       0.111   1.794  25.804  0.00  0.00    -0.267 OA
ATOM      3  O   UNL     1      -4.961   0.341  26.677  0.00  0.00    -0.275 OA
ATOM      4  N   UNL     1      -4.856   2.066  25.123  0.00  0.00    -0.300 N 
ATOM      5  N   UNL     1      -1.745   2.623  24.663  0.00  0.00    -0.311 N 
ATOM      7  C   UNL     1      -3.527   4.071  25.797  0.00  0.00    +0.027 C 
ATOM      8  C   UNL     1      -3.751   3.500  23.416  0.00  0.00    +0.054 C 
ATOM      9  C   UNL     1      -3.733   4.661  24.408  0.00  0.00    +0.018 C 
ATOM     10  C   UNL     1      -4.667   3.098  26.146  0.00  0.00    +0.113 C 
ATOM     11  C   UNL     1      -2.154   3.390  25.848  0.00  0.00    +0.130 C 
ATOM     12  C   UNL     1      -4.931   2.563  23.741  0.00  0.00    +0.117 C 
ATOM     13  C   UNL     1      -2.450   2.722  23.460  0.00  0.00    +0.027 A 
ATOM     14  C   UNL     1      -1.991   2.108  22.358  0.00  0.00    +0.022 A 
ATOM     15  C   UNL     1      -0.555   1.877  24.771  0.00  0.00    +0.259 A 
ATOM     16  C   UNL     1      -5.028   0.737  25.510  0.00  0.00    +0.225 C 
ATOM     17  C   UNL     1      -0.086   1.170  23.529  0.00  0.00    +0.047 A 
ATOM     18  C   UNL     1      -0.794   1.317  22.399  0.00  0.00    +0.015 A 
ENDROOT
BRANCH  17  20
ATOM     20  C   UNL     1       1.120   0.324  23.542  0.00  0.00    -0.011 A 
ATOM     21  C   UNL     1       2.384   0.906  23.442  0.00  0.00    +0.027 A 
ATOM     22  C   UNL     1       1.000  -1.061  23.654  0.00  0.00    +0.009 A 
ATOM     23  C   UNL     1       3.526   0.105  23.454  0.00  0.00    +0.052 A 
ATOM     24  C   UNL     1       2.141  -1.864  23.667  0.00  0.00    +0.002 A 
ATOM     26  C   UNL     1       3.404  -1.280  23.566  0.00  0.00    +0.019 A 
BRANCH  23  27
ATOM      6  N   UNL     1       5.873   1.186  23.267  0.00  0.00    -0.191 NA
ATOM     27  C   UNL     1       4.820   0.702  23.350  0.00  0.00    +0.099 C 
ENDBRANCH  23  27
ENDBRANCH  17  20
BRANCH  16  19
ATOM     19  C   UNL     1      -5.304  -0.256  24.410  0.00  0.00    +0.164 C 
BRANCH  19   1
ATOM      1  S   UNL     1      -3.723  -0.897  23.842  0.00  0.00    -0.155 S 
ATOM     25  C   UNL     1      -3.633  -2.377  24.880  0.00  0.00    +0.085 C 
ENDBRANCH  19   1
ENDBRANCH  16  19
TORSDOF 4
ENDMDL
MODEL 4
REMARK VINA RESULT:       6.0      3.272      5.486
REMARK  Name = 7673825
REMARK  5 active torsions:
REMARK  status: ('A' for Active; 'I' for Inactive)
REMARK    1  A    between atoms: S_1  and  C_19
REMARK    2  A    between atoms: S_1  and  C_25
REMARK    3  A    between atoms: C_16  and  C_19
REMARK    4  A    between atoms: C_17  and  C_20
REMARK    5  A    between atoms: C_23  and  C_27
REMARK                            x       y       z     vdW  Elec       q    Type
REMARK                         _______ _______ _______ _____ _____    ______ ____
ROOT
ATOM      2  O   UNL     1      -1.555   1.920  21.826  0.00  0.00    -0.267 OA
ATOM      3  O   UNL     1      -2.710   5.467  25.658  0.00  0.00    -0.275 OA
ATOM      4  N   UNL     1      -3.991   3.544  25.906  0.00  0.00    -0.300 N 
ATOM      5  N   UNL     1      -2.998   1.547  23.619  0.00  0.00    -0.311 N 
ATOM      7  C   UNL     1      -5.228   2.780  23.874  0.00  0.00    +0.027 C 
ATOM      8  C   UNL     1      -4.538   1.140  25.571  0.00  0.00    +0.054 C 
ATOM      9  C   UNL     1      -5.672   1.533  24.627  0.00  0.00    +0.018 C 
ATOM     10  C   UNL     1      -4.937   3.929  24.856  0.00  0.00    +0.113 C 
ATOM     11  C   UNL     1      -4.005   2.432  23.017  0.00  0.00    +0.130 C 
ATOM     12  C   UNL     1      -4.294   2.275  26.584  0.00  0.00    +0.117 C 
ATOM     13  C   UNL     1      -3.262   0.853  24.803  0.00  0.00    +0.027 A 
ATOM     14  C   UNL     1      -2.377  -0.041  25.271  0.00  0.00    +0.022 A 
ATOM     15  C   UNL     1      -1.809   1.353  22.889  0.00  0.00    +0.259 A 
ATOM     16  C   UNL     1      -2.947   4.405  26.242  0.00  0.00    +0.225 C 
ATOM     17  C   UNL     1      -0.820   0.372  23.459  0.00  0.00    +0.047 A 
ATOM     18  C   UNL     1      -1.136  -0.278  24.589  0.00  0.00    +0.015 A 
ENDROOT
BRANCH  17  20
ATOM     20  C   UNL     1       0.477   0.128  22.803  0.00  0.00    -0.011 A 
ATOM     21  C   UNL     1       1.662   0.508  23.432  0.00  0.00    +0.027 A 
ATOM     22  C   UNL     1       0.520  -0.486  21.551  0.00  0.00    +0.009 A 
ATOM     23  C   UNL     1       2.889   0.277  22.810  0.00  0.00    +0.052 A 
ATOM     24  C   UNL     1       1.746  -0.719  20.929  0.00  0.00    +0.002 A 
ATOM     26  C   UNL     1       2.931  -0.337  21.558  0.00  0.00    +0.019 A 
BRANCH  23  27
ATOM      6  N   UNL     1       5.090   0.986  23.978  0.00  0.00    -0.191 NA
ATOM     27  C   UNL     1       4.103   0.669  23.455  0.00  0.00    +0.099 C 
ENDBRANCH  23  27
ENDBRANCH  17  20
BRANCH  16  19
ATOM     19  C   UNL     1      -2.066   3.983  27.389  0.00  0.00    +0.164 C 
BRANCH  19   1
ATOM      1  S   UNL     1      -0.754   2.950  26.720  0.00  0.00    -0.155 S 
ATOM     25  C   UNL     1      -0.544   3.767  25.119  0.00  0.00    +0.085 C 
ENDBRANCH  19   1
ENDBRANCH  16  19
TORSDOF 4
ENDMDL
MODEL 5
REMARK VINA RESULT:       7.2      3.740      5.350
REMARK  Name = 7673825
REMARK  5 active torsions:
REMARK  status: ('A' for Active; 'I' for Inactive)
REMARK    1  A    between atoms: S_1  and  C_19
REMARK    2  A    between atoms: S_1  and  C_25
REMARK    3  A    between atoms: C_16  and  C_19
REMARK    4  A    between atoms: C_17  and  C_20
REMARK    5  A    between atoms: C_23  and  C_27
REMARK                            x       y       z     vdW  Elec       q    Type
REMARK                         _______ _______ _______ _____ _____    ______ ____
ROOT
ATOM      2  O   UNL     1      -0.677   0.469  22.022  0.00  0.00    -0.267 OA
ATOM      3  O   UNL     1      -3.986   4.136  24.070  0.00  0.00    -0.275 OA
ATOM      4  N   UNL     1      -4.363   2.057  25.039  0.00  0.00    -0.300 N 
ATOM      5  N   UNL     1      -2.170   0.109  23.777  0.00  0.00    -0.311 N 
ATOM      7  C   UNL     1      -4.710   0.156  23.457  0.00  0.00    +0.027 C 
ATOM      8  C   UNL     1      -3.767  -0.270  25.688  0.00  0.00    +0.054 C 
ATOM      9  C   UNL     1      -4.736  -0.807  24.637  0.00  0.00    +0.018 C 
ATOM     10  C   UNL     1      -5.140   1.565  23.900  0.00  0.00    +0.113 C 
ATOM     11  C   UNL     1      -3.304   0.149  22.844  0.00  0.00    +0.130 C 
ATOM     12  C   UNL     1      -4.240   1.118  26.164  0.00  0.00    +0.117 C 
ATOM     13  C   UNL     1      -2.359  -0.170  25.133  0.00  0.00    +0.027 A 
ATOM     14  C   UNL     1      -1.300  -0.322  25.944  0.00  0.00    +0.022 A 
ATOM     15  C   UNL     1      -0.885   0.256  23.218  0.00  0.00    +0.259 A 
ATOM     16  C   UNL     1      -3.873   3.363  25.026  0.00  0.00    +0.225 C 
ATOM     17  C   UNL     1       0.281   0.118  24.159  0.00  0.00    +0.047 A 
ATOM     18  C   UNL     1       0.038  -0.169  25.446  0.00  0.00    +0.015 A 
ENDROOT
BRANCH  17  20
ATOM     20  C   UNL     1       1.666   0.300  23.690  0.00  0.00    -0.011 A 
ATOM     21  C   UNL     1       2.610  -0.707  23.891  0.00  0.00    +0.027 A 
ATOM     22  C   UNL     1       2.034   1.479  23.042  0.00  0.00    +0.009 A 
ATOM     23  C   UNL     1       3.921  -0.534  23.447  0.00  0.00    +0.052 A 
ATOM     24  C   UNL     1       3.344   1.652  22.597  0.00  0.00    +0.002 A 
ATOM     26  C   UNL     1       4.288   0.646  22.800  0.00  0.00    +0.019 A 
BRANCH  23  27
ATOM      6  N   UNL     1       5.676  -2.402  23.826  0.00  0.00    -0.191 NA
ATOM     27  C   UNL     1       4.889  -1.565  23.656  0.00  0.00    +0.099 C 
ENDBRANCH  23  27
ENDBRANCH  17  20
BRANCH  16  19
ATOM     19  C   UNL     1      -3.157   3.828  26.269  0.00  0.00    +0.164 C 
BRANCH  19   1
ATOM      1  S   UNL     1      -1.403   3.498  26.045  0.00  0.00    -0.155 S 
ATOM     25  C   UNL     1      -0.979   4.927  25.018  0.00  0.00    +0.085 C 
ENDBRANCH  19   1
ENDBRANCH  16  19
TORSDOF 4
ENDMDL
MODEL 6
REMARK VINA RESULT:       8.2      3.240      5.053
REMARK  Name = 7673825
REMARK  5 active torsions:
REMARK  status: ('A' for Active; 'I' for Inactive)
REMARK    1  A    between atoms: S_1  and  C_19
REMARK    2  A    between atoms: S_1  and  C_25
REMARK    3  A    between atoms: C_16  and  C_19
REMARK    4  A    between atoms: C_17  and  C_20
REMARK    5  A    between atoms: C_23  and  C_27
REMARK                            x       y       z     vdW  Elec       q    Type
REMARK                         _______ _______ _______ _____ _____    ______ ____
ROOT
ATOM      2  O   UNL     1      -0.233   0.793  25.737  0.00  0.00    -0.267 OA
ATOM      3  O   UNL     1      -5.271   1.732  24.208  0.00  0.00    -0.275 OA
ATOM      4  N   UNL     1      -4.217   3.710  24.822  0.00  0.00    -0.300 N 
ATOM      5  N   UNL     1      -1.208   2.901  25.523  0.00  0.00    -0.311 N 
ATOM      7  C   UNL     1      -3.095   3.708  27.054  0.00  0.00    +0.027 C 
ATOM      8  C   UNL     1      -2.257   5.177  25.268  0.00  0.00    +0.054 C 
ATOM      9  C   UNL     1      -2.545   5.099  26.766  0.00  0.00    +0.018 C 
ATOM     10  C   UNL     1      -4.387   3.462  26.256  0.00  0.00    +0.113 C 
ATOM     11  C   UNL     1      -2.013   2.671  26.730  0.00  0.00    +0.130 C 
ATOM     12  C   UNL     1      -3.568   4.984  24.481  0.00  0.00    +0.117 C 
ATOM     13  C   UNL     1      -1.248   4.124  24.850  0.00  0.00    +0.027 A 
ATOM     14  C   UNL     1      -0.417   4.355  23.821  0.00  0.00    +0.022 A 
ATOM     15  C   UNL     1      -0.322   1.871  25.148  0.00  0.00    +0.259 A 
ATOM     16  C   UNL     1      -4.730   2.798  23.900  0.00  0.00    +0.225 C 
ATOM     17  C   UNL     1       0.571   2.145  23.968  0.00  0.00    +0.047 A 
ATOM     18  C   UNL     1       0.501   3.346  23.374  0.00  0.00    +0.015 A 
ENDROOT
BRANCH  17  20
ATOM     20  C   UNL     1       1.502   1.122  23.462  0.00  0.00    -0.011 A 
ATOM     21  C   UNL     1       2.870   1.236  23.713  0.00  0.00    +0.027 A 
ATOM     22  C   UNL     1       1.017   0.037  22.731  0.00  0.00    +0.009 A 
ATOM     23  C   UNL     1       3.751   0.266  23.233  0.00  0.00    +0.052 A 
ATOM     24  C   UNL     1       1.897  -0.932  22.252  0.00  0.00    +0.002 A 
ATOM     26  C   UNL     1       3.264  -0.818  22.502  0.00  0.00    +0.019 A 
BRANCH  23  27
ATOM      6  N   UNL     1       6.291   0.481  23.697  0.00  0.00    -0.191 NA
ATOM     27  C   UNL     1       5.152   0.384  23.489  0.00  0.00    +0.099 C 
ENDBRANCH  23  27
ENDBRANCH  17  20
BRANCH  16  19
ATOM     19  C   UNL     1      -4.594   3.161  22.443  0.00  0.00    +0.164 C 
BRANCH  19   1
ATOM      1  S   UNL     1      -3.025   2.505  21.861  0.00  0.00    -0.155 S 
ATOM     25  C   UNL     1      -2.868   1.104  22.997  0.00  0.00    +0.085 C 
ENDBRANCH  19   1
ENDBRANCH  16  19
TORSDOF 4
ENDMDL
