MODEL 1
REMARK VINA RESULT:      -1.0      0.000      0.000
REMARK  Name = 38027041
REMARK  12 active torsions:
REMARK  status: ('A' for Active; 'I' for Inactive)
REMARK    1  A    between atoms: N_4  and  C_15
REMARK    2  A    between atoms: N_5  and  C_22
REMARK    3  A    between atoms: N_6  and  C_23
REMARK    4  A    between atoms: N_7  and  C_28
REMARK    5  A    between atoms: C_8  and  C_12
REMARK    6  A    between atoms: C_9  and  C_15
REMARK    7  A    between atoms: C_11  and  C_16
REMARK    8  A    between atoms: C_12  and  C_17
REMARK    9  A    between atoms: C_12  and  C_18
REMARK   10  A    between atoms: C_13  and  C_19
REMARK   11  A    between atoms: C_16  and  C_20
REMARK   12  A    between atoms: C_22  and  C_23
REMARK                            x       y       z     vdW  Elec       q    Type
REMARK                         _______ _______ _______ _____ _____    ______ ____
ROOT
ATOM      8  C   UNL     1      -4.243  -0.912  24.575  0.00  0.00    +0.000 C 
ATOM      9  C   UNL     1      -3.004  -0.533  23.726  0.00  0.00    +0.032 C 
ATOM     10  C   UNL     1      -5.470  -0.105  24.123  0.00  0.00    +0.012 C 
ATOM     11  C   UNL     1      -5.245   1.414  24.240  0.00  0.00    +0.023 C 
ATOM     13  C   UNL     1      -3.909   1.831  23.658  0.00  0.00    -0.073 C 
ATOM     14  C   UNL     1      -2.924   0.945  23.423  0.00  0.00    -0.022 C 
ATOM     19  C   UNL     1      -3.746   3.285  23.311  0.00  0.00    +0.039 C 
ENDROOT
BRANCH   8  12
ATOM     12  C   UNL     1      -4.549  -2.410  24.497  0.00  0.00    -0.013 C 
ATOM     17  C   UNL     1      -4.635  -2.861  23.042  0.00  0.00    +0.007 C 
ATOM     18  C   UNL     1      -3.491  -3.210  25.249  0.00  0.00    +0.007 C 
ENDBRANCH   8  12
BRANCH   9  15
ATOM     15  C   UNL     1      -1.707  -0.985  24.406  0.00  0.00    +0.113 C 
BRANCH  15   4
ATOM      2  O   UNL     1       1.043  -1.555  24.972  0.00  0.00    -0.253 OA
ATOM      4  N   UNL     1      -0.567  -0.448  23.732  0.00  0.00    -0.299 N 
ATOM      7  N   UNL     1       1.661  -0.099  23.237  0.00  0.00    -0.269 N 
ATOM     21  C   UNL     1       0.761  -0.774  24.066  0.00  0.00    +0.304 C 
ATOM     34  H   UNL     1      -0.718   0.150  22.926  0.00  0.00    +0.150 HD
ATOM     36  H   UNL     1       1.261   0.515  22.534  0.00  0.00    +0.156 HD
BRANCH   7  28
ATOM     28  C   UNL     1       3.074  -0.162  23.258  0.00  0.00    +0.035 A 
ATOM     29  C   UNL     1       3.828   0.930  22.826  0.00  0.00    +0.023 A 
ATOM     30  C   UNL     1       3.715  -1.316  23.710  0.00  0.00    +0.023 A 
ATOM     31  C   UNL     1       5.221   0.868  22.846  0.00  0.00    +0.002 A 
ATOM     32  C   UNL     1       5.108  -1.378  23.731  0.00  0.00    +0.002 A 
ATOM     33  C   UNL     1       5.861  -0.286  23.299  0.00  0.00    +0.000 A 
ENDBRANCH   7  28
ENDBRANCH  15   4
ENDBRANCH   9  15
BRANCH  11  16
ATOM     16  C   UNL     1      -5.381   1.883  25.692  0.00  0.00    +0.103 C 
BRANCH  16  20
ATOM      1  O   UNL     1      -5.998   4.220  25.604  0.00  0.00    -0.276 OA
ATOM      5  N   UNL     1      -3.846   3.629  26.253  0.00  0.00    -0.314 N 
ATOM     20  C   UNL     1      -5.143   3.369  25.835  0.00  0.00    +0.214 C 
ATOM     35  H   UNL     1      -3.215   2.851  26.426  0.00  0.00    +0.149 HD
BRANCH   5  22
ATOM     22  C   UNL     1      -3.339   4.964  26.470  0.00  0.00    +0.119 C 
BRANCH  22  23
ATOM     23  C   UNL     1      -2.074   5.211  25.660  0.00  0.00    +0.103 C 
BRANCH  23   6
ATOM      3  O   UNL     1       0.778   2.188  25.069  0.00  0.00    -0.377 OA
ATOM      6  N   UNL     1      -1.455   3.941  25.287  0.00  0.00    -0.297 NA
ATOM     24  C   UNL     1      -0.885   3.274  26.465  0.00  0.00    +0.112 C 
ATOM     25  C   UNL     1      -0.414   4.145  24.271  0.00  0.00    +0.112 C 
ATOM     26  C   UNL     1      -0.234   1.957  26.050  0.00  0.00    +0.175 C 
ATOM     27  C   UNL     1       0.225   2.808  23.908  0.00  0.00    +0.175 C 
ENDBRANCH  23   6
ENDBRANCH  22  23
ENDBRANCH   5  22
ENDBRANCH  16  20
ENDBRANCH  11  16
TORSDOF 9
ENDMDL
MODEL 2
REMARK VINA RESULT:      -0.5      1.745      6.071
REMARK  Name = 38027041
REMARK  12 active torsions:
REMARK  status: ('A' for Active; 'I' for Inactive)
REMARK    1  A    between atoms: N_4  and  C_15
REMARK    2  A    between atoms: N_5  and  C_22
REMARK    3  A    between atoms: N_6  and  C_23
REMARK    4  A    between atoms: N_7  and  C_28
REMARK    5  A    between atoms: C_8  and  C_12
REMARK    6  A    between atoms: C_9  and  C_15
REMARK    7  A    between atoms: C_11  and  C_16
REMARK    8  A    between atoms: C_12  and  C_17
REMARK    9  A    between atoms: C_12  and  C_18
REMARK   10  A    between atoms: C_13  and  C_19
REMARK   11  A    between atoms: C_16  and  C_20
REMARK   12  A    between atoms: C_22  and  C_23
REMARK                            x       y       z     vdW  Elec       q    Type
REMARK                         _______ _______ _______ _____ _____    ______ ____
ROOT
ATOM      8  C   UNL     1      -4.118   3.523  25.668  0.00  0.00    +0.000 C 
ATOM      9  C   UNL     1      -3.923   4.371  24.386  0.00  0.00    +0.032 C 
ATOM     10  C   UNL     1      -3.189   4.019  26.786  0.00  0.00    +0.012 C 
ATOM     11  C   UNL     1      -1.704   3.957  26.382  0.00  0.00    +0.023 C 
ATOM     13  C   UNL     1      -1.472   4.539  25.002  0.00  0.00    -0.073 C 
ATOM     14  C   UNL     1      -2.478   4.728  24.128  0.00  0.00    -0.022 C 
ATOM     19  C   UNL     1      -0.063   4.939  24.665  0.00  0.00    +0.039 C 
ENDROOT
BRANCH   8  12
ATOM     12  C   UNL     1      -5.571   3.548  26.150  0.00  0.00    -0.013 C 
ATOM     17  C   UNL     1      -6.340   4.674  25.465  0.00  0.00    +0.007 C 
ATOM     18  C   UNL     1      -6.241   2.203  25.893  0.00  0.00    +0.007 C 
ENDBRANCH   8  12
BRANCH   9  15
ATOM     15  C   UNL     1      -4.499   3.658  23.157  0.00  0.00    +0.113 C 
BRANCH  15   4
ATOM      2  O   UNL     1      -2.481   1.663  23.548  0.00  0.00    -0.253 OA
ATOM      4  N   UNL     1      -4.710   2.271  23.429  0.00  0.00    -0.299 N 
ATOM      7  N   UNL     1      -4.174   0.067  23.860  0.00  0.00    -0.269 N 
ATOM     21  C   UNL     1      -3.667   1.345  23.610  0.00  0.00    +0.304 C 
ATOM     34  H   UNL     1      -5.662   1.943  23.565  0.00  0.00    +0.150 HD
ATOM     36  H   UNL     1      -5.186  -0.027  23.876  0.00  0.00    +0.156 HD
BRANCH   7  28
ATOM     28  C   UNL     1      -3.449  -1.125  24.093  0.00  0.00    +0.035 A 
ATOM     29  C   UNL     1      -4.083  -2.362  23.978  0.00  0.00    +0.023 A 
ATOM     30  C   UNL     1      -2.098  -1.063  24.438  0.00  0.00    +0.023 A 
ATOM     31  C   UNL     1      -3.368  -3.537  24.208  0.00  0.00    +0.002 A 
ATOM     32  C   UNL     1      -1.383  -2.239  24.668  0.00  0.00    +0.002 A 
ATOM     33  C   UNL     1      -2.018  -3.475  24.553  0.00  0.00    +0.000 A 
ENDBRANCH   7  28
ENDBRANCH  15   4
ENDBRANCH   9  15
BRANCH  11  16
ATOM     16  C   UNL     1      -1.167   2.526  26.472  0.00  0.00    +0.103 C 
BRANCH  16  20
ATOM      1  O   UNL     1       1.243   2.737  26.425  0.00  0.00    -0.276 OA
ATOM      5  N   UNL     1       0.137   1.846  24.586  0.00  0.00    -0.314 N 
ATOM     20  C   UNL     1       0.209   2.395  25.858  0.00  0.00    +0.214 C 
ATOM     35  H   UNL     1      -0.770   1.587  24.207  0.00  0.00    +0.149 HD
BRANCH   5  22
ATOM     22  C   UNL     1       1.300   1.608  23.762  0.00  0.00    +0.119 C 
BRANCH  22  23
ATOM     23  C   UNL     1       1.307   0.186  23.218  0.00  0.00    +0.103 C 
BRANCH  23   6
ATOM      3  O   UNL     1       5.406  -0.562  23.719  0.00  0.00    -0.377 OA
ATOM      6  N   UNL     1       2.678  -0.253  22.968  0.00  0.00    -0.297 NA
ATOM     24  C   UNL     1       3.093  -1.254  23.961  0.00  0.00    +0.112 C 
ATOM     25  C   UNL     1       3.604   0.887  22.985  0.00  0.00    +0.112 C 
ATOM     26  C   UNL     1       4.530  -1.689  23.688  0.00  0.00    +0.175 C 
ATOM     27  C   UNL     1       5.028   0.402  22.735  0.00  0.00    +0.175 C 
ENDBRANCH  23   6
ENDBRANCH  22  23
ENDBRANCH   5  22
ENDBRANCH  16  20
ENDBRANCH  11  16
TORSDOF 9
ENDMDL
MODEL 3
REMARK VINA RESULT:      -0.2      1.821      4.375
REMARK  Name = 38027041
REMARK  12 active torsions:
REMARK  status: ('A' for Active; 'I' for Inactive)
REMARK    1  A    between atoms: N_4  and  C_15
REMARK    2  A    between atoms: N_5  and  C_22
REMARK    3  A    between atoms: N_6  and  C_23
REMARK    4  A    between atoms: N_7  and  C_28
REMARK    5  A    between atoms: C_8  and  C_12
REMARK    6  A    between atoms: C_9  and  C_15
REMARK    7  A    between atoms: C_11  and  C_16
REMARK    8  A    between atoms: C_12  and  C_17
REMARK    9  A    between atoms: C_12  and  C_18
REMARK   10  A    between atoms: C_13  and  C_19
REMARK   11  A    between atoms: C_16  and  C_20
REMARK   12  A    between atoms: C_22  and  C_23
REMARK                            x       y       z     vdW  Elec       q    Type
REMARK                         _______ _______ _______ _____ _____    ______ ____
ROOT
ATOM      8  C   UNL     1      -3.362   2.355  24.595  0.00  0.00    +0.000 C 
ATOM      9  C   UNL     1      -2.554   2.313  23.273  0.00  0.00    +0.032 C 
ATOM     10  C   UNL     1      -3.418   3.788  25.144  0.00  0.00    +0.012 C 
ATOM     11  C   UNL     1      -2.015   4.366  25.411  0.00  0.00    +0.023 C 
ATOM     13  C   UNL     1      -1.076   4.124  24.247  0.00  0.00    -0.073 C 
ATOM     14  C   UNL     1      -1.340   3.212  23.294  0.00  0.00    -0.022 C 
ATOM     19  C   UNL     1       0.153   4.987  24.179  0.00  0.00    +0.039 C 
ENDROOT
BRANCH   8  12
ATOM     12  C   UNL     1      -4.782   1.813  24.410  0.00  0.00    -0.013 C 
ATOM     17  C   UNL     1      -4.905   0.420  25.019  0.00  0.00    +0.007 C 
ATOM     18  C   UNL     1      -5.799   2.765  25.030  0.00  0.00    +0.007 C 
ENDBRANCH   8  12
BRANCH   9  15
ATOM     15  C   UNL     1      -2.124   0.882  22.932  0.00  0.00    +0.113 C 
BRANCH  15   4
ATOM      2  O   UNL     1       0.209   0.023  24.354  0.00  0.00    -0.253 OA
ATOM      4  N   UNL     1      -0.783   0.860  22.439  0.00  0.00    -0.299 N 
ATOM      7  N   UNL     1       1.500   0.513  22.456  0.00  0.00    -0.269 N 
ATOM     21  C   UNL     1       0.319   0.423  23.198  0.00  0.00    +0.304 C 
ATOM     34  H   UNL     1      -0.619   1.109  21.468  0.00  0.00    +0.150 HD
ATOM     36  H   UNL     1       1.417   0.869  21.508  0.00  0.00    +0.156 HD
BRANCH   7  28
ATOM     28  C   UNL     1       2.810   0.171  22.865  0.00  0.00    +0.035 A 
ATOM     29  C   UNL     1       3.078  -1.111  23.345  0.00  0.00    +0.023 A 
ATOM     30  C   UNL     1       3.834   1.115  22.789  0.00  0.00    +0.023 A 
ATOM     31  C   UNL     1       4.370  -1.449  23.749  0.00  0.00    +0.002 A 
ATOM     32  C   UNL     1       5.126   0.777  23.193  0.00  0.00    +0.002 A 
ATOM     33  C   UNL     1       5.394  -0.505  23.672  0.00  0.00    +0.000 A 
ENDBRANCH   7  28
ENDBRANCH  15   4
ENDBRANCH   9  15
BRANCH  11  16
ATOM     16  C   UNL     1      -1.429   3.812  26.714  0.00  0.00    +0.103 C 
BRANCH  16  20
ATOM      1  O   UNL     1       0.632   2.620  26.282  0.00  0.00    -0.276 OA
ATOM      5  N   UNL     1      -1.352   1.431  26.511  0.00  0.00    -0.314 N 
ATOM     20  C   UNL     1      -0.580   2.583  26.478  0.00  0.00    +0.214 C 
ATOM     35  H   UNL     1      -2.350   1.506  26.689  0.00  0.00    +0.149 HD
BRANCH   5  22
ATOM     22  C   UNL     1      -0.805   0.108  26.313  0.00  0.00    +0.119 C 
BRANCH  22  23
ATOM     23  C   UNL     1      -1.859  -0.964  26.552  0.00  0.00    +0.103 C 
BRANCH  23   6
ATOM      3  O   UNL     1      -3.020  -3.766  23.651  0.00  0.00    -0.377 OA
ATOM      6  N   UNL     1      -2.276  -1.555  25.283  0.00  0.00    -0.297 NA
ATOM     24  C   UNL     1      -3.590  -2.200  25.415  0.00  0.00    +0.112 C 
ATOM     25  C   UNL     1      -1.283  -2.528  24.807  0.00  0.00    +0.112 C 
ATOM     26  C   UNL     1      -4.000  -2.820  24.082  0.00  0.00    +0.175 C 
ATOM     27  C   UNL     1      -1.747  -3.140  23.489  0.00  0.00    +0.175 C 
ENDBRANCH  23   6
ENDBRANCH  22  23
ENDBRANCH   5  22
ENDBRANCH  16  20
ENDBRANCH  11  16
TORSDOF 9
ENDMDL
MODEL 4
REMARK VINA RESULT:       0.6      1.647      4.040
REMARK  Name = 38027041
REMARK  12 active torsions:
REMARK  status: ('A' for Active; 'I' for Inactive)
REMARK    1  A    between atoms: N_4  and  C_15
REMARK    2  A    between atoms: N_5  and  C_22
REMARK    3  A    between atoms: N_6  and  C_23
REMARK    4  A    between atoms: N_7  and  C_28
REMARK    5  A    between atoms: C_8  and  C_12
REMARK    6  A    between atoms: C_9  and  C_15
REMARK    7  A    between atoms: C_11  and  C_16
REMARK    8  A    between atoms: C_12  and  C_17
REMARK    9  A    between atoms: C_12  and  C_18
REMARK   10  A    between atoms: C_13  and  C_19
REMARK   11  A    between atoms: C_16  and  C_20
REMARK   12  A    between atoms: C_22  and  C_23
REMARK                            x       y       z     vdW  Elec       q    Type
REMARK                         _______ _______ _______ _____ _____    ______ ____
ROOT
ATOM      8  C   UNL     1      -3.343   3.107  23.053  0.00  0.00    +0.000 C 
ATOM      9  C   UNL     1      -2.156   2.578  23.896  0.00  0.00    +0.032 C 
ATOM     10  C   UNL     1      -3.742   4.518  23.513  0.00  0.00    +0.012 C 
ATOM     11  C   UNL     1      -4.144   4.555  24.999  0.00  0.00    +0.023 C 
ATOM     13  C   UNL     1      -3.149   3.815  25.870  0.00  0.00    -0.073 C 
ATOM     14  C   UNL     1      -2.259   2.945  25.358  0.00  0.00    -0.022 C 
ATOM     19  C   UNL     1      -3.170   4.131  27.340  0.00  0.00    +0.039 C 
ENDROOT
BRANCH   8  12
ATOM     12  C   UNL     1      -3.016   3.122  21.557  0.00  0.00    -0.013 C 
ATOM     17  C   UNL     1      -2.707   1.711  21.065  0.00  0.00    +0.007 C 
ATOM     18  C   UNL     1      -4.170   3.729  20.766  0.00  0.00    +0.007 C 
ENDBRANCH   8  12
BRANCH   9  15
ATOM     15  C   UNL     1      -2.014   1.058  23.760  0.00  0.00    +0.113 C 
BRANCH  15   4
ATOM      2  O   UNL     1       0.582   0.811  24.945  0.00  0.00    -0.253 OA
ATOM      4  N   UNL     1      -0.798   0.720  23.090  0.00  0.00    -0.299 N 
ATOM      7  N   UNL     1       1.453   0.274  22.832  0.00  0.00    -0.269 N 
ATOM     21  C   UNL     1       0.447   0.617  23.739  0.00  0.00    +0.304 C 
ATOM     34  H   UNL     1      -0.838   0.476  22.105  0.00  0.00    +0.150 HD
ATOM     36  H   UNL     1       1.171   0.150  21.864  0.00  0.00    +0.156 HD
BRANCH   7  28
ATOM     28  C   UNL     1       2.829   0.077  23.096  0.00  0.00    +0.035 A 
ATOM     29  C   UNL     1       3.735   1.116  22.887  0.00  0.00    +0.023 A 
ATOM     30  C   UNL     1       3.280  -1.157  23.564  0.00  0.00    +0.023 A 
ATOM     31  C   UNL     1       5.092   0.922  23.147  0.00  0.00    +0.002 A 
ATOM     32  C   UNL     1       4.637  -1.351  23.825  0.00  0.00    +0.002 A 
ATOM     33  C   UNL     1       5.542  -0.311  23.616  0.00  0.00    +0.000 A 
ENDBRANCH   7  28
ENDBRANCH  15   4
ENDBRANCH   9  15
BRANCH  11  16
ATOM     16  C   UNL     1      -5.562   4.010  25.202  0.00  0.00    +0.103 C 
BRANCH  16  20
ATOM      1  O   UNL     1      -5.729   2.306  26.911  0.00  0.00    -0.276 OA
ATOM      5  N   UNL     1      -5.330   1.681  24.709  0.00  0.00    -0.314 N 
ATOM     20  C   UNL     1      -5.556   2.593  25.730  0.00  0.00    +0.214 C 
ATOM     35  H   UNL     1      -5.207   2.020  23.758  0.00  0.00    +0.149 HD
BRANCH   5  22
ATOM     22  C   UNL     1      -5.270   0.253  24.924  0.00  0.00    +0.119 C 
BRANCH  22  23
ATOM     23  C   UNL     1      -4.256  -0.098  26.004  0.00  0.00    +0.103 C 
BRANCH  23   6
ATOM      3  O   UNL     1      -1.795  -2.848  24.005  0.00  0.00    -0.377 OA
ATOM      6  N   UNL     1      -3.548  -1.327  25.653  0.00  0.00    -0.297 NA
ATOM     24  C   UNL     1      -2.094  -1.116  25.678  0.00  0.00    +0.112 C 
ATOM     25  C   UNL     1      -3.964  -1.811  24.330  0.00  0.00    +0.112 C 
ATOM     26  C   UNL     1      -1.377  -2.408  25.297  0.00  0.00    +0.175 C 
ATOM     27  C   UNL     1      -3.204  -3.086  23.981  0.00  0.00    +0.175 C 
ENDBRANCH  23   6
ENDBRANCH  22  23
ENDBRANCH   5  22
ENDBRANCH  16  20
ENDBRANCH  11  16
TORSDOF 9
ENDMDL
MODEL 5
REMARK VINA RESULT:       0.9      2.150      5.485
REMARK  Name = 38027041
REMARK  12 active torsions:
REMARK  status: ('A' for Active; 'I' for Inactive)
REMARK    1  A    between atoms: N_4  and  C_15
REMARK    2  A    between atoms: N_5  and  C_22
REMARK    3  A    between atoms: N_6  and  C_23
REMARK    4  A    between atoms: N_7  and  C_28
REMARK    5  A    between atoms: C_8  and  C_12
REMARK    6  A    between atoms: C_9  and  C_15
REMARK    7  A    between atoms: C_11  and  C_16
REMARK    8  A    between atoms: C_12  and  C_17
REMARK    9  A    between atoms: C_12  and  C_18
REMARK   10  A    between atoms: C_13  and  C_19
REMARK   11  A    between atoms: C_16  and  C_20
REMARK   12  A    between atoms: C_22  and  C_23
REMARK                            x       y       z     vdW  Elec       q    Type
REMARK                         _______ _______ _______ _____ _____    ______ ____
ROOT
ATOM      8  C   UNL     1      -2.991   1.809  23.403  0.00  0.00    +0.000 C 
ATOM      9  C   UNL     1      -3.864   2.990  23.896  0.00  0.00    +0.032 C 
ATOM     10  C   UNL     1      -3.817   0.514  23.355  0.00  0.00    +0.012 C 
ATOM     11  C   UNL     1      -4.405   0.146  24.731  0.00  0.00    +0.023 C 
ATOM     13  C   UNL     1      -5.054   1.339  25.403  0.00  0.00    -0.073 C 
ATOM     14  C   UNL     1      -4.811   2.602  25.008  0.00  0.00    -0.022 C 
ATOM     19  C   UNL     1      -6.025   1.045  26.512  0.00  0.00    +0.039 C 
ENDROOT
BRANCH   8  12
ATOM     12  C   UNL     1      -2.383   2.087  22.025  0.00  0.00    -0.013 C 
ATOM     17  C   UNL     1      -2.188   0.785  21.256  0.00  0.00    +0.007 C 
ATOM     18  C   UNL     1      -3.266   3.052  21.240  0.00  0.00    +0.007 C 
ENDBRANCH   8  12
BRANCH   9  15
ATOM     15  C   UNL     1      -2.996   4.167  24.352  0.00  0.00    +0.113 C 
BRANCH  15   4
ATOM      2  O   UNL     1      -2.113   3.875  27.062  0.00  0.00    -0.253 OA
ATOM      4  N   UNL     1      -1.713   3.712  24.789  0.00  0.00    -0.299 N 
ATOM      7  N   UNL     1      -0.036   3.125  26.264  0.00  0.00    -0.269 N 
ATOM     21  C   UNL     1      -1.347   3.593  26.142  0.00  0.00    +0.304 C 
ATOM     34  H   UNL     1      -1.049   3.393  24.091  0.00  0.00    +0.150 HD
ATOM     36  H   UNL     1       0.463   2.940  25.399  0.00  0.00    +0.156 HD
BRANCH   7  28
ATOM     28  C   UNL     1       0.690   2.875  27.452  0.00  0.00    +0.035 A 
ATOM     29  C   UNL     1       2.066   3.098  27.488  0.00  0.00    +0.023 A 
ATOM     30  C   UNL     1       0.030   2.407  28.587  0.00  0.00    +0.023 A 
ATOM     31  C   UNL     1       2.783   2.852  28.659  0.00  0.00    +0.002 A 
ATOM     32  C   UNL     1       0.746   2.161  29.759  0.00  0.00    +0.002 A 
ATOM     33  C   UNL     1       2.122   2.384  29.794  0.00  0.00    +0.000 A 
ENDBRANCH   7  28
ENDBRANCH  15   4
ENDBRANCH   9  15
BRANCH  11  16
ATOM     16  C   UNL     1      -3.339  -0.481  25.636  0.00  0.00    +0.103 C 
BRANCH  16  20
ATOM      1  O   UNL     1      -2.478  -2.287  24.276  0.00  0.00    -0.276 OA
ATOM      5  N   UNL     1      -1.081  -0.522  24.852  0.00  0.00    -0.314 N 
ATOM     20  C   UNL     1      -2.282  -1.216  24.844  0.00  0.00    +0.214 C 
ATOM     35  H   UNL     1      -1.023   0.365  25.347  0.00  0.00    +0.149 HD
BRANCH   5  22
ATOM     22  C   UNL     1       0.108  -0.991  24.177  0.00  0.00    +0.119 C 
BRANCH  22  23
ATOM     23  C   UNL     1       0.588   0.017  23.143  0.00  0.00    +0.103 C 
BRANCH  23   6
ATOM      3  O   UNL     1       4.758  -0.054  23.616  0.00  0.00    -0.377 OA
ATOM      6  N   UNL     1       2.011  -0.171  22.874  0.00  0.00    -0.297 NA
ATOM     24  C   UNL     1       2.596  -1.139  23.813  0.00  0.00    +0.112 C 
ATOM     25  C   UNL     1       2.732   1.107  22.955  0.00  0.00    +0.112 C 
ATOM     26  C   UNL     1       4.084  -1.310  23.522  0.00  0.00    +0.175 C 
ATOM     27  C   UNL     1       4.216   0.883  22.683  0.00  0.00    +0.175 C 
ENDBRANCH  23   6
ENDBRANCH  22  23
ENDBRANCH   5  22
ENDBRANCH  16  20
ENDBRANCH  11  16
TORSDOF 9
ENDMDL
MODEL 6
REMARK VINA RESULT:       1.2      1.817      4.846
REMARK  Name = 38027041
REMARK  12 active torsions:
REMARK  status: ('A' for Active; 'I' for Inactive)
REMARK    1  A    between atoms: N_4  and  C_15
REMARK    2  A    between atoms: N_5  and  C_22
REMARK    3  A    between atoms: N_6  and  C_23
REMARK    4  A    between atoms: N_7  and  C_28
REMARK    5  A    between atoms: C_8  and  C_12
REMARK    6  A    between atoms: C_9  and  C_15
REMARK    7  A    between atoms: C_11  and  C_16
REMARK    8  A    between atoms: C_12  and  C_17
REMARK    9  A    between atoms: C_12  and  C_18
REMARK   10  A    between atoms: C_13  and  C_19
REMARK   11  A    between atoms: C_16  and  C_20
REMARK   12  A    between atoms: C_22  and  C_23
REMARK                            x       y       z     vdW  Elec       q    Type
REMARK                         _______ _______ _______ _____ _____    ______ ____
ROOT
ATOM      8  C   UNL     1      -2.261   4.260  24.960  0.00  0.00    +0.000 C 
ATOM      9  C   UNL     1      -2.538   3.725  26.388  0.00  0.00    +0.032 C 
ATOM     10  C   UNL     1      -3.543   4.847  24.350  0.00  0.00    +0.012 C 
ATOM     11  C   UNL     1      -4.680   3.810  24.271  0.00  0.00    +0.023 C 
ATOM     13  C   UNL     1      -4.837   3.048  25.572  0.00  0.00    -0.073 C 
ATOM     14  C   UNL     1      -3.875   3.032  26.511  0.00  0.00    -0.022 C 
ATOM     19  C   UNL     1      -6.146   2.341  25.786  0.00  0.00    +0.039 C 
ENDROOT
BRANCH   8  12
ATOM     12  C   UNL     1      -1.152   5.315  24.953  0.00  0.00    -0.013 C 
ATOM     17  C   UNL     1      -0.219   5.099  23.766  0.00  0.00    +0.007 C 
ATOM     18  C   UNL     1      -1.751   6.717  24.921  0.00  0.00    +0.007 C 
ENDBRANCH   8  12
BRANCH   9  15
ATOM     15  C   UNL     1      -1.426   2.775  26.848  0.00  0.00    +0.113 C 
BRANCH  15   4
ATOM      2  O   UNL     1       1.089   2.729  25.477  0.00  0.00    -0.253 OA
ATOM      4  N   UNL     1      -1.045   1.891  25.792  0.00  0.00    -0.299 N 
ATOM      7  N   UNL     1       0.299   0.946  24.169  0.00  0.00    -0.269 N 
ATOM     21  C   UNL     1       0.213   1.926  25.162  0.00  0.00    +0.304 C 
ATOM     34  H   UNL     1      -1.688   1.153  25.522  0.00  0.00    +0.150 HD
ATOM     36  H   UNL     1      -0.521   0.362  24.033  0.00  0.00    +0.156 HD
BRANCH   7  28
ATOM     28  C   UNL     1       1.394   0.665  23.320  0.00  0.00    +0.035 A 
ATOM     29  C   UNL     1       2.639   1.243  23.571  0.00  0.00    +0.023 A 
ATOM     30  C   UNL     1       1.231  -0.190  22.230  0.00  0.00    +0.023 A 
ATOM     31  C   UNL     1       3.719   0.966  22.734  0.00  0.00    +0.002 A 
ATOM     32  C   UNL     1       2.312  -0.467  21.392  0.00  0.00    +0.002 A 
ATOM     33  C   UNL     1       3.555   0.111  21.645  0.00  0.00    +0.000 A 
ENDBRANCH   7  28
ENDBRANCH  15   4
ENDBRANCH   9  15
BRANCH  11  16
ATOM     16  C   UNL     1      -4.472   2.851  23.095  0.00  0.00    +0.103 C 
BRANCH  16  20
ATOM      1  O   UNL     1      -2.682   1.304  23.600  0.00  0.00    -0.276 OA
ATOM      5  N   UNL     1      -4.889   0.622  23.851  0.00  0.00    -0.314 N 
ATOM     20  C   UNL     1      -3.888   1.528  23.536  0.00  0.00    +0.214 C 
ATOM     35  H   UNL     1      -5.862   0.909  23.773  0.00  0.00    +0.149 HD
BRANCH   5  22
ATOM     22  C   UNL     1      -4.622  -0.726  24.301  0.00  0.00    +0.119 C 
BRANCH  22  23
ATOM     23  C   UNL     1      -3.945  -0.726  25.664  0.00  0.00    +0.103 C 
BRANCH  23   6
ATOM      3  O   UNL     1      -0.072  -2.103  24.817  0.00  0.00    -0.377 OA
ATOM      6  N   UNL     1      -2.744  -1.558  25.633  0.00  0.00    -0.297 NA
ATOM     24  C   UNL     1      -1.601  -0.845  26.220  0.00  0.00    +0.112 C 
ATOM     25  C   UNL     1      -2.429  -1.969  24.258  0.00  0.00    +0.112 C 
ATOM     26  C   UNL     1      -0.357  -1.728  26.165  0.00  0.00    +0.175 C 
ATOM     27  C   UNL     1      -1.166  -2.825  24.249  0.00  0.00    +0.175 C 
ENDBRANCH  23   6
ENDBRANCH  22  23
ENDBRANCH   5  22
ENDBRANCH  16  20
ENDBRANCH  11  16
TORSDOF 9
ENDMDL
MODEL 7
REMARK VINA RESULT:       1.6      1.713      4.061
REMARK  Name = 38027041
REMARK  12 active torsions:
REMARK  status: ('A' for Active; 'I' for Inactive)
REMARK    1  A    between atoms: N_4  and  C_15
REMARK    2  A    between atoms: N_5  and  C_22
REMARK    3  A    between atoms: N_6  and  C_23
REMARK    4  A    between atoms: N_7  and  C_28
REMARK    5  A    between atoms: C_8  and  C_12
REMARK    6  A    between atoms: C_9  and  C_15
REMARK    7  A    between atoms: C_11  and  C_16
REMARK    8  A    between atoms: C_12  and  C_17
REMARK    9  A    between atoms: C_12  and  C_18
REMARK   10  A    between atoms: C_13  and  C_19
REMARK   11  A    between atoms: C_16  and  C_20
REMARK   12  A    between atoms: C_22  and  C_23
REMARK                            x       y       z     vdW  Elec       q    Type
REMARK                         _______ _______ _______ _____ _____    ______ ____
ROOT
ATOM      8  C   UNL     1      -3.580   2.724  23.238  0.00  0.00    +0.000 C 
ATOM      9  C   UNL     1      -2.081   2.840  23.615  0.00  0.00    +0.032 C 
ATOM     10  C   UNL     1      -4.387   3.852  23.898  0.00  0.00    +0.012 C 
ATOM     11  C   UNL     1      -4.267   3.834  25.434  0.00  0.00    +0.023 C 
ATOM     13  C   UNL     1      -2.828   3.679  25.884  0.00  0.00    -0.073 C 
ATOM     14  C   UNL     1      -1.863   3.246  25.053  0.00  0.00    -0.022 C 
ATOM     19  C   UNL     1      -2.516   4.076  27.300  0.00  0.00    +0.039 C 
ENDROOT
BRANCH   8  12
ATOM     12  C   UNL     1      -3.789   2.756  21.721  0.00  0.00    -0.013 C 
ATOM     17  C   UNL     1      -4.202   4.153  21.269  0.00  0.00    +0.007 C 
ATOM     18  C   UNL     1      -2.522   2.307  21.000  0.00  0.00    +0.007 C 
ENDBRANCH   8  12
BRANCH   9  15
ATOM     15  C   UNL     1      -1.338   1.529  23.335  0.00  0.00    +0.113 C 
BRANCH  15   4
ATOM      2  O   UNL     1       0.674  -0.501  23.138  0.00  0.00    -0.253 OA
ATOM      4  N   UNL     1       0.074   1.710  23.464  0.00  0.00    -0.299 N 
ATOM      7  N   UNL     1       2.310   1.138  23.525  0.00  0.00    -0.269 N 
ATOM     21  C   UNL     1       1.007   0.662  23.355  0.00  0.00    +0.304 C 
ATOM     34  H   UNL     1       0.434   2.653  23.575  0.00  0.00    +0.150 HD
ATOM     36  H   UNL     1       2.413   2.133  23.701  0.00  0.00    +0.156 HD
BRANCH   7  28
ATOM     28  C   UNL     1       3.516   0.399  23.486  0.00  0.00    +0.035 A 
ATOM     29  C   UNL     1       3.504  -0.970  23.754  0.00  0.00    +0.023 A 
ATOM     30  C   UNL     1       4.717   1.038  23.180  0.00  0.00    +0.023 A 
ATOM     31  C   UNL     1       4.693  -1.700  23.715  0.00  0.00    +0.002 A 
ATOM     32  C   UNL     1       5.906   0.309  23.141  0.00  0.00    +0.002 A 
ATOM     33  C   UNL     1       5.893  -1.059  23.409  0.00  0.00    +0.000 A 
ENDBRANCH   7  28
ENDBRANCH  15   4
ENDBRANCH   9  15
BRANCH  11  16
ATOM     16  C   UNL     1      -5.154   2.744  26.044  0.00  0.00    +0.103 C 
BRANCH  16  20
ATOM      1  O   UNL     1      -6.579   1.622  24.443  0.00  0.00    -0.276 OA
ATOM      5  N   UNL     1      -4.467   0.764  24.892  0.00  0.00    -0.314 N 
ATOM     20  C   UNL     1      -5.506   1.670  25.040  0.00  0.00    +0.214 C 
ATOM     35  H   UNL     1      -3.613   0.896  25.428  0.00  0.00    +0.149 HD
BRANCH   5  22
ATOM     22  C   UNL     1      -4.528  -0.370  23.999  0.00  0.00    +0.119 C 
BRANCH  22  23
ATOM     23  C   UNL     1      -4.468  -1.682  24.770  0.00  0.00    +0.103 C 
BRANCH  23   6
ATOM      3  O   UNL     1      -0.330  -1.428  25.424  0.00  0.00    -0.377 OA
ATOM      6  N   UNL     1      -3.143  -1.866  25.355  0.00  0.00    -0.297 NA
ATOM     24  C   UNL     1      -2.576  -0.578  25.778  0.00  0.00    +0.112 C 
ATOM     25  C   UNL     1      -2.238  -2.526  24.404  0.00  0.00    +0.112 C 
ATOM     26  C   UNL     1      -1.188  -0.793  26.374  0.00  0.00    +0.175 C 
ATOM     27  C   UNL     1      -0.859  -2.696  25.032  0.00  0.00    +0.175 C 
ENDBRANCH  23   6
ENDBRANCH  22  23
ENDBRANCH   5  22
ENDBRANCH  16  20
ENDBRANCH  11  16
TORSDOF 9
ENDMDL
MODEL 8
REMARK VINA RESULT:       1.7      1.305      2.090
REMARK  Name = 38027041
REMARK  12 active torsions:
REMARK  status: ('A' for Active; 'I' for Inactive)
REMARK    1  A    between atoms: N_4  and  C_15
REMARK    2  A    between atoms: N_5  and  C_22
REMARK    3  A    between atoms: N_6  and  C_23
REMARK    4  A    between atoms: N_7  and  C_28
REMARK    5  A    between atoms: C_8  and  C_12
REMARK    6  A    between atoms: C_9  and  C_15
REMARK    7  A    between atoms: C_11  and  C_16
REMARK    8  A    between atoms: C_12  and  C_17
REMARK    9  A    between atoms: C_12  and  C_18
REMARK   10  A    between atoms: C_13  and  C_19
REMARK   11  A    between atoms: C_16  and  C_20
REMARK   12  A    between atoms: C_22  and  C_23
REMARK                            x       y       z     vdW  Elec       q    Type
REMARK                         _______ _______ _______ _____ _____    ______ ____
ROOT
ATOM      8  C   UNL     1      -2.537  -0.431  24.655  0.00  0.00    +0.000 C 
ATOM      9  C   UNL     1      -2.657   0.389  23.345  0.00  0.00    +0.032 C 
ATOM     10  C   UNL     1      -3.874  -1.110  24.987  0.00  0.00    +0.012 C 
ATOM     11  C   UNL     1      -5.020  -0.094  25.150  0.00  0.00    +0.023 C 
ATOM     13  C   UNL     1      -5.038   0.920  24.024  0.00  0.00    -0.073 C 
ATOM     14  C   UNL     1      -3.977   1.113  23.219  0.00  0.00    -0.022 C 
ATOM     19  C   UNL     1      -6.320   1.677  23.816  0.00  0.00    +0.039 C 
ENDROOT
BRANCH   8  12
ATOM     12  C   UNL     1      -1.428  -1.482  24.568  0.00  0.00    -0.013 C 
ATOM     17  C   UNL     1      -0.568  -1.455  25.827  0.00  0.00    +0.007 C 
ATOM     18  C   UNL     1      -2.025  -2.869  24.352  0.00  0.00    +0.007 C 
ENDBRANCH   8  12
BRANCH   9  15
ATOM     15  C   UNL     1      -1.509   1.395  23.214  0.00  0.00    +0.113 C 
BRANCH  15   4
ATOM      2  O   UNL     1       1.056   1.399  24.491  0.00  0.00    -0.253 OA
ATOM      4  N   UNL     1      -0.321   0.750  22.749  0.00  0.00    -0.299 N 
ATOM      7  N   UNL     1       1.888   0.076  22.740  0.00  0.00    -0.269 N 
ATOM     21  C   UNL     1       0.909   0.795  23.431  0.00  0.00    +0.304 C 
ATOM     34  H   UNL     1      -0.377   0.172  21.916  0.00  0.00    +0.150 HD
ATOM     36  H   UNL     1       1.600  -0.366  21.871  0.00  0.00    +0.156 HD
BRANCH   7  28
ATOM     28  C   UNL     1       3.242  -0.114  23.100  0.00  0.00    +0.035 A 
ATOM     29  C   UNL     1       3.660  -1.339  23.621  0.00  0.00    +0.023 A 
ATOM     30  C   UNL     1       4.160   0.923  22.935  0.00  0.00    +0.023 A 
ATOM     31  C   UNL     1       4.996  -1.526  23.977  0.00  0.00    +0.002 A 
ATOM     32  C   UNL     1       5.496   0.735  23.291  0.00  0.00    +0.002 A 
ATOM     33  C   UNL     1       5.913  -0.489  23.811  0.00  0.00    +0.000 A 
ENDBRANCH   7  28
ENDBRANCH  15   4
ENDBRANCH   9  15
BRANCH  11  16
ATOM     16  C   UNL     1      -4.952   0.602  26.514  0.00  0.00    +0.103 C 
BRANCH  16  20
ATOM      1  O   UNL     1      -6.704   2.224  26.906  0.00  0.00    -0.276 OA
ATOM      5  N   UNL     1      -4.715   2.905  25.915  0.00  0.00    -0.314 N 
ATOM     20  C   UNL     1      -5.578   1.978  26.482  0.00  0.00    +0.214 C 
ATOM     35  H   UNL     1      -3.797   2.601  25.601  0.00  0.00    +0.149 HD
BRANCH   5  22
ATOM     22  C   UNL     1      -5.052   4.301  25.753  0.00  0.00    +0.119 C 
BRANCH  22  23
ATOM     23  C   UNL     1      -3.808   5.177  25.817  0.00  0.00    +0.103 C 
BRANCH  23   6
ATOM      3  O   UNL     1       0.108   3.670  25.754  0.00  0.00    -0.377 OA
ATOM      6  N   UNL     1      -2.625   4.406  25.446  0.00  0.00    -0.297 NA
ATOM     24  C   UNL     1      -2.176   3.567  26.567  0.00  0.00    +0.112 C 
ATOM     25  C   UNL     1      -1.537   5.294  25.014  0.00  0.00    +0.112 C 
ATOM     26  C   UNL     1      -0.933   2.781  26.160  0.00  0.00    +0.175 C 
ATOM     27  C   UNL     1      -0.309   4.467  24.644  0.00  0.00    +0.175 C 
ENDBRANCH  23   6
ENDBRANCH  22  23
ENDBRANCH   5  22
ENDBRANCH  16  20
ENDBRANCH  11  16
TORSDOF 9
ENDMDL
MODEL 9
REMARK VINA RESULT:       2.6      1.827      6.547
REMARK  Name = 38027041
REMARK  12 active torsions:
REMARK  status: ('A' for Active; 'I' for Inactive)
REMARK    1  A    between atoms: N_4  and  C_15
REMARK    2  A    between atoms: N_5  and  C_22
REMARK    3  A    between atoms: N_6  and  C_23
REMARK    4  A    between atoms: N_7  and  C_28
REMARK    5  A    between atoms: C_8  and  C_12
REMARK    6  A    between atoms: C_9  and  C_15
REMARK    7  A    between atoms: C_11  and  C_16
REMARK    8  A    between atoms: C_12  and  C_17
REMARK    9  A    between atoms: C_12  and  C_18
REMARK   10  A    between atoms: C_13  and  C_19
REMARK   11  A    between atoms: C_16  and  C_20
REMARK   12  A    between atoms: C_22  and  C_23
REMARK                            x       y       z     vdW  Elec       q    Type
REMARK                         _______ _______ _______ _____ _____    ______ ____
ROOT
ATOM      8  C   UNL     1      -2.479   3.426  24.649  0.00  0.00    +0.000 C 
ATOM      9  C   UNL     1      -3.807   4.200  24.454  0.00  0.00    +0.032 C 
ATOM     10  C   UNL     1      -1.609   3.528  23.387  0.00  0.00    +0.012 C 
ATOM     11  C   UNL     1      -2.321   2.971  22.140  0.00  0.00    +0.023 C 
ATOM     13  C   UNL     1      -3.742   3.487  22.025  0.00  0.00    -0.073 C 
ATOM     14  C   UNL     1      -4.385   4.045  23.067  0.00  0.00    -0.022 C 
ATOM     19  C   UNL     1      -4.391   3.386  20.674  0.00  0.00    +0.039 C 
ENDROOT
BRANCH   8  12
ATOM     12  C   UNL     1      -1.697   3.935  25.862  0.00  0.00    -0.013 C 
ATOM     17  C   UNL     1      -0.722   2.869  26.352  0.00  0.00    +0.007 C 
ATOM     18  C   UNL     1      -0.959   5.224  25.517  0.00  0.00    +0.007 C 
ENDBRANCH   8  12
BRANCH   9  15
ATOM     15  C   UNL     1      -4.852   3.778  25.493  0.00  0.00    +0.113 C 
BRANCH  15   4
ATOM      2  O   UNL     1      -4.473   1.469  23.839  0.00  0.00    -0.253 OA
ATOM      4  N   UNL     1      -4.614   2.439  25.935  0.00  0.00    -0.299 N 
ATOM      7  N   UNL     1      -4.223   0.169  25.778  0.00  0.00    -0.269 N 
ATOM     21  C   UNL     1      -4.437   1.350  25.062  0.00  0.00    +0.304 C 
ATOM     34  H   UNL     1      -4.501   2.271  26.930  0.00  0.00    +0.150 HD
ATOM     36  H   UNL     1      -4.225   0.244  26.791  0.00  0.00    +0.156 HD
BRANCH   7  28
ATOM     28  C   UNL     1      -4.004  -1.130  25.264  0.00  0.00    +0.035 A 
ATOM     29  C   UNL     1      -4.533  -1.488  24.024  0.00  0.00    +0.023 A 
ATOM     30  C   UNL     1      -3.260  -2.055  25.997  0.00  0.00    +0.023 A 
ATOM     31  C   UNL     1      -4.317  -2.769  23.516  0.00  0.00    +0.002 A 
ATOM     32  C   UNL     1      -3.044  -3.336  25.489  0.00  0.00    +0.002 A 
ATOM     33  C   UNL     1      -3.573  -3.693  24.249  0.00  0.00    +0.000 A 
ENDBRANCH   7  28
ENDBRANCH  15   4
ENDBRANCH   9  15
BRANCH  11  16
ATOM     16  C   UNL     1      -2.291   1.439  22.125  0.00  0.00    +0.103 C 
BRANCH  16  20
ATOM      1  O   UNL     1      -1.457   0.331  24.107  0.00  0.00    -0.276 OA
ATOM      5  N   UNL     1       0.044   1.083  22.500  0.00  0.00    -0.314 N 
ATOM     20  C   UNL     1      -1.220   0.883  23.036  0.00  0.00    +0.214 C 
ATOM     35  H   UNL     1       0.134   1.545  21.598  0.00  0.00    +0.149 HD
BRANCH   5  22
ATOM     22  C   UNL     1       1.257   0.655  23.157  0.00  0.00    +0.119 C 
BRANCH  22  23
ATOM     23  C   UNL     1       1.956  -0.441  22.364  0.00  0.00    +0.103 C 
BRANCH  23   6
ATOM      3  O   UNL     1       5.589  -0.115  24.440  0.00  0.00    -0.377 OA
ATOM      6  N   UNL     1       3.384  -0.458  22.672  0.00  0.00    -0.297 NA
ATOM     24  C   UNL     1       3.676  -1.431  23.734  0.00  0.00    +0.112 C 
ATOM     25  C   UNL     1       3.848   0.878  23.072  0.00  0.00    +0.112 C 
ATOM     26  C   UNL     1       5.170  -1.423  24.047  0.00  0.00    +0.175 C 
ATOM     27  C   UNL     1       5.337   0.832  23.400  0.00  0.00    +0.175 C 
ENDBRANCH  23   6
ENDBRANCH  22  23
ENDBRANCH   5  22
ENDBRANCH  16  20
ENDBRANCH  11  16
TORSDOF 9
ENDMDL
