MODEL 1
REMARK VINA RESULT:       4.6      0.000      0.000
REMARK  Name = 7143846
REMARK  7 active torsions:
REMARK  status: ('A' for Active; 'I' for Inactive)
REMARK    1  A    between atoms: S_1  and  N_6
REMARK    2  A    between atoms: S_1  and  C_17
REMARK    3  A    between atoms: S_2  and  C_27
REMARK    4  A    between atoms: S_2  and  C_28
REMARK    5  A    between atoms: C_17  and  C_20
REMARK    6  A    between atoms: C_18  and  C_21
REMARK    7  A    between atoms: C_20  and  C_22
REMARK                            x       y       z     vdW  Elec       q    Type
REMARK                         _______ _______ _______ _____ _____    ______ ____
ROOT
ATOM      5  O   UNL     1       0.100   2.331  25.761  0.00  0.00    -0.267 OA
ATOM      6  N   UNL     1      -4.857   2.471  25.258  0.00  0.00    -0.180 NA
ATOM      7  N   UNL     1      -1.816   3.100  24.678  0.00  0.00    -0.311 N 
ATOM      8  C   UNL     1      -3.583   4.533  25.855  0.00  0.00    +0.025 C 
ATOM      9  C   UNL     1      -3.881   3.925  23.494  0.00  0.00    +0.052 C 
ATOM     10  C   UNL     1      -3.845   5.101  24.465  0.00  0.00    +0.017 C 
ATOM     11  C   UNL     1      -4.705   3.563  26.261  0.00  0.00    +0.114 C 
ATOM     12  C   UNL     1      -5.041   2.984  23.868  0.00  0.00    +0.118 C 
ATOM     13  C   UNL     1      -2.202   3.870  25.870  0.00  0.00    +0.130 C 
ATOM     14  C   UNL     1      -2.565   3.169  23.501  0.00  0.00    +0.026 A 
ATOM     15  C   UNL     1      -2.132   2.551  22.391  0.00  0.00    +0.022 A 
ATOM     16  C   UNL     1      -0.605   2.384  24.752  0.00  0.00    +0.259 A 
ATOM     18  C   UNL     1      -0.164   1.672  23.502  0.00  0.00    +0.047 A 
ATOM     19  C   UNL     1      -0.916   1.788  22.397  0.00  0.00    +0.015 A 
ENDROOT
BRANCH  18  21
ATOM     21  C   UNL     1       1.062   0.856  23.480  0.00  0.00    -0.013 A 
ATOM     23  C   UNL     1       1.001  -0.504  23.786  0.00  0.00    +0.010 A 
ATOM     24  C   UNL     1       2.286   1.441  23.153  0.00  0.00    +0.010 A 
ATOM     25  C   UNL     1       2.162  -1.277  23.764  0.00  0.00    +0.015 A 
ATOM     26  C   UNL     1       3.446   0.669  23.131  0.00  0.00    +0.015 A 
ATOM     27  C   UNL     1       3.384  -0.691  23.438  0.00  0.00    +0.008 A 
BRANCH  27   2
ATOM      2  S   UNL     1       4.868  -1.678  23.413  0.00  0.00    -0.129 S 
ATOM     28  C   UNL     1       6.143  -0.438  23.777  0.00  0.00    +0.090 C 
ENDBRANCH  27   2
ENDBRANCH  18  21
BRANCH   6   1
ATOM      1  S   UNL     1      -5.892   1.186  25.715  0.00  0.00    +0.032 S 
ATOM      3  O   UNL     1      -6.821   0.930  24.637  0.00  0.00    -0.158 OA
ATOM      4  O   UNL     1      -6.344   1.412  27.071  0.00  0.00    -0.158 OA
BRANCH   1  17
ATOM     17  C   UNL     1      -4.709  -0.136  25.747  0.00  0.00    +0.185 C 
BRANCH  17  20
ATOM     20  C   UNL     1      -4.050  -0.321  24.390  0.00  0.00    +0.021 C 
ATOM     22  C   UNL     1      -4.194  -1.750  23.892  0.00  0.00    +0.005 C 
ENDBRANCH  17  20
ENDBRANCH   1  17
ENDBRANCH   6   1
TORSDOF 5
ENDMDL
MODEL 2
REMARK VINA RESULT:       4.8     16.096     18.538
REMARK  Name = 7143846
REMARK  7 active torsions:
REMARK  status: ('A' for Active; 'I' for Inactive)
REMARK    1  A    between atoms: S_1  and  N_6
REMARK    2  A    between atoms: S_1  and  C_17
REMARK    3  A    between atoms: S_2  and  C_27
REMARK    4  A    between atoms: S_2  and  C_28
REMARK    5  A    between atoms: C_17  and  C_20
REMARK    6  A    between atoms: C_18  and  C_21
REMARK    7  A    between atoms: C_20  and  C_22
REMARK                            x       y       z     vdW  Elec       q    Type
REMARK                         _______ _______ _______ _____ _____    ______ ____
ROOT
ATOM      5  O   UNL     1      -6.188  -9.511  14.235  0.00  0.00    -0.267 OA
ATOM      6  N   UNL     1      -6.320  -7.942   9.506  0.00  0.00    -0.180 NA
ATOM      7  N   UNL     1      -6.490  -9.924  11.960  0.00  0.00    -0.311 N 
ATOM      8  C   UNL     1      -4.617  -9.612  10.241  0.00  0.00    +0.025 C 
ATOM      9  C   UNL     1      -6.832 -10.375   9.505  0.00  0.00    +0.052 C 
ATOM     10  C   UNL     1      -5.342 -10.701   9.461  0.00  0.00    +0.017 C 
ATOM     11  C   UNL     1      -4.862  -8.235   9.601  0.00  0.00    +0.114 C 
ATOM     12  C   UNL     1      -7.083  -9.023   8.812  0.00  0.00    +0.118 C 
ATOM     13  C   UNL     1      -5.066  -9.665  11.706  0.00  0.00    +0.130 C 
ATOM     14  C   UNL     1      -7.342 -10.339  10.934  0.00  0.00    +0.026 A 
ATOM     15  C   UNL     1      -8.610 -10.682  11.209  0.00  0.00    +0.022 A 
ATOM     16  C   UNL     1      -6.920  -9.838  13.299  0.00  0.00    +0.259 A 
ATOM     18  C   UNL     1      -8.357 -10.194  13.571  0.00  0.00    +0.047 A 
ATOM     19  C   UNL     1      -9.122 -10.602  12.548  0.00  0.00    +0.015 A 
ENDROOT
BRANCH  18  21
ATOM     21  C   UNL     1      -8.924 -10.095  14.926  0.00  0.00    -0.013 A 
ATOM     23  C   UNL     1     -10.118  -9.403  15.135  0.00  0.00    +0.010 A 
ATOM     24  C   UNL     1      -8.269 -10.692  16.004  0.00  0.00    +0.010 A 
ATOM     25  C   UNL     1     -10.656  -9.309  16.419  0.00  0.00    +0.015 A 
ATOM     26  C   UNL     1      -8.806 -10.598  17.287  0.00  0.00    +0.015 A 
ATOM     27  C   UNL     1     -10.000  -9.906  17.495  0.00  0.00    +0.008 A 
BRANCH  27   2
ATOM      2  S   UNL     1     -10.685  -9.784  19.135  0.00  0.00    -0.129 S 
ATOM     28  C   UNL     1      -9.433 -10.649  20.124  0.00  0.00    +0.090 C 
ENDBRANCH  27   2
ENDBRANCH  18  21
BRANCH   6   1
ATOM      1  S   UNL     1      -6.725  -6.343   9.049  0.00  0.00    +0.032 S 
ATOM      3  O   UNL     1      -5.722  -5.853   8.130  0.00  0.00    -0.158 OA
ATOM      4  O   UNL     1      -7.097  -5.600  10.234  0.00  0.00    -0.158 OA
BRANCH   1  17
ATOM     17  C   UNL     1      -8.202  -6.675   8.125  0.00  0.00    +0.185 C 
BRANCH  17  20
ATOM     20  C   UNL     1      -9.315  -5.709   8.494  0.00  0.00    +0.021 C 
ATOM     22  C   UNL     1     -10.681  -6.273   8.141  0.00  0.00    +0.005 C 
ENDBRANCH  17  20
ENDBRANCH   1  17
ENDBRANCH   6   1
TORSDOF 5
ENDMDL
MODEL 3
REMARK VINA RESULT:       5.2      0.480      1.053
REMARK  Name = 7143846
REMARK  7 active torsions:
REMARK  status: ('A' for Active; 'I' for Inactive)
REMARK    1  A    between atoms: S_1  and  N_6
REMARK    2  A    between atoms: S_1  and  C_17
REMARK    3  A    between atoms: S_2  and  C_27
REMARK    4  A    between atoms: S_2  and  C_28
REMARK    5  A    between atoms: C_17  and  C_20
REMARK    6  A    between atoms: C_18  and  C_21
REMARK    7  A    between atoms: C_20  and  C_22
REMARK                            x       y       z     vdW  Elec       q    Type
REMARK                         _______ _______ _______ _____ _____    ______ ____
ROOT
ATOM      5  O   UNL     1       0.263   2.239  25.733  0.00  0.00    -0.267 OA
ATOM      6  N   UNL     1      -4.695   2.216  25.218  0.00  0.00    -0.180 NA
ATOM      7  N   UNL     1      -1.675   2.948  24.648  0.00  0.00    -0.311 N 
ATOM      8  C   UNL     1      -3.492   4.317  25.825  0.00  0.00    +0.025 C 
ATOM      9  C   UNL     1      -3.763   3.708  23.461  0.00  0.00    +0.052 C 
ATOM     10  C   UNL     1      -3.769   4.881  24.437  0.00  0.00    +0.017 C 
ATOM     11  C   UNL     1      -4.582   3.309  26.225  0.00  0.00    +0.114 C 
ATOM     12  C   UNL     1      -4.893   2.727  23.829  0.00  0.00    +0.118 C 
ATOM     13  C   UNL     1      -2.089   3.700  25.841  0.00  0.00    +0.130 C 
ATOM     14  C   UNL     1      -2.423   2.996  23.469  0.00  0.00    +0.026 A 
ATOM     15  C   UNL     1      -1.968   2.397  22.358  0.00  0.00    +0.022 A 
ATOM     16  C   UNL     1      -0.441   2.273  24.722  0.00  0.00    +0.259 A 
ATOM     18  C   UNL     1       0.026   1.580  23.471  0.00  0.00    +0.047 A 
ATOM     19  C   UNL     1      -0.727   1.675  22.365  0.00  0.00    +0.015 A 
ENDROOT
BRANCH  18  21
ATOM     21  C   UNL     1       1.278   0.805  23.449  0.00  0.00    -0.013 A 
ATOM     23  C   UNL     1       2.493   1.446  23.205  0.00  0.00    +0.010 A 
ATOM     24  C   UNL     1       1.251  -0.573  23.674  0.00  0.00    +0.010 A 
ATOM     25  C   UNL     1       3.679   0.711  23.184  0.00  0.00    +0.015 A 
ATOM     26  C   UNL     1       2.436  -1.307  23.654  0.00  0.00    +0.015 A 
ATOM     27  C   UNL     1       3.651  -0.665  23.408  0.00  0.00    +0.008 A 
BRANCH  27   2
ATOM      2  S   UNL     1       5.165  -1.604  23.380  0.00  0.00    -0.129 S 
ATOM     28  C   UNL     1       6.410  -0.292  23.218  0.00  0.00    +0.090 C 
ENDBRANCH  27   2
ENDBRANCH  18  21
BRANCH   6   1
ATOM      1  S   UNL     1      -5.687   0.896  25.668  0.00  0.00    +0.032 S 
ATOM      3  O   UNL     1      -6.399   0.428  24.499  0.00  0.00    -0.158 OA
ATOM      4  O   UNL     1      -6.378   1.230  26.896  0.00  0.00    -0.158 OA
BRANCH   1  17
ATOM     17  C   UNL     1      -4.427  -0.290  26.055  0.00  0.00    +0.185 C 
BRANCH  17  20
ATOM     20  C   UNL     1      -3.904  -0.973  24.802  0.00  0.00    +0.021 C 
ATOM     22  C   UNL     1      -2.386  -0.960  24.753  0.00  0.00    +0.005 C 
ENDBRANCH  17  20
ENDBRANCH   1  17
ENDBRANCH   6   1
TORSDOF 5
ENDMDL
MODEL 4
REMARK VINA RESULT:       7.3      1.984      3.441
REMARK  Name = 7143846
REMARK  7 active torsions:
REMARK  status: ('A' for Active; 'I' for Inactive)
REMARK    1  A    between atoms: S_1  and  N_6
REMARK    2  A    between atoms: S_1  and  C_17
REMARK    3  A    between atoms: S_2  and  C_27
REMARK    4  A    between atoms: S_2  and  C_28
REMARK    5  A    between atoms: C_17  and  C_20
REMARK    6  A    between atoms: C_18  and  C_21
REMARK    7  A    between atoms: C_20  and  C_22
REMARK                            x       y       z     vdW  Elec       q    Type
REMARK                         _______ _______ _______ _____ _____    ______ ____
ROOT
ATOM      5  O   UNL     1      -0.861   1.277  22.211  0.00  0.00    -0.267 OA
ATOM      6  N   UNL     1      -4.268   2.740  25.542  0.00  0.00    -0.180 NA
ATOM      7  N   UNL     1      -2.526   0.790  23.770  0.00  0.00    -0.311 N 
ATOM      8  C   UNL     1      -4.958   1.535  23.468  0.00  0.00    +0.025 C 
ATOM      9  C   UNL     1      -4.313   0.256  25.463  0.00  0.00    +0.052 C 
ATOM     10  C   UNL     1      -5.292   0.298  24.292  0.00  0.00    +0.017 C 
ATOM     11  C   UNL     1      -5.114   2.808  24.316  0.00  0.00    +0.114 C 
ATOM     12  C   UNL     1      -4.510   1.504  26.344  0.00  0.00    +0.118 C 
ATOM     13  C   UNL     1      -3.545   1.384  22.893  0.00  0.00    +0.130 C 
ATOM     14  C   UNL     1      -2.879   0.177  24.974  0.00  0.00    +0.026 A 
ATOM     15  C   UNL     1      -1.949  -0.461  25.703  0.00  0.00    +0.022 A 
ATOM     16  C   UNL     1      -1.203   0.778  23.285  0.00  0.00    +0.259 A 
ATOM     18  C   UNL     1      -0.176   0.088  24.141  0.00  0.00    +0.047 A 
ATOM     19  C   UNL     1      -0.577  -0.498  25.279  0.00  0.00    +0.015 A 
ENDROOT
BRANCH  18  21
ATOM     21  C   UNL     1       1.244   0.056  23.753  0.00  0.00    -0.013 A 
ATOM     23  C   UNL     1       1.948  -1.149  23.776  0.00  0.00    +0.010 A 
ATOM     24  C   UNL     1       1.889   1.230  23.363  0.00  0.00    +0.010 A 
ATOM     25  C   UNL     1       3.293  -1.180  23.408  0.00  0.00    +0.015 A 
ATOM     26  C   UNL     1       3.233   1.200  22.995  0.00  0.00    +0.015 A 
ATOM     27  C   UNL     1       3.936  -0.005  23.019  0.00  0.00    +0.008 A 
BRANCH  27   2
ATOM      2  S   UNL     1       5.656  -0.043  22.551  0.00  0.00    -0.129 S 
ATOM     28  C   UNL     1       6.439  -0.651  24.072  0.00  0.00    +0.090 C 
ENDBRANCH  27   2
ENDBRANCH  18  21
BRANCH   6   1
ATOM      1  S   UNL     1      -4.152   4.193  26.440  0.00  0.00    +0.032 S 
ATOM      3  O   UNL     1      -3.884   3.865  27.823  0.00  0.00    -0.158 OA
ATOM      4  O   UNL     1      -5.245   5.063  26.063  0.00  0.00    -0.158 OA
BRANCH   1  17
ATOM     17  C   UNL     1      -2.662   4.847  25.733  0.00  0.00    +0.185 C 
BRANCH  17  20
ATOM     20  C   UNL     1      -1.610   3.764  25.558  0.00  0.00    +0.021 C 
ATOM     22  C   UNL     1      -0.507   4.209  24.613  0.00  0.00    +0.005 C 
ENDBRANCH  17  20
ENDBRANCH   1  17
ENDBRANCH   6   1
TORSDOF 5
ENDMDL
