MODEL 1
REMARK VINA RESULT:      -3.1      0.000      0.000
REMARK  Name = 7114655
REMARK  12 active torsions:
REMARK  status: ('A' for Active; 'I' for Inactive)
REMARK    1  A    between atoms: S_1  and  N_14
REMARK    2  A    between atoms: S_1  and  C_28
REMARK    3  A    between atoms: O_4  and  C_26
REMARK    4  A    between atoms: O_4  and  C_30
REMARK    5  A    between atoms: O_9  and  C_27
REMARK    6  A    between atoms: O_9  and  C_31
REMARK    7  A    between atoms: O_10  and  C_34
REMARK    8  A    between atoms: N_14  and  C_16
REMARK    9  A    between atoms: C_15  and  C_21
REMARK   10  A    between atoms: C_20  and  C_26
REMARK   11  A    between atoms: C_25  and  C_27
REMARK   12  A    between atoms: C_31  and  C_34
REMARK                            x       y       z     vdW  Elec       q    Type
REMARK                         _______ _______ _______ _____ _____    ______ ____
ROOT
ATOM      5  O   UNL     1      -3.021   4.472  26.547  0.00  0.00    -0.273 OA
ATOM     12  N   UNL     1      -2.160   2.958  25.000  0.00  0.00    -0.288 N 
ATOM     15  C   UNL     1      -2.307   2.183  23.756  0.00  0.00    +0.164 C 
ATOM     16  C   UNL     1       0.147   1.509  23.969  0.00  0.00    +0.080 C 
ATOM     17  C   UNL     1      -0.978   1.952  23.033  0.00  0.00    +0.052 C 
ATOM     18  C   UNL     1       0.266   2.462  25.153  0.00  0.00    +0.039 C 
ATOM     19  C   UNL     1      -1.062   2.569  25.892  0.00  0.00    +0.110 C 
ATOM     25  C   UNL     1      -3.075   3.921  25.443  0.00  0.00    +0.242 C 
ENDROOT
BRANCH  15  21
ATOM      3  O   UNL     1      -4.043   0.572  23.588  0.00  0.00    -0.274 OA
ATOM     13  N   UNL     1      -2.324   0.125  25.072  0.00  0.00    -0.286 N 
ATOM     20  C   UNL     1      -2.915  -1.071  25.657  0.00  0.00    +0.185 C 
ATOM     21  C   UNL     1      -2.982   0.894  24.124  0.00  0.00    +0.237 C 
ATOM     22  C   UNL     1      -1.066   0.468  25.731  0.00  0.00    +0.109 C 
ATOM     23  C   UNL     1      -2.108  -1.321  26.926  0.00  0.00    +0.035 C 
ATOM     24  C   UNL     1      -0.736  -0.742  26.593  0.00  0.00    +0.021 C 
BRANCH  20  26
ATOM      6  O   UNL     1      -1.715  -2.391  24.041  0.00  0.00    -0.249 OA
ATOM     26  C   UNL     1      -2.747  -2.179  24.662  0.00  0.00    +0.328 C 
BRANCH  26   4
ATOM      4  O   UNL     1      -3.907  -2.890  24.571  0.00  0.00    -0.467 OA
ATOM     30  C   UNL     1      -4.709  -2.613  23.418  0.00  0.00    +0.280 C 
ENDBRANCH  26   4
ENDBRANCH  20  26
ENDBRANCH  15  21
BRANCH  16  14
ATOM     14  N   UNL     1       1.428   1.488  23.220  0.00  0.00    -0.186 NA
ATOM     35  H   UNL     1       2.082   2.258  23.404  0.00  0.00    +0.148 HD
BRANCH  14   1
ATOM      1  S   UNL     1       2.038  -0.030  22.726  0.00  0.00    +0.065 S 
ATOM      7  O   UNL     1       2.027  -0.107  21.279  0.00  0.00    -0.153 OA
ATOM      8  O   UNL     1       1.434  -1.066  23.542  0.00  0.00    -0.153 OA
BRANCH   1  28
ATOM      2  S   UNL     1       4.277  -1.558  23.901  0.00  0.00    -0.077 S 
ATOM     28  C   UNL     1       3.768  -0.083  23.194  0.00  0.00    +0.142 A 
ATOM     29  C   UNL     1       4.798   0.828  23.103  0.00  0.00    +0.036 A 
ATOM     32  C   UNL     1       6.019   0.309  23.622  0.00  0.00    +0.010 A 
ATOM     33  C   UNL     1       5.877  -0.979  24.088  0.00  0.00    +0.047 A 
ENDBRANCH   1  28
ENDBRANCH  14   1
ENDBRANCH  16  14
BRANCH  25  27
ATOM     27  C   UNL     1      -4.181   4.298  24.489  0.00  0.00    +0.256 C 
BRANCH  27   9
ATOM      9  O   UNL     1      -5.392   4.059  25.163  0.00  0.00    -0.359 OA
BRANCH   9  31
ATOM     31  C   UNL     1      -5.307   2.930  26.031  0.00  0.00    +0.280 C 
BRANCH  31  34
ATOM     11  O   UNL     1      -6.818   1.656  24.615  0.00  0.00    -0.248 OA
ATOM     34  C   UNL     1      -6.427   1.971  25.730  0.00  0.00    +0.331 C 
BRANCH  34  10
ATOM     10  O   UNL     1      -6.957   1.493  26.882  0.00  0.00    -0.479 OA
ATOM     36  H   UNL     1      -7.813   1.038  26.732  0.00  0.00    +0.295 HD
ENDBRANCH  34  10
ENDBRANCH  31  34
ENDBRANCH   9  31
ENDBRANCH  27   9
ENDBRANCH  25  27
TORSDOF 11
ENDMDL
MODEL 2
REMARK VINA RESULT:      -1.5      1.397      4.192
REMARK  Name = 7114655
REMARK  12 active torsions:
REMARK  status: ('A' for Active; 'I' for Inactive)
REMARK    1  A    between atoms: S_1  and  N_14
REMARK    2  A    between atoms: S_1  and  C_28
REMARK    3  A    between atoms: O_4  and  C_26
REMARK    4  A    between atoms: O_4  and  C_30
REMARK    5  A    between atoms: O_9  and  C_27
REMARK    6  A    between atoms: O_9  and  C_31
REMARK    7  A    between atoms: O_10  and  C_34
REMARK    8  A    between atoms: N_14  and  C_16
REMARK    9  A    between atoms: C_15  and  C_21
REMARK   10  A    between atoms: C_20  and  C_26
REMARK   11  A    between atoms: C_25  and  C_27
REMARK   12  A    between atoms: C_31  and  C_34
REMARK                            x       y       z     vdW  Elec       q    Type
REMARK                         _______ _______ _______ _____ _____    ______ ____
ROOT
ATOM      5  O   UNL     1      -1.734  -2.717  24.630  0.00  0.00    -0.273 OA
ATOM     12  N   UNL     1      -0.895  -0.548  24.511  0.00  0.00    -0.288 N 
ATOM     15  C   UNL     1      -0.863   0.836  25.013  0.00  0.00    +0.164 C 
ATOM     16  C   UNL     1       1.122   1.277  23.469  0.00  0.00    +0.080 C 
ATOM     17  C   UNL     1       0.505   1.503  24.849  0.00  0.00    +0.052 C 
ATOM     18  C   UNL     1       1.133  -0.209  23.123  0.00  0.00    +0.039 C 
ATOM     19  C   UNL     1      -0.273  -0.788  23.204  0.00  0.00    +0.110 C 
ATOM     25  C   UNL     1      -1.598  -1.593  25.122  0.00  0.00    +0.242 C 
ENDROOT
BRANCH  15  21
ATOM      3  O   UNL     1      -2.340   1.203  23.190  0.00  0.00    -0.274 OA
ATOM     13  N   UNL     1      -2.450   2.693  24.958  0.00  0.00    -0.286 N 
ATOM     20  C   UNL     1      -3.387   3.620  24.338  0.00  0.00    +0.185 C 
ATOM     21  C   UNL     1      -1.946   1.585  24.292  0.00  0.00    +0.237 C 
ATOM     22  C   UNL     1      -2.013   3.180  26.264  0.00  0.00    +0.109 C 
ATOM     23  C   UNL     1      -3.312   4.877  25.196  0.00  0.00    +0.035 C 
ATOM     24  C   UNL     1      -2.942   4.344  26.576  0.00  0.00    +0.021 C 
BRANCH  20  26
ATOM      6  O   UNL     1      -5.152   2.163  23.588  0.00  0.00    -0.249 OA
ATOM     26  C   UNL     1      -4.743   2.984  24.398  0.00  0.00    +0.328 C 
BRANCH  26   4
ATOM      4  O   UNL     1      -5.422   3.462  25.479  0.00  0.00    -0.467 OA
ATOM     30  C   UNL     1      -6.127   2.480  26.246  0.00  0.00    +0.280 C 
ENDBRANCH  26   4
ENDBRANCH  20  26
ENDBRANCH  15  21
BRANCH  16  14
ATOM     14  N   UNL     1       2.513   1.795  23.463  0.00  0.00    -0.186 NA
ATOM     35  H   UNL     1       2.882   2.136  24.359  0.00  0.00    +0.148 HD
BRANCH  14   1
ATOM      1  S   UNL     1       3.593   1.168  22.296  0.00  0.00    +0.065 S 
ATOM      7  O   UNL     1       4.367   2.251  21.723  0.00  0.00    -0.153 OA
ATOM      8  O   UNL     1       2.880   0.224  21.458  0.00  0.00    -0.153 OA
BRANCH   1  28
ATOM      2  S   UNL     1       4.160  -1.351  23.730  0.00  0.00    -0.077 S 
ATOM     28  C   UNL     1       4.778   0.143  23.168  0.00  0.00    +0.142 A 
ATOM     29  C   UNL     1       6.109   0.306  23.489  0.00  0.00    +0.036 A 
ATOM     32  C   UNL     1       6.626  -0.811  24.206  0.00  0.00    +0.010 A 
ATOM     33  C   UNL     1       5.673  -1.785  24.405  0.00  0.00    +0.047 A 
ENDBRANCH   1  28
ENDBRANCH  14   1
ENDBRANCH  16  14
BRANCH  25  27
ATOM     27  C   UNL     1      -2.211  -1.304  26.470  0.00  0.00    +0.256 C 
BRANCH  27   9
ATOM      9  O   UNL     1      -3.588  -1.567  26.350  0.00  0.00    -0.359 OA
BRANCH   9  31
ATOM     31  C   UNL     1      -4.216  -0.708  25.399  0.00  0.00    +0.280 C 
BRANCH  31  34
ATOM     11  O   UNL     1      -4.753  -2.603  23.975  0.00  0.00    -0.248 OA
ATOM     34  C   UNL     1      -4.401  -1.439  24.097  0.00  0.00    +0.331 C 
BRANCH  34  10
ATOM     10  O   UNL     1      -4.120  -0.619  23.055  0.00  0.00    -0.479 OA
ATOM     36  H   UNL     1      -4.489   0.281  23.186  0.00  0.00    +0.295 HD
ENDBRANCH  34  10
ENDBRANCH  31  34
ENDBRANCH   9  31
ENDBRANCH  27   9
ENDBRANCH  25  27
TORSDOF 11
ENDMDL
MODEL 3
REMARK VINA RESULT:      -0.8      2.774      7.247
REMARK  Name = 7114655
REMARK  12 active torsions:
REMARK  status: ('A' for Active; 'I' for Inactive)
REMARK    1  A    between atoms: S_1  and  N_14
REMARK    2  A    between atoms: S_1  and  C_28
REMARK    3  A    between atoms: O_4  and  C_26
REMARK    4  A    between atoms: O_4  and  C_30
REMARK    5  A    between atoms: O_9  and  C_27
REMARK    6  A    between atoms: O_9  and  C_31
REMARK    7  A    between atoms: O_10  and  C_34
REMARK    8  A    between atoms: N_14  and  C_16
REMARK    9  A    between atoms: C_15  and  C_21
REMARK   10  A    between atoms: C_20  and  C_26
REMARK   11  A    between atoms: C_25  and  C_27
REMARK   12  A    between atoms: C_31  and  C_34
REMARK                            x       y       z     vdW  Elec       q    Type
REMARK                         _______ _______ _______ _____ _____    ______ ____
ROOT
ATOM      5  O   UNL     1       2.877   0.705  22.200  0.00  0.00    -0.273 OA
ATOM     12  N   UNL     1       1.097   0.926  23.684  0.00  0.00    -0.288 N 
ATOM     15  C   UNL     1       0.251   0.368  24.753  0.00  0.00    +0.164 C 
ATOM     16  C   UNL     1      -0.836   2.665  24.998  0.00  0.00    +0.080 C 
ATOM     17  C   UNL     1      -0.284   1.432  25.714  0.00  0.00    +0.052 C 
ATOM     18  C   UNL     1       0.185   3.210  24.004  0.00  0.00    +0.039 C 
ATOM     19  C   UNL     1       0.598   2.131  23.012  0.00  0.00    +0.110 C 
ATOM     25  C   UNL     1       2.246   0.304  23.182  0.00  0.00    +0.242 C 
ENDROOT
BRANCH  15  21
ATOM      3  O   UNL     1      -0.812  -0.613  22.869  0.00  0.00    -0.274 OA
ATOM     13  N   UNL     1      -1.881  -0.815  24.912  0.00  0.00    -0.286 N 
ATOM     20  C   UNL     1      -3.103  -1.423  24.402  0.00  0.00    +0.185 C 
ATOM     21  C   UNL     1      -0.855  -0.392  24.080  0.00  0.00    +0.237 C 
ATOM     22  C   UNL     1      -1.972  -0.576  26.350  0.00  0.00    +0.109 C 
ATOM     23  C   UNL     1      -4.102  -1.301  25.546  0.00  0.00    +0.035 C 
ATOM     24  C   UNL     1      -3.221  -1.325  26.791  0.00  0.00    +0.021 C 
BRANCH  20  26
ATOM      6  O   UNL     1      -1.652  -3.291  23.951  0.00  0.00    -0.249 OA
ATOM     26  C   UNL     1      -2.786  -2.854  24.087  0.00  0.00    +0.328 C 
BRANCH  26   4
ATOM      4  O   UNL     1      -3.946  -3.564  23.983  0.00  0.00    -0.467 OA
ATOM     30  C   UNL     1      -4.983  -2.938  23.219  0.00  0.00    +0.280 C 
ENDBRANCH  26   4
ENDBRANCH  20  26
ENDBRANCH  15  21
BRANCH  16  14
ATOM     14  N   UNL     1      -1.158   3.711  26.000  0.00  0.00    -0.186 NA
ATOM     35  H   UNL     1      -0.363   4.219  26.409  0.00  0.00    +0.148 HD
BRANCH  14   1
ATOM      1  S   UNL     1      -2.677   4.486  25.884  0.00  0.00    +0.065 S 
ATOM      7  O   UNL     1      -2.601   5.555  24.908  0.00  0.00    -0.153 OA
ATOM      8  O   UNL     1      -3.186   4.720  27.222  0.00  0.00    -0.153 OA
BRANCH   1  28
ATOM      2  S   UNL     1      -5.342   3.218  25.997  0.00  0.00    -0.077 S 
ATOM     28  C   UNL     1      -3.829   3.295  25.199  0.00  0.00    +0.142 A 
ATOM     29  C   UNL     1      -3.754   2.410  24.145  0.00  0.00    +0.036 A 
ATOM     32  C   UNL     1      -4.955   1.659  23.992  0.00  0.00    +0.010 A 
ATOM     33  C   UNL     1      -5.902   1.999  24.932  0.00  0.00    +0.047 A 
ENDBRANCH   1  28
ENDBRANCH  14   1
ENDBRANCH  16  14
BRANCH  25  27
ATOM     27  C   UNL     1       2.729  -0.926  23.912  0.00  0.00    +0.256 C 
BRANCH  27   9
ATOM      9  O   UNL     1       3.840  -1.406  23.196  0.00  0.00    -0.359 OA
BRANCH   9  31
ATOM     31  C   UNL     1       5.021  -1.434  23.996  0.00  0.00    +0.280 C 
BRANCH  31  34
ATOM     11  O   UNL     1       6.871  -0.160  23.068  0.00  0.00    -0.248 OA
ATOM     34  C   UNL     1       5.845  -0.204  23.730  0.00  0.00    +0.331 C 
BRANCH  34  10
ATOM     10  O   UNL     1       5.286   0.873  24.335  0.00  0.00    -0.479 OA
ATOM     36  H   UNL     1       5.312   1.670  23.763  0.00  0.00    +0.295 HD
ENDBRANCH  34  10
ENDBRANCH  31  34
ENDBRANCH   9  31
ENDBRANCH  27   9
ENDBRANCH  25  27
TORSDOF 11
ENDMDL
MODEL 4
REMARK VINA RESULT:      -0.7      1.436      4.083
REMARK  Name = 7114655
REMARK  12 active torsions:
REMARK  status: ('A' for Active; 'I' for Inactive)
REMARK    1  A    between atoms: S_1  and  N_14
REMARK    2  A    between atoms: S_1  and  C_28
REMARK    3  A    between atoms: O_4  and  C_26
REMARK    4  A    between atoms: O_4  and  C_30
REMARK    5  A    between atoms: O_9  and  C_27
REMARK    6  A    between atoms: O_9  and  C_31
REMARK    7  A    between atoms: O_10  and  C_34
REMARK    8  A    between atoms: N_14  and  C_16
REMARK    9  A    between atoms: C_15  and  C_21
REMARK   10  A    between atoms: C_20  and  C_26
REMARK   11  A    between atoms: C_25  and  C_27
REMARK   12  A    between atoms: C_31  and  C_34
REMARK                            x       y       z     vdW  Elec       q    Type
REMARK                         _______ _______ _______ _____ _____    ______ ____
ROOT
ATOM      5  O   UNL     1      -4.204  -2.601  24.587  0.00  0.00    -0.273 OA
ATOM     12  N   UNL     1      -2.405  -1.127  24.469  0.00  0.00    -0.288 N 
ATOM     15  C   UNL     1      -1.705   0.073  24.958  0.00  0.00    +0.164 C 
ATOM     16  C   UNL     1       0.267  -0.550  23.461  0.00  0.00    +0.080 C 
ATOM     17  C   UNL     1      -0.184  -0.021  24.823  0.00  0.00    +0.052 C 
ATOM     18  C   UNL     1      -0.448  -1.856  23.130  0.00  0.00    +0.039 C 
ATOM     19  C   UNL     1      -1.959  -1.669  23.180  0.00  0.00    +0.110 C 
ATOM     25  C   UNL     1      -3.542  -1.678  25.071  0.00  0.00    +0.242 C 
ENDROOT
BRANCH  15  21
ATOM      3  O   UNL     1      -2.793   1.078  23.102  0.00  0.00    -0.274 OA
ATOM     13  N   UNL     1      -2.156   2.471  24.837  0.00  0.00    -0.286 N 
ATOM     20  C   UNL     1      -2.503   3.725  24.181  0.00  0.00    +0.185 C 
ATOM     21  C   UNL     1      -2.267   1.243  24.203  0.00  0.00    +0.237 C 
ATOM     22  C   UNL     1      -1.541   2.711  26.141  0.00  0.00    +0.109 C 
ATOM     23  C   UNL     1      -1.816   4.800  25.014  0.00  0.00    +0.035 C 
ATOM     24  C   UNL     1      -1.768   4.190  26.412  0.00  0.00    +0.021 C 
BRANCH  20  26
ATOM      6  O   UNL     1      -4.740   3.554  23.306  0.00  0.00    -0.249 OA
ATOM     26  C   UNL     1      -3.996   3.850  24.230  0.00  0.00    +0.328 C 
BRANCH  26   4
ATOM      4  O   UNL     1      -4.372   4.337  25.448  0.00  0.00    -0.467 OA
ATOM     30  C   UNL     1      -5.662   4.957  25.491  0.00  0.00    +0.280 C 
ENDBRANCH  26   4
ENDBRANCH  20  26
ENDBRANCH  15  21
BRANCH  16  14
ATOM     14  N   UNL     1       1.733  -0.782  23.486  0.00  0.00    -0.186 NA
ATOM     35  H   UNL     1       2.045  -1.759  23.547  0.00  0.00    +0.148 HD
BRANCH  14   1
ATOM      1  S   UNL     1       2.736   0.372  22.721  0.00  0.00    +0.065 S 
ATOM      7  O   UNL     1       2.390   1.699  23.192  0.00  0.00    -0.153 OA
ATOM      8  O   UNL     1       2.804   0.067  21.305  0.00  0.00    -0.153 OA
BRANCH   1  28
ATOM      2  S   UNL     1       4.704  -1.499  23.882  0.00  0.00    -0.077 S 
ATOM     28  C   UNL     1       4.409   0.083  23.294  0.00  0.00    +0.142 A 
ATOM     29  C   UNL     1       5.533   0.878  23.364  0.00  0.00    +0.036 A 
ATOM     32  C   UNL     1       6.649   0.179  23.908  0.00  0.00    +0.010 A 
ATOM     33  C   UNL     1       6.338  -1.122  24.232  0.00  0.00    +0.047 A 
ENDBRANCH   1  28
ENDBRANCH  14   1
ENDBRANCH  16  14
BRANCH  25  27
ATOM     27  C   UNL     1      -3.957  -1.098  26.401  0.00  0.00    +0.256 C 
BRANCH  27   9
ATOM      9  O   UNL     1      -4.266   0.255  26.169  0.00  0.00    -0.359 OA
BRANCH   9  31
ATOM     31  C   UNL     1      -5.345   0.407  25.247  0.00  0.00    +0.280 C 
BRANCH  31  34
ATOM     11  O   UNL     1      -6.333   1.943  26.851  0.00  0.00    -0.248 OA
ATOM     34  C   UNL     1      -6.258   1.509  25.711  0.00  0.00    +0.331 C 
BRANCH  34  10
ATOM     10  O   UNL     1      -7.001   1.969  24.674  0.00  0.00    -0.479 OA
ATOM     36  H   UNL     1      -7.953   1.755  24.782  0.00  0.00    +0.295 HD
ENDBRANCH  34  10
ENDBRANCH  31  34
ENDBRANCH   9  31
ENDBRANCH  27   9
ENDBRANCH  25  27
TORSDOF 11
ENDMDL
MODEL 5
REMARK VINA RESULT:      -0.3      1.453      2.209
REMARK  Name = 7114655
REMARK  12 active torsions:
REMARK  status: ('A' for Active; 'I' for Inactive)
REMARK    1  A    between atoms: S_1  and  N_14
REMARK    2  A    between atoms: S_1  and  C_28
REMARK    3  A    between atoms: O_4  and  C_26
REMARK    4  A    between atoms: O_4  and  C_30
REMARK    5  A    between atoms: O_9  and  C_27
REMARK    6  A    between atoms: O_9  and  C_31
REMARK    7  A    between atoms: O_10  and  C_34
REMARK    8  A    between atoms: N_14  and  C_16
REMARK    9  A    between atoms: C_15  and  C_21
REMARK   10  A    between atoms: C_20  and  C_26
REMARK   11  A    between atoms: C_25  and  C_27
REMARK   12  A    between atoms: C_31  and  C_34
REMARK                            x       y       z     vdW  Elec       q    Type
REMARK                         _______ _______ _______ _____ _____    ______ ____
ROOT
ATOM      5  O   UNL     1      -3.293   4.546  24.527  0.00  0.00    -0.273 OA
ATOM     12  N   UNL     1      -1.846   2.772  24.099  0.00  0.00    -0.288 N 
ATOM     15  C   UNL     1      -1.613   1.412  23.583  0.00  0.00    +0.164 C 
ATOM     16  C   UNL     1       0.893   1.802  23.885  0.00  0.00    +0.080 C 
ATOM     17  C   UNL     1      -0.211   1.223  22.998  0.00  0.00    +0.052 C 
ATOM     18  C   UNL     1       0.584   3.250  24.249  0.00  0.00    +0.039 C 
ATOM     19  C   UNL     1      -0.779   3.356  24.921  0.00  0.00    +0.110 C 
ATOM     25  C   UNL     1      -3.057   3.464  23.980  0.00  0.00    +0.242 C 
ENDROOT
BRANCH  15  21
ATOM      3  O   UNL     1      -1.334   0.624  25.806  0.00  0.00    -0.274 OA
ATOM     13  N   UNL     1      -2.782  -0.555  24.438  0.00  0.00    -0.286 N 
ATOM     20  C   UNL     1      -3.036  -1.648  25.367  0.00  0.00    +0.185 C 
ATOM     21  C   UNL     1      -1.884   0.465  24.716  0.00  0.00    +0.237 C 
ATOM     22  C   UNL     1      -3.457  -0.780  23.162  0.00  0.00    +0.109 C 
ATOM     23  C   UNL     1      -3.684  -2.735  24.517  0.00  0.00    +0.035 C 
ATOM     24  C   UNL     1      -4.394  -1.950  23.418  0.00  0.00    +0.021 C 
BRANCH  20  26
ATOM      6  O   UNL     1      -4.876  -0.334  26.195  0.00  0.00    -0.249 OA
ATOM     26  C   UNL     1      -3.973  -1.128  26.416  0.00  0.00    +0.328 C 
BRANCH  26   4
ATOM      4  O   UNL     1      -3.654  -1.676  27.623  0.00  0.00    -0.467 OA
ATOM     30  C   UNL     1      -2.256  -1.727  27.925  0.00  0.00    +0.280 C 
ENDBRANCH  26   4
ENDBRANCH  20  26
ENDBRANCH  15  21
BRANCH  16  14
ATOM     14  N   UNL     1       2.186   1.739  23.159  0.00  0.00    -0.186 NA
ATOM     35  H   UNL     1       2.886   2.451  23.403  0.00  0.00    +0.148 HD
BRANCH  14   1
ATOM      1  S   UNL     1       2.705   0.216  22.583  0.00  0.00    +0.065 S 
ATOM      7  O   UNL     1       2.917   0.289  21.151  0.00  0.00    -0.153 OA
ATOM      8  O   UNL     1       1.872  -0.815  23.171  0.00  0.00    -0.153 OA
BRANCH   1  28
ATOM      2  S   UNL     1       4.571  -1.700  23.835  0.00  0.00    -0.077 S 
ATOM     28  C   UNL     1       4.322  -0.096  23.290  0.00  0.00    +0.142 A 
ATOM     29  C   UNL     1       5.431   0.697  23.493  0.00  0.00    +0.036 A 
ATOM     32  C   UNL     1       6.498  -0.023  24.105  0.00  0.00    +0.010 A 
ATOM     33  C   UNL     1       6.165  -1.337  24.344  0.00  0.00    +0.047 A 
ENDBRANCH   1  28
ENDBRANCH  14   1
ENDBRANCH  16  14
BRANCH  25  27
ATOM     27  C   UNL     1      -4.120   2.832  23.117  0.00  0.00    +0.256 C 
BRANCH  27   9
ATOM      9  O   UNL     1      -5.001   2.165  23.988  0.00  0.00    -0.359 OA
BRANCH   9  31
ATOM     31  C   UNL     1      -4.703   2.433  25.358  0.00  0.00    +0.280 C 
BRANCH  31  34
ATOM     11  O   UNL     1      -6.291   4.222  25.790  0.00  0.00    -0.248 OA
ATOM     34  C   UNL     1      -5.885   3.091  26.016  0.00  0.00    +0.331 C 
BRANCH  34  10
ATOM     10  O   UNL     1      -6.453   2.246  26.911  0.00  0.00    -0.479 OA
ATOM     36  H   UNL     1      -5.962   2.227  27.760  0.00  0.00    +0.295 HD
ENDBRANCH  34  10
ENDBRANCH  31  34
ENDBRANCH   9  31
ENDBRANCH  27   9
ENDBRANCH  25  27
TORSDOF 11
ENDMDL
MODEL 6
REMARK VINA RESULT:       0.2      3.014      7.725
REMARK  Name = 7114655
REMARK  12 active torsions:
REMARK  status: ('A' for Active; 'I' for Inactive)
REMARK    1  A    between atoms: S_1  and  N_14
REMARK    2  A    between atoms: S_1  and  C_28
REMARK    3  A    between atoms: O_4  and  C_26
REMARK    4  A    between atoms: O_4  and  C_30
REMARK    5  A    between atoms: O_9  and  C_27
REMARK    6  A    between atoms: O_9  and  C_31
REMARK    7  A    between atoms: O_10  and  C_34
REMARK    8  A    between atoms: N_14  and  C_16
REMARK    9  A    between atoms: C_15  and  C_21
REMARK   10  A    between atoms: C_20  and  C_26
REMARK   11  A    between atoms: C_25  and  C_27
REMARK   12  A    between atoms: C_31  and  C_34
REMARK                            x       y       z     vdW  Elec       q    Type
REMARK                         _______ _______ _______ _____ _____    ______ ____
ROOT
ATOM      5  O   UNL     1      -0.436  -3.007  23.763  0.00  0.00    -0.273 OA
ATOM     12  N   UNL     1      -1.810  -1.166  24.147  0.00  0.00    -0.288 N 
ATOM     15  C   UNL     1      -2.075   0.277  24.018  0.00  0.00    +0.164 C 
ATOM     16  C   UNL     1      -4.425  -0.142  24.923  0.00  0.00    +0.080 C 
ATOM     17  C   UNL     1      -3.564   0.608  23.906  0.00  0.00    +0.052 C 
ATOM     18  C   UNL     1      -4.135  -1.639  24.871  0.00  0.00    +0.039 C 
ATOM     19  C   UNL     1      -2.653  -1.908  25.093  0.00  0.00    +0.110 C 
ATOM     25  C   UNL     1      -0.732  -1.828  23.548  0.00  0.00    +0.242 C 
ENDROOT
BRANCH  15  21
ATOM      3  O   UNL     1      -1.340   0.346  26.275  0.00  0.00    -0.274 OA
ATOM     13  N   UNL     1      -0.972   2.232  24.983  0.00  0.00    -0.286 N 
ATOM     20  C   UNL     1      -0.473   3.077  26.059  0.00  0.00    +0.185 C 
ATOM     21  C   UNL     1      -1.436   0.943  25.202  0.00  0.00    +0.237 C 
ATOM     22  C   UNL     1      -1.065   2.974  23.728  0.00  0.00    +0.109 C 
ATOM     23  C   UNL     1      -0.517   4.491  25.492  0.00  0.00    +0.035 C 
ATOM     24  C   UNL     1      -0.327   4.279  23.993  0.00  0.00    +0.021 C 
BRANCH  20  26
ATOM      6  O   UNL     1       1.616   1.978  25.583  0.00  0.00    -0.249 OA
ATOM     26  C   UNL     1       0.930   2.637  26.352  0.00  0.00    +0.328 C 
BRANCH  26   4
ATOM      4  O   UNL     1       1.300   3.085  27.585  0.00  0.00    -0.467 OA
ATOM     30  C   UNL     1       0.850   2.290  28.688  0.00  0.00    +0.280 C 
ENDBRANCH  26   4
ENDBRANCH  20  26
ENDBRANCH  15  21
BRANCH  16  14
ATOM     14  N   UNL     1      -5.858   0.095  24.623  0.00  0.00    -0.186 NA
ATOM     35  H   UNL     1      -6.451  -0.737  24.516  0.00  0.00    +0.148 HD
BRANCH  14   1
ATOM      1  S   UNL     1      -6.556   1.557  25.169  0.00  0.00    +0.065 S 
ATOM      7  O   UNL     1      -6.805   1.469  26.595  0.00  0.00    -0.153 OA
ATOM      8  O   UNL     1      -7.600   1.952  24.243  0.00  0.00    -0.153 OA
BRANCH   1  28
ATOM      2  S   UNL     1      -4.687   3.453  26.448  0.00  0.00    -0.077 S 
ATOM     28  C   UNL     1      -5.318   2.839  24.978  0.00  0.00    +0.142 A 
ATOM     29  C   UNL     1      -4.753   3.448  23.879  0.00  0.00    +0.036 A 
ATOM     32  C   UNL     1      -3.791   4.432  24.248  0.00  0.00    +0.010 A 
ATOM     33  C   UNL     1      -3.656   4.537  25.615  0.00  0.00    +0.047 A 
ENDBRANCH   1  28
ENDBRANCH  14   1
ENDBRANCH  16  14
BRANCH  25  27
ATOM     27  C   UNL     1       0.100  -1.030  22.573  0.00  0.00    +0.256 C 
BRANCH  27   9
ATOM      9  O   UNL     1       1.226  -0.577  23.284  0.00  0.00    -0.359 OA
BRANCH   9  31
ATOM     31  C   UNL     1       2.176   0.060  22.432  0.00  0.00    +0.280 C 
BRANCH  31  34
ATOM     11  O   UNL     1       4.261   1.054  23.189  0.00  0.00    -0.248 OA
ATOM     34  C   UNL     1       3.523   0.083  23.100  0.00  0.00    +0.331 C 
BRANCH  34  10
ATOM     10  O   UNL     1       3.818  -1.141  23.602  0.00  0.00    -0.479 OA
ATOM     36  H   UNL     1       4.558  -1.105  24.246  0.00  0.00    +0.295 HD
ENDBRANCH  34  10
ENDBRANCH  31  34
ENDBRANCH   9  31
ENDBRANCH  27   9
ENDBRANCH  25  27
TORSDOF 11
ENDMDL
MODEL 7
REMARK VINA RESULT:       0.2      3.308      6.545
REMARK  Name = 7114655
REMARK  12 active torsions:
REMARK  status: ('A' for Active; 'I' for Inactive)
REMARK    1  A    between atoms: S_1  and  N_14
REMARK    2  A    between atoms: S_1  and  C_28
REMARK    3  A    between atoms: O_4  and  C_26
REMARK    4  A    between atoms: O_4  and  C_30
REMARK    5  A    between atoms: O_9  and  C_27
REMARK    6  A    between atoms: O_9  and  C_31
REMARK    7  A    between atoms: O_10  and  C_34
REMARK    8  A    between atoms: N_14  and  C_16
REMARK    9  A    between atoms: C_15  and  C_21
REMARK   10  A    between atoms: C_20  and  C_26
REMARK   11  A    between atoms: C_25  and  C_27
REMARK   12  A    between atoms: C_31  and  C_34
REMARK                            x       y       z     vdW  Elec       q    Type
REMARK                         _______ _______ _______ _____ _____    ______ ____
ROOT
ATOM      5  O   UNL     1       0.656   4.798  25.672  0.00  0.00    -0.273 OA
ATOM     12  N   UNL     1      -1.141   3.375  25.260  0.00  0.00    -0.288 N 
ATOM     15  C   UNL     1      -1.749   2.035  25.329  0.00  0.00    +0.164 C 
ATOM     16  C   UNL     1      -3.951   3.069  24.555  0.00  0.00    +0.080 C 
ATOM     17  C   UNL     1      -3.270   2.072  25.493  0.00  0.00    +0.052 C 
ATOM     18  C   UNL     1      -3.300   4.444  24.669  0.00  0.00    +0.039 C 
ATOM     19  C   UNL     1      -1.805   4.355  24.393  0.00  0.00    +0.110 C 
ATOM     25  C   UNL     1       0.086   3.716  25.842  0.00  0.00    +0.242 C 
ENDROOT
BRANCH  15  21
ATOM      3  O   UNL     1      -1.473   1.829  22.979  0.00  0.00    -0.274 OA
ATOM     13  N   UNL     1      -0.788   0.046  24.285  0.00  0.00    -0.286 N 
ATOM     20  C   UNL     1      -0.480  -0.859  23.186  0.00  0.00    +0.185 C 
ATOM     21  C   UNL     1      -1.333   1.305  24.085  0.00  0.00    +0.237 C 
ATOM     22  C   UNL     1      -0.603  -0.612  25.577  0.00  0.00    +0.109 C 
ATOM     23  C   UNL     1      -0.359  -2.232  23.837  0.00  0.00    +0.035 C 
ATOM     24  C   UNL     1       0.115  -1.914  25.252  0.00  0.00    +0.021 C 
BRANCH  20  26
ATOM      6  O   UNL     1       1.213  -0.724  21.479  0.00  0.00    -0.249 OA
ATOM     26  C   UNL     1       0.820  -0.406  22.592  0.00  0.00    +0.328 C 
BRANCH  26   4
ATOM      4  O   UNL     1       1.470   0.397  23.482  0.00  0.00    -0.467 OA
ATOM     30  C   UNL     1       2.783   0.813  23.089  0.00  0.00    +0.280 C 
ENDBRANCH  26   4
ENDBRANCH  20  26
ENDBRANCH  15  21
BRANCH  16  14
ATOM     14  N   UNL     1      -5.388   3.172  24.909  0.00  0.00    -0.186 NA
ATOM     35  H   UNL     1      -5.914   3.946  24.484  0.00  0.00    +0.148 HD
BRANCH  14   1
ATOM      1  S   UNL     1      -6.210   1.733  25.332  0.00  0.00    +0.065 S 
ATOM      7  O   UNL     1      -7.400   1.599  24.516  0.00  0.00    -0.153 OA
ATOM      8  O   UNL     1      -6.271   1.638  26.778  0.00  0.00    -0.153 OA
BRANCH   1  28
ATOM      2  S   UNL     1      -4.468  -0.497  26.178  0.00  0.00    -0.077 S 
ATOM     28  C   UNL     1      -5.153   0.362  24.865  0.00  0.00    +0.142 A 
ATOM     29  C   UNL     1      -4.767  -0.158  23.649  0.00  0.00    +0.036 A 
ATOM     32  C   UNL     1      -3.896  -1.276  23.799  0.00  0.00    +0.010 A 
ATOM     33  C   UNL     1      -3.652  -1.569  25.122  0.00  0.00    +0.047 A 
ENDBRANCH   1  28
ENDBRANCH  14   1
ENDBRANCH  16  14
BRANCH  25  27
ATOM     27  C   UNL     1       0.726   2.682  26.735  0.00  0.00    +0.256 C 
BRANCH  27   9
ATOM      9  O   UNL     1       1.575   3.380  27.613  0.00  0.00    -0.359 OA
BRANCH   9  31
ATOM     31  C   UNL     1       2.375   2.498  28.399  0.00  0.00    +0.280 C 
BRANCH  31  34
ATOM     11  O   UNL     1       0.787   2.900  30.196  0.00  0.00    -0.248 OA
ATOM     34  C   UNL     1       1.701   2.243  29.720  0.00  0.00    +0.331 C 
BRANCH  34  10
ATOM     10  O   UNL     1       2.253   1.162  30.326  0.00  0.00    -0.479 OA
ATOM     36  H   UNL     1       2.811   1.416  31.092  0.00  0.00    +0.295 HD
ENDBRANCH  34  10
ENDBRANCH  31  34
ENDBRANCH   9  31
ENDBRANCH  27   9
ENDBRANCH  25  27
TORSDOF 11
ENDMDL
MODEL 8
REMARK VINA RESULT:       0.6      1.636      4.620
REMARK  Name = 7114655
REMARK  12 active torsions:
REMARK  status: ('A' for Active; 'I' for Inactive)
REMARK    1  A    between atoms: S_1  and  N_14
REMARK    2  A    between atoms: S_1  and  C_28
REMARK    3  A    between atoms: O_4  and  C_26
REMARK    4  A    between atoms: O_4  and  C_30
REMARK    5  A    between atoms: O_9  and  C_27
REMARK    6  A    between atoms: O_9  and  C_31
REMARK    7  A    between atoms: O_10  and  C_34
REMARK    8  A    between atoms: N_14  and  C_16
REMARK    9  A    between atoms: C_15  and  C_21
REMARK   10  A    between atoms: C_20  and  C_26
REMARK   11  A    between atoms: C_25  and  C_27
REMARK   12  A    between atoms: C_31  and  C_34
REMARK                            x       y       z     vdW  Elec       q    Type
REMARK                         _______ _______ _______ _____ _____    ______ ____
ROOT
ATOM      5  O   UNL     1      -4.408  -0.950  23.523  0.00  0.00    -0.273 OA
ATOM     12  N   UNL     1      -2.639   0.345  24.307  0.00  0.00    -0.288 N 
ATOM     15  C   UNL     1      -1.918   0.975  25.426  0.00  0.00    +0.164 C 
ATOM     16  C   UNL     1      -0.055   1.586  23.791  0.00  0.00    +0.080 C 
ATOM     17  C   UNL     1      -0.410   1.077  25.189  0.00  0.00    +0.052 C 
ATOM     18  C   UNL     1      -0.778   0.772  22.724  0.00  0.00    +0.039 C 
ATOM     19  C   UNL     1      -2.283   0.797  22.957  0.00  0.00    +0.110 C 
ATOM     25  C   UNL     1      -3.722  -0.529  24.459  0.00  0.00    +0.242 C 
ENDROOT
BRANCH  15  21
ATOM      3  O   UNL     1      -1.844   3.309  25.860  0.00  0.00    -0.274 OA
ATOM     13  N   UNL     1      -3.932   2.351  25.577  0.00  0.00    -0.286 N 
ATOM     20  C   UNL     1      -4.707   3.535  25.921  0.00  0.00    +0.185 C 
ATOM     21  C   UNL     1      -2.547   2.321  25.646  0.00  0.00    +0.237 C 
ATOM     22  C   UNL     1      -4.802   1.205  25.325  0.00  0.00    +0.109 C 
ATOM     23  C   UNL     1      -6.121   3.016  26.157  0.00  0.00    +0.035 C 
ATOM     24  C   UNL     1      -6.205   1.790  25.252  0.00  0.00    +0.021 C 
BRANCH  20  26
ATOM      6  O   UNL     1      -5.364   5.439  24.602  0.00  0.00    -0.249 OA
ATOM     26  C   UNL     1      -4.642   4.463  24.745  0.00  0.00    +0.328 C 
BRANCH  26   4
ATOM      4  O   UNL     1      -3.667   4.044  23.889  0.00  0.00    -0.467 OA
ATOM     30  C   UNL     1      -4.120   3.632  22.595  0.00  0.00    +0.280 C 
ENDBRANCH  26   4
ENDBRANCH  20  26
ENDBRANCH  15  21
BRANCH  16  14
ATOM     14  N   UNL     1       1.411   1.477  23.588  0.00  0.00    -0.186 NA
ATOM     35  H   UNL     1       2.007   2.042  24.205  0.00  0.00    +0.148 HD
BRANCH  14   1
ATOM      1  S   UNL     1       2.020   0.013  22.946  0.00  0.00    +0.065 S 
ATOM      7  O   UNL     1       1.907   0.036  21.501  0.00  0.00    -0.153 OA
ATOM      8  O   UNL     1       1.499  -1.092  23.727  0.00  0.00    -0.153 OA
BRANCH   1  28
ATOM      2  S   UNL     1       4.361  -1.513  23.901  0.00  0.00    -0.077 S 
ATOM     28  C   UNL     1       3.780  -0.023  23.288  0.00  0.00    +0.142 A 
ATOM     29  C   UNL     1       4.784   0.911  23.159  0.00  0.00    +0.036 A 
ATOM     32  C   UNL     1       6.048   0.396  23.571  0.00  0.00    +0.010 A 
ATOM     33  C   UNL     1       5.961  -0.910  23.996  0.00  0.00    +0.047 A 
ENDBRANCH   1  28
ENDBRANCH  14   1
ENDBRANCH  16  14
BRANCH  25  27
ATOM     27  C   UNL     1      -4.045  -0.976  25.863  0.00  0.00    +0.256 C 
BRANCH  27   9
ATOM      9  O   UNL     1      -2.967  -1.773  26.288  0.00  0.00    -0.359 OA
BRANCH   9  31
ATOM     31  C   UNL     1      -2.760  -2.895  25.431  0.00  0.00    +0.280 C 
BRANCH  31  34
ATOM     11  O   UNL     1      -1.354  -2.940  23.449  0.00  0.00    -0.248 OA
ATOM     34  C   UNL     1      -1.495  -2.704  24.640  0.00  0.00    +0.331 C 
BRANCH  34  10
ATOM     10  O   UNL     1      -0.510  -2.223  25.439  0.00  0.00    -0.479 OA
ATOM     36  H   UNL     1       0.191  -1.768  24.925  0.00  0.00    +0.295 HD
ENDBRANCH  34  10
ENDBRANCH  31  34
ENDBRANCH   9  31
ENDBRANCH  27   9
ENDBRANCH  25  27
TORSDOF 11
ENDMDL
MODEL 9
REMARK VINA RESULT:       0.9      1.419      4.781
REMARK  Name = 7114655
REMARK  12 active torsions:
REMARK  status: ('A' for Active; 'I' for Inactive)
REMARK    1  A    between atoms: S_1  and  N_14
REMARK    2  A    between atoms: S_1  and  C_28
REMARK    3  A    between atoms: O_4  and  C_26
REMARK    4  A    between atoms: O_4  and  C_30
REMARK    5  A    between atoms: O_9  and  C_27
REMARK    6  A    between atoms: O_9  and  C_31
REMARK    7  A    between atoms: O_10  and  C_34
REMARK    8  A    between atoms: N_14  and  C_16
REMARK    9  A    between atoms: C_15  and  C_21
REMARK   10  A    between atoms: C_20  and  C_26
REMARK   11  A    between atoms: C_25  and  C_27
REMARK   12  A    between atoms: C_31  and  C_34
REMARK                            x       y       z     vdW  Elec       q    Type
REMARK                         _______ _______ _______ _____ _____    ______ ____
ROOT
ATOM      5  O   UNL     1      -4.498  -1.720  23.349  0.00  0.00    -0.273 OA
ATOM     12  N   UNL     1      -2.920  -0.105  23.918  0.00  0.00    -0.288 N 
ATOM     15  C   UNL     1      -2.345   0.825  24.905  0.00  0.00    +0.164 C 
ATOM     16  C   UNL     1      -0.431   1.266  23.274  0.00  0.00    +0.080 C 
ATOM     17  C   UNL     1      -0.840   1.034  24.729  0.00  0.00    +0.052 C 
ATOM     18  C   UNL     1      -0.995   0.168  22.377  0.00  0.00    +0.039 C 
ATOM     19  C   UNL     1      -2.508   0.081  22.521  0.00  0.00    +0.110 C 
ATOM     25  C   UNL     1      -3.925  -1.036  24.202  0.00  0.00    +0.242 C 
ENDROOT
BRANCH  15  21
ATOM      3  O   UNL     1      -4.309   2.098  24.501  0.00  0.00    -0.274 OA
ATOM     13  N   UNL     1      -2.382   3.264  25.034  0.00  0.00    -0.286 N 
ATOM     20  C   UNL     1      -2.925   4.597  24.809  0.00  0.00    +0.185 C 
ATOM     21  C   UNL     1      -3.111   2.111  24.788  0.00  0.00    +0.237 C 
ATOM     22  C   UNL     1      -0.963   3.324  25.377  0.00  0.00    +0.109 C 
ATOM     23  C   UNL     1      -1.704   5.507  24.748  0.00  0.00    +0.035 C 
ATOM     24  C   UNL     1      -0.687   4.798  25.637  0.00  0.00    +0.021 C 
BRANCH  20  26
ATOM      6  O   UNL     1      -3.410   4.971  27.138  0.00  0.00    -0.249 OA
ATOM     26  C   UNL     1      -3.803   4.919  25.981  0.00  0.00    +0.328 C 
BRANCH  26   4
ATOM      4  O   UNL     1      -5.077   5.139  25.548  0.00  0.00    -0.467 OA
ATOM     30  C   UNL     1      -5.990   4.054  25.746  0.00  0.00    +0.280 C 
ENDBRANCH  26   4
ENDBRANCH  20  26
ENDBRANCH  15  21
BRANCH  16  14
ATOM     14  N   UNL     1       1.050   1.272  23.176  0.00  0.00    -0.186 NA
ATOM     35  H   UNL     1       1.550   1.928  23.788  0.00  0.00    +0.148 HD
BRANCH  14   1
ATOM      1  S   UNL     1       1.823  -0.171  22.685  0.00  0.00    +0.065 S 
ATOM      7  O   UNL     1       1.821  -0.251  21.237  0.00  0.00    -0.153 OA
ATOM      8  O   UNL     1       1.335  -1.265  23.502  0.00  0.00    -0.153 OA
BRANCH   1  28
ATOM      2  S   UNL     1       4.214  -1.443  23.863  0.00  0.00    -0.077 S 
ATOM     28  C   UNL     1       3.548  -0.034  23.153  0.00  0.00    +0.142 A 
ATOM     29  C   UNL     1       4.472   0.985  23.061  0.00  0.00    +0.036 A 
ATOM     32  C   UNL     1       5.742   0.603  23.581  0.00  0.00    +0.010 A 
ATOM     33  C   UNL     1       5.742  -0.692  24.049  0.00  0.00    +0.047 A 
ENDBRANCH   1  28
ENDBRANCH  14   1
ENDBRANCH  16  14
BRANCH  25  27
ATOM     27  C   UNL     1      -4.308  -1.203  25.652  0.00  0.00    +0.256 C 
BRANCH  27   9
ATOM      9  O   UNL     1      -3.203  -1.791  26.294  0.00  0.00    -0.359 OA
BRANCH   9  31
ATOM     31  C   UNL     1      -2.791  -2.997  25.652  0.00  0.00    +0.280 C 
BRANCH  31  34
ATOM     11  O   UNL     1      -1.353  -3.075  23.694  0.00  0.00    -0.248 OA
ATOM     34  C   UNL     1      -1.539  -2.748  24.857  0.00  0.00    +0.331 C 
BRANCH  34  10
ATOM     10  O   UNL     1      -0.623  -2.099  25.618  0.00  0.00    -0.479 OA
ATOM     36  H   UNL     1      -0.922  -1.197  25.862  0.00  0.00    +0.295 HD
ENDBRANCH  34  10
ENDBRANCH  31  34
ENDBRANCH   9  31
ENDBRANCH  27   9
ENDBRANCH  25  27
TORSDOF 11
ENDMDL
