MODEL 1
REMARK VINA RESULT:      -3.4      0.000      0.000
REMARK  Name = 71694017
REMARK  7 active torsions:
REMARK  status: ('A' for Active; 'I' for Inactive)
REMARK    1  A    between atoms: S_1  and  N_6
REMARK    2  A    between atoms: S_1  and  C_16
REMARK    3  A    between atoms: O_2  and  C_10
REMARK    4  A    between atoms: O_3  and  C_12
REMARK    5  A    between atoms: N_6  and  C_8
REMARK    6  A    between atoms: C_9  and  C_13
REMARK    7  A    between atoms: C_24  and  C_25
REMARK                            x       y       z     vdW  Elec       q    Type
REMARK                         _______ _______ _______ _____ _____    ______ ____
ROOT
ATOM      8  C   UNL     1      -4.054   2.592  24.994  0.00  0.00    +0.115 C 
ATOM      9  C   UNL     1      -4.891   1.505  24.290  0.00  0.00    +0.043 C 
ATOM     10  C   UNL     1      -5.067   3.693  25.293  0.00  0.00    +0.162 C 
ATOM     11  C   UNL     1      -6.356   1.747  24.740  0.00  0.00    +0.043 C 
ATOM     12  C   UNL     1      -6.303   2.913  25.725  0.00  0.00    +0.145 C 
ENDROOT
BRANCH   9  13
ATOM     13  C   UNL     1      -4.382   0.104  24.554  0.00  0.00    -0.043 A 
ATOM     14  C   UNL     1      -4.196  -0.782  23.493  0.00  0.00    +0.004 A 
ATOM     15  C   UNL     1      -4.098  -0.302  25.858  0.00  0.00    +0.004 A 
ATOM     17  C   UNL     1      -3.728  -2.073  23.735  0.00  0.00    +0.000 A 
ATOM     18  C   UNL     1      -3.629  -1.593  26.101  0.00  0.00    +0.000 A 
ATOM     19  C   UNL     1      -3.445  -2.479  25.040  0.00  0.00    +0.000 A 
ENDBRANCH   9  13
BRANCH  10   2
ATOM      2  O   UNL     1      -4.628   4.564  26.318  0.00  0.00    -0.388 OA
ATOM     27  H   UNL     1      -5.009   5.440  26.141  0.00  0.00    +0.210 HD
ENDBRANCH  10   2
BRANCH  12   3
ATOM      3  O   UNL     1      -6.144   2.393  27.041  0.00  0.00    -0.389 OA
ATOM     28  H   UNL     1      -6.823   2.806  27.602  0.00  0.00    +0.210 HD
ENDBRANCH  12   3
BRANCH   8   6
ATOM      6  N   UNL     1      -3.003   3.102  24.082  0.00  0.00    -0.184 NA
ATOM     26  H   UNL     1      -3.212   3.143  23.077  0.00  0.00    +0.148 HD
BRANCH   6   1
ATOM      1  S   UNL     1      -1.401   3.236  24.627  0.00  0.00    +0.059 S 
ATOM      4  O   UNL     1      -1.386   3.870  25.932  0.00  0.00    -0.153 OA
ATOM      5  O   UNL     1      -0.582   3.762  23.551  0.00  0.00    -0.153 OA
BRANCH   1  16
ATOM     16  C   UNL     1      -0.945   1.541  24.841  0.00  0.00    +0.105 A 
ATOM     20  C   UNL     1      -0.555   0.780  23.738  0.00  0.00    +0.030 A 
ATOM     21  C   UNL     1      -0.975   0.966  26.110  0.00  0.00    +0.030 A 
ATOM     22  C   UNL     1      -0.196  -0.557  23.907  0.00  0.00    +0.021 A 
ATOM     23  C   UNL     1      -0.616  -0.371  26.278  0.00  0.00    +0.021 A 
ATOM     24  C   UNL     1      -0.226  -1.133  25.177  0.00  0.00    +0.052 A 
BRANCH  24  25
ATOM      7  N   UNL     1       0.440  -3.617  25.487  0.00  0.00    -0.191 NA
ATOM     25  C   UNL     1       0.141  -2.504  25.348  0.00  0.00    +0.099 C 
ENDBRANCH  24  25
ENDBRANCH   1  16
ENDBRANCH   6   1
ENDBRANCH   8   6
TORSDOF 7
ENDMDL
MODEL 2
REMARK VINA RESULT:      -3.3      1.505      2.060
REMARK  Name = 71694017
REMARK  7 active torsions:
REMARK  status: ('A' for Active; 'I' for Inactive)
REMARK    1  A    between atoms: S_1  and  N_6
REMARK    2  A    between atoms: S_1  and  C_16
REMARK    3  A    between atoms: O_2  and  C_10
REMARK    4  A    between atoms: O_3  and  C_12
REMARK    5  A    between atoms: N_6  and  C_8
REMARK    6  A    between atoms: C_9  and  C_13
REMARK    7  A    between atoms: C_24  and  C_25
REMARK                            x       y       z     vdW  Elec       q    Type
REMARK                         _______ _______ _______ _____ _____    ______ ____
ROOT
ATOM      8  C   UNL     1      -4.341   2.380  25.216  0.00  0.00    +0.115 C 
ATOM      9  C   UNL     1      -4.984   1.231  24.413  0.00  0.00    +0.043 C 
ATOM     10  C   UNL     1      -5.495   3.350  25.446  0.00  0.00    +0.162 C 
ATOM     11  C   UNL     1      -6.500   1.293  24.731  0.00  0.00    +0.043 C 
ATOM     12  C   UNL     1      -6.668   2.423  25.744  0.00  0.00    +0.145 C 
ENDROOT
BRANCH   9  13
ATOM     13  C   UNL     1      -4.343  -0.113  24.689  0.00  0.00    -0.043 A 
ATOM     14  C   UNL     1      -3.704  -0.343  25.907  0.00  0.00    +0.004 A 
ATOM     15  C   UNL     1      -4.392  -1.121  23.726  0.00  0.00    +0.004 A 
ATOM     17  C   UNL     1      -3.113  -1.581  26.162  0.00  0.00    +0.000 A 
ATOM     18  C   UNL     1      -3.801  -2.359  23.980  0.00  0.00    +0.000 A 
ATOM     19  C   UNL     1      -3.161  -2.588  25.198  0.00  0.00    +0.000 A 
ENDBRANCH   9  13
BRANCH  10   2
ATOM      2  O   UNL     1      -5.251   4.230  26.527  0.00  0.00    -0.388 OA
ATOM     27  H   UNL     1      -4.335   4.087  26.819  0.00  0.00    +0.210 HD
ENDBRANCH  10   2
BRANCH  12   3
ATOM      3  O   UNL     1      -6.567   1.880  27.057  0.00  0.00    -0.389 OA
ATOM     28  H   UNL     1      -7.145   1.099  27.094  0.00  0.00    +0.210 HD
ENDBRANCH  12   3
BRANCH   8   6
ATOM      6  N   UNL     1      -3.278   3.034  24.416  0.00  0.00    -0.184 NA
ATOM     26  H   UNL     1      -3.317   2.944  23.394  0.00  0.00    +0.148 HD
BRANCH   6   1
ATOM      1  S   UNL     1      -1.856   3.568  25.174  0.00  0.00    +0.059 S 
ATOM      4  O   UNL     1      -1.945   3.319  26.601  0.00  0.00    -0.153 OA
ATOM      5  O   UNL     1      -1.534   4.895  24.683  0.00  0.00    -0.153 OA
BRANCH   1  16
ATOM     16  C   UNL     1      -0.649   2.464  24.503  0.00  0.00    +0.105 A 
ATOM     20  C   UNL     1       0.613   2.942  24.148  0.00  0.00    +0.030 A 
ATOM     21  C   UNL     1      -0.959   1.116  24.328  0.00  0.00    +0.030 A 
ATOM     22  C   UNL     1       1.565   2.071  23.619  0.00  0.00    +0.021 A 
ATOM     23  C   UNL     1      -0.007   0.244  23.799  0.00  0.00    +0.021 A 
ATOM     24  C   UNL     1       1.255   0.721  23.444  0.00  0.00    +0.052 A 
BRANCH  24  25
ATOM      7  N   UNL     1       3.024  -0.894  22.460  0.00  0.00    -0.191 NA
ATOM     25  C   UNL     1       2.231  -0.170  22.901  0.00  0.00    +0.099 C 
ENDBRANCH  24  25
ENDBRANCH   1  16
ENDBRANCH   6   1
ENDBRANCH   8   6
TORSDOF 7
ENDMDL
MODEL 3
REMARK VINA RESULT:      -2.8      1.944      4.471
REMARK  Name = 71694017
REMARK  7 active torsions:
REMARK  status: ('A' for Active; 'I' for Inactive)
REMARK    1  A    between atoms: S_1  and  N_6
REMARK    2  A    between atoms: S_1  and  C_16
REMARK    3  A    between atoms: O_2  and  C_10
REMARK    4  A    between atoms: O_3  and  C_12
REMARK    5  A    between atoms: N_6  and  C_8
REMARK    6  A    between atoms: C_9  and  C_13
REMARK    7  A    between atoms: C_24  and  C_25
REMARK                            x       y       z     vdW  Elec       q    Type
REMARK                         _______ _______ _______ _____ _____    ______ ____
ROOT
ATOM      8  C   UNL     1      -2.084   3.525  25.223  0.00  0.00    +0.115 C 
ATOM      9  C   UNL     1      -0.869   2.816  25.855  0.00  0.00    +0.043 C 
ATOM     10  C   UNL     1      -1.684   4.997  25.223  0.00  0.00    +0.162 C 
ATOM     11  C   UNL     1       0.335   3.769  25.634  0.00  0.00    +0.043 C 
ATOM     12  C   UNL     1      -0.210   4.952  24.837  0.00  0.00    +0.145 C 
ENDROOT
BRANCH   9  13
ATOM     13  C   UNL     1      -0.660   1.414  25.322  0.00  0.00    -0.043 A 
ATOM     14  C   UNL     1      -0.932   0.312  26.132  0.00  0.00    +0.004 A 
ATOM     15  C   UNL     1      -0.196   1.224  24.020  0.00  0.00    +0.004 A 
ATOM     17  C   UNL     1      -0.739  -0.979  25.642  0.00  0.00    +0.000 A 
ATOM     18  C   UNL     1      -0.003  -0.067  23.529  0.00  0.00    +0.000 A 
ATOM     19  C   UNL     1      -0.274  -1.169  24.340  0.00  0.00    +0.000 A 
ENDBRANCH   9  13
BRANCH  10   2
ATOM      2  O   UNL     1      -2.433   5.757  24.294  0.00  0.00    -0.388 OA
ATOM     27  H   UNL     1      -3.158   6.183  24.781  0.00  0.00    +0.210 HD
ENDBRANCH  10   2
BRANCH  12   3
ATOM      3  O   UNL     1      -0.056   4.678  23.447  0.00  0.00    -0.389 OA
ATOM     28  H   UNL     1      -0.847   4.191  23.156  0.00  0.00    +0.210 HD
ENDBRANCH  12   3
BRANCH   8   6
ATOM      6  N   UNL     1      -3.289   3.325  26.063  0.00  0.00    -0.184 NA
ATOM     26  H   UNL     1      -3.166   3.269  27.081  0.00  0.00    +0.148 HD
BRANCH   6   1
ATOM      1  S   UNL     1      -4.744   2.819  25.349  0.00  0.00    +0.059 S 
ATOM      4  O   UNL     1      -4.948   3.539  24.106  0.00  0.00    -0.153 OA
ATOM      5  O   UNL     1      -5.782   2.804  26.363  0.00  0.00    -0.153 OA
BRANCH   1  16
ATOM     16  C   UNL     1      -4.388   1.134  24.951  0.00  0.00    +0.105 A 
ATOM     20  C   UNL     1      -4.488   0.149  25.934  0.00  0.00    +0.030 A 
ATOM     21  C   UNL     1      -4.008   0.790  23.654  0.00  0.00    +0.030 A 
ATOM     22  C   UNL     1      -4.206  -1.180  25.619  0.00  0.00    +0.021 A 
ATOM     23  C   UNL     1      -3.727  -0.540  23.340  0.00  0.00    +0.021 A 
ATOM     24  C   UNL     1      -3.826  -1.525  24.322  0.00  0.00    +0.052 A 
BRANCH  24  25
ATOM      7  N   UNL     1      -3.302  -3.994  23.740  0.00  0.00    -0.191 NA
ATOM     25  C   UNL     1      -3.537  -2.888  24.001  0.00  0.00    +0.099 C 
ENDBRANCH  24  25
ENDBRANCH   1  16
ENDBRANCH   6   1
ENDBRANCH   8   6
TORSDOF 7
ENDMDL
MODEL 4
REMARK VINA RESULT:      -2.2      2.692      4.254
REMARK  Name = 71694017
REMARK  7 active torsions:
REMARK  status: ('A' for Active; 'I' for Inactive)
REMARK    1  A    between atoms: S_1  and  N_6
REMARK    2  A    between atoms: S_1  and  C_16
REMARK    3  A    between atoms: O_2  and  C_10
REMARK    4  A    between atoms: O_3  and  C_12
REMARK    5  A    between atoms: N_6  and  C_8
REMARK    6  A    between atoms: C_9  and  C_13
REMARK    7  A    between atoms: C_24  and  C_25
REMARK                            x       y       z     vdW  Elec       q    Type
REMARK                         _______ _______ _______ _____ _____    ______ ____
ROOT
ATOM      8  C   UNL     1      -4.202   1.636  25.398  0.00  0.00    +0.115 C 
ATOM      9  C   UNL     1      -3.392   2.651  26.230  0.00  0.00    +0.043 C 
ATOM     10  C   UNL     1      -5.647   2.090  25.579  0.00  0.00    +0.162 C 
ATOM     11  C   UNL     1      -4.285   3.914  26.337  0.00  0.00    +0.043 C 
ATOM     12  C   UNL     1      -5.539   3.609  25.520  0.00  0.00    +0.145 C 
ENDROOT
BRANCH   9  13
ATOM     13  C   UNL     1      -2.011   2.910  25.665  0.00  0.00    -0.043 A 
ATOM     14  C   UNL     1      -1.849   3.801  24.603  0.00  0.00    +0.004 A 
ATOM     15  C   UNL     1      -0.902   2.260  26.205  0.00  0.00    +0.004 A 
ATOM     17  C   UNL     1      -0.577   4.039  24.082  0.00  0.00    +0.000 A 
ATOM     18  C   UNL     1       0.370   2.499  25.684  0.00  0.00    +0.000 A 
ATOM     19  C   UNL     1       0.532   3.388  24.622  0.00  0.00    +0.000 A 
ENDBRANCH   9  13
BRANCH  10   2
ATOM      2  O   UNL     1      -6.497   1.597  24.562  0.00  0.00    -0.388 OA
ATOM     27  H   UNL     1      -7.410   1.659  24.887  0.00  0.00    +0.210 HD
ENDBRANCH  10   2
BRANCH  12   3
ATOM      3  O   UNL     1      -5.332   4.053  24.182  0.00  0.00    -0.389 OA
ATOM     28  H   UNL     1      -6.084   3.739  23.651  0.00  0.00    +0.210 HD
ENDBRANCH  12   3
BRANCH   8   6
ATOM      6  N   UNL     1      -4.025   0.269  25.942  0.00  0.00    -0.184 NA
ATOM     26  H   UNL     1      -3.840   0.167  26.947  0.00  0.00    +0.148 HD
BRANCH   6   1
ATOM      1  S   UNL     1      -3.752  -1.034  24.887  0.00  0.00    +0.059 S 
ATOM      4  O   UNL     1      -4.663  -0.944  23.761  0.00  0.00    -0.153 OA
ATOM      5  O   UNL     1      -3.670  -2.256  25.664  0.00  0.00    -0.153 OA
BRANCH   1  16
ATOM     16  C   UNL     1      -2.121  -0.688  24.296  0.00  0.00    +0.105 A 
ATOM     20  C   UNL     1      -1.030  -1.384  24.816  0.00  0.00    +0.030 A 
ATOM     21  C   UNL     1      -1.928   0.280  23.312  0.00  0.00    +0.030 A 
ATOM     22  C   UNL     1       0.256  -1.111  24.350  0.00  0.00    +0.021 A 
ATOM     23  C   UNL     1      -0.641   0.553  22.847  0.00  0.00    +0.021 A 
ATOM     24  C   UNL     1       0.451  -0.142  23.365  0.00  0.00    +0.052 A 
BRANCH  24  25
ATOM      7  N   UNL     1       2.840   0.365  22.503  0.00  0.00    -0.191 NA
ATOM     25  C   UNL     1       1.770   0.137  22.889  0.00  0.00    +0.099 C 
ENDBRANCH  24  25
ENDBRANCH   1  16
ENDBRANCH   6   1
ENDBRANCH   8   6
TORSDOF 7
ENDMDL
MODEL 5
REMARK VINA RESULT:      -2.0      2.084      2.692
REMARK  Name = 71694017
REMARK  7 active torsions:
REMARK  status: ('A' for Active; 'I' for Inactive)
REMARK    1  A    between atoms: S_1  and  N_6
REMARK    2  A    between atoms: S_1  and  C_16
REMARK    3  A    between atoms: O_2  and  C_10
REMARK    4  A    between atoms: O_3  and  C_12
REMARK    5  A    between atoms: N_6  and  C_8
REMARK    6  A    between atoms: C_9  and  C_13
REMARK    7  A    between atoms: C_24  and  C_25
REMARK                            x       y       z     vdW  Elec       q    Type
REMARK                         _______ _______ _______ _____ _____    ______ ____
ROOT
ATOM      8  C   UNL     1      -4.495   2.309  24.460  0.00  0.00    +0.115 C 
ATOM      9  C   UNL     1      -5.366   1.037  24.461  0.00  0.00    +0.043 C 
ATOM     10  C   UNL     1      -5.444   3.399  24.949  0.00  0.00    +0.162 C 
ATOM     11  C   UNL     1      -6.513   1.315  25.467  0.00  0.00    +0.043 C 
ATOM     12  C   UNL     1      -6.231   2.698  26.051  0.00  0.00    +0.145 C 
ENDROOT
BRANCH   9  13
ATOM     13  C   UNL     1      -4.574  -0.221  24.751  0.00  0.00    -0.043 A 
ATOM     14  C   UNL     1      -4.581  -1.275  23.837  0.00  0.00    +0.004 A 
ATOM     15  C   UNL     1      -3.837  -0.326  25.931  0.00  0.00    +0.004 A 
ATOM     17  C   UNL     1      -3.852  -2.434  24.104  0.00  0.00    +0.000 A 
ATOM     18  C   UNL     1      -3.109  -1.485  26.198  0.00  0.00    +0.000 A 
ATOM     19  C   UNL     1      -3.116  -2.539  25.285  0.00  0.00    +0.000 A 
ENDBRANCH   9  13
BRANCH  10   2
ATOM      2  O   UNL     1      -4.754   4.526  25.452  0.00  0.00    -0.388 OA
ATOM     27  H   UNL     1      -5.393   5.255  25.521  0.00  0.00    +0.210 HD
ENDBRANCH  10   2
BRANCH  12   3
ATOM      3  O   UNL     1      -5.439   2.547  27.225  0.00  0.00    -0.389 OA
ATOM     28  H   UNL     1      -4.888   3.344  27.310  0.00  0.00    +0.210 HD
ENDBRANCH  12   3
BRANCH   8   6
ATOM      6  N   UNL     1      -4.035   2.615  23.084  0.00  0.00    -0.184 NA
ATOM     26  H   UNL     1      -4.718   2.998  22.419  0.00  0.00    +0.148 HD
BRANCH   6   1
ATOM      1  S   UNL     1      -2.557   1.994  22.527  0.00  0.00    +0.059 S 
ATOM      4  O   UNL     1      -2.033   2.854  21.483  0.00  0.00    -0.153 OA
ATOM      5  O   UNL     1      -2.705   0.569  22.294  0.00  0.00    -0.153 OA
BRANCH   1  16
ATOM     16  C   UNL     1      -1.525   2.178  23.951  0.00  0.00    +0.105 A 
ATOM     20  C   UNL     1      -1.025   1.049  24.601  0.00  0.00    +0.030 A 
ATOM     21  C   UNL     1      -1.212   3.451  24.425  0.00  0.00    +0.030 A 
ATOM     22  C   UNL     1      -0.211   1.194  25.724  0.00  0.00    +0.021 A 
ATOM     23  C   UNL     1      -0.399   3.597  25.549  0.00  0.00    +0.021 A 
ATOM     24  C   UNL     1       0.103   2.468  26.199  0.00  0.00    +0.052 A 
BRANCH  24  25
ATOM      7  N   UNL     1       1.612   2.736  28.286  0.00  0.00    -0.191 NA
ATOM     25  C   UNL     1       0.936   2.617  27.351  0.00  0.00    +0.099 C 
ENDBRANCH  24  25
ENDBRANCH   1  16
ENDBRANCH   6   1
ENDBRANCH   8   6
TORSDOF 7
ENDMDL
MODEL 6
REMARK VINA RESULT:      -1.3      3.096      5.345
REMARK  Name = 71694017
REMARK  7 active torsions:
REMARK  status: ('A' for Active; 'I' for Inactive)
REMARK    1  A    between atoms: S_1  and  N_6
REMARK    2  A    between atoms: S_1  and  C_16
REMARK    3  A    between atoms: O_2  and  C_10
REMARK    4  A    between atoms: O_3  and  C_12
REMARK    5  A    between atoms: N_6  and  C_8
REMARK    6  A    between atoms: C_9  and  C_13
REMARK    7  A    between atoms: C_24  and  C_25
REMARK                            x       y       z     vdW  Elec       q    Type
REMARK                         _______ _______ _______ _____ _____    ______ ____
ROOT
ATOM      8  C   UNL     1      -1.759  -1.321  24.339  0.00  0.00    +0.115 C 
ATOM      9  C   UNL     1      -2.736  -0.635  25.317  0.00  0.00    +0.043 C 
ATOM     10  C   UNL     1      -1.994  -2.810  24.579  0.00  0.00    +0.162 C 
ATOM     11  C   UNL     1      -3.845  -1.680  25.605  0.00  0.00    +0.043 C 
ATOM     12  C   UNL     1      -3.506  -2.896  24.745  0.00  0.00    +0.145 C 
ENDROOT
BRANCH   9  13
ATOM     13  C   UNL     1      -3.249   0.693  24.803  0.00  0.00    -0.043 A 
ATOM     14  C   UNL     1      -3.208   0.975  23.437  0.00  0.00    +0.004 A 
ATOM     15  C   UNL     1      -3.764   1.635  25.694  0.00  0.00    +0.004 A 
ATOM     17  C   UNL     1      -3.680   2.200  22.964  0.00  0.00    +0.000 A 
ATOM     18  C   UNL     1      -4.237   2.859  25.220  0.00  0.00    +0.000 A 
ATOM     19  C   UNL     1      -4.194   3.141  23.855  0.00  0.00    +0.000 A 
ENDBRANCH   9  13
BRANCH  10   2
ATOM      2  O   UNL     1      -1.551  -3.604  23.496  0.00  0.00    -0.388 OA
ATOM     27  H   UNL     1      -1.022  -4.332  23.863  0.00  0.00    +0.210 HD
ENDBRANCH  10   2
BRANCH  12   3
ATOM      3  O   UNL     1      -4.165  -2.766  23.488  0.00  0.00    -0.389 OA
ATOM     28  H   UNL     1      -3.527  -2.378  22.864  0.00  0.00    +0.210 HD
ENDBRANCH  12   3
BRANCH   8   6
ATOM      6  N   UNL     1      -0.361  -0.965  24.677  0.00  0.00    -0.184 NA
ATOM     26  H   UNL     1      -0.042  -1.115  25.641  0.00  0.00    +0.148 HD
BRANCH   6   1
ATOM      1  S   UNL     1       0.544   0.006  23.619  0.00  0.00    +0.059 S 
ATOM      4  O   UNL     1       0.129  -0.250  22.252  0.00  0.00    -0.153 OA
ATOM      5  O   UNL     1       1.945  -0.082  23.985  0.00  0.00    -0.153 OA
BRANCH   1  16
ATOM     16  C   UNL     1      -0.002   1.630  24.058  0.00  0.00    +0.105 A 
ATOM     20  C   UNL     1      -0.157   1.973  25.401  0.00  0.00    +0.030 A 
ATOM     21  C   UNL     1      -0.278   2.565  23.062  0.00  0.00    +0.030 A 
ATOM     22  C   UNL     1      -0.588   3.254  25.747  0.00  0.00    +0.021 A 
ATOM     23  C   UNL     1      -0.709   3.846  23.408  0.00  0.00    +0.021 A 
ATOM     24  C   UNL     1      -0.864   4.191  24.751  0.00  0.00    +0.052 A 
BRANCH  24  25
ATOM      7  N   UNL     1      -1.667   6.567  25.395  0.00  0.00    -0.191 NA
ATOM     25  C   UNL     1      -1.307   5.503  25.107  0.00  0.00    +0.099 C 
ENDBRANCH  24  25
ENDBRANCH   1  16
ENDBRANCH   6   1
ENDBRANCH   8   6
TORSDOF 7
ENDMDL
MODEL 7
REMARK VINA RESULT:      -1.3      3.483      4.300
REMARK  Name = 71694017
REMARK  7 active torsions:
REMARK  status: ('A' for Active; 'I' for Inactive)
REMARK    1  A    between atoms: S_1  and  N_6
REMARK    2  A    between atoms: S_1  and  C_16
REMARK    3  A    between atoms: O_2  and  C_10
REMARK    4  A    between atoms: O_3  and  C_12
REMARK    5  A    between atoms: N_6  and  C_8
REMARK    6  A    between atoms: C_9  and  C_13
REMARK    7  A    between atoms: C_24  and  C_25
REMARK                            x       y       z     vdW  Elec       q    Type
REMARK                         _______ _______ _______ _____ _____    ______ ____
ROOT
ATOM      8  C   UNL     1      -1.111   1.968  24.450  0.00  0.00    +0.115 C 
ATOM      9  C   UNL     1      -2.408   1.518  23.746  0.00  0.00    +0.043 C 
ATOM     10  C   UNL     1      -1.221   3.490  24.471  0.00  0.00    +0.162 C 
ATOM     11  C   UNL     1      -3.415   2.681  23.938  0.00  0.00    +0.043 C 
ATOM     12  C   UNL     1      -2.693   3.723  24.789  0.00  0.00    +0.145 C 
ENDROOT
BRANCH   9  13
ATOM     13  C   UNL     1      -2.907   0.174  24.233  0.00  0.00    -0.043 A 
ATOM     14  C   UNL     1      -2.714  -0.202  25.562  0.00  0.00    +0.004 A 
ATOM     15  C   UNL     1      -3.561  -0.689  23.353  0.00  0.00    +0.004 A 
ATOM     17  C   UNL     1      -3.174  -1.440  26.011  0.00  0.00    +0.000 A 
ATOM     18  C   UNL     1      -4.020  -1.927  23.801  0.00  0.00    +0.000 A 
ATOM     19  C   UNL     1      -3.826  -2.303  25.130  0.00  0.00    +0.000 A 
ENDBRANCH   9  13
BRANCH  10   2
ATOM      2  O   UNL     1      -0.387   4.075  25.452  0.00  0.00    -0.388 OA
ATOM     27  H   UNL     1      -0.940   4.278  26.225  0.00  0.00    +0.210 HD
ENDBRANCH  10   2
BRANCH  12   3
ATOM      3  O   UNL     1      -2.966   3.460  26.163  0.00  0.00    -0.389 OA
ATOM     28  H   UNL     1      -2.204   2.974  26.523  0.00  0.00    +0.210 HD
ENDBRANCH  12   3
BRANCH   8   6
ATOM      6  N   UNL     1       0.072   1.554  23.660  0.00  0.00    -0.184 NA
ATOM     26  H   UNL     1       0.543   2.263  23.085  0.00  0.00    +0.148 HD
BRANCH   6   1
ATOM      1  S   UNL     1       0.391  -0.095  23.415  0.00  0.00    +0.059 S 
ATOM      4  O   UNL     1      -0.123  -0.500  22.120  0.00  0.00    -0.153 OA
ATOM      5  O   UNL     1       0.016  -0.827  24.610  0.00  0.00    -0.153 OA
BRANCH   1  16
ATOM     16  C   UNL     1       2.157  -0.116  23.331  0.00  0.00    +0.105 A 
ATOM     20  C   UNL     1       2.861  -1.251  23.735  0.00  0.00    +0.030 A 
ATOM     21  C   UNL     1       2.846   1.001  22.860  0.00  0.00    +0.030 A 
ATOM     22  C   UNL     1       4.254  -1.267  23.669  0.00  0.00    +0.021 A 
ATOM     23  C   UNL     1       4.239   0.984  22.794  0.00  0.00    +0.021 A 
ATOM     24  C   UNL     1       4.944  -0.149  23.198  0.00  0.00    +0.052 A 
BRANCH  24  25
ATOM      7  N   UNL     1       7.530  -0.180  23.076  0.00  0.00    -0.191 NA
ATOM     25  C   UNL     1       6.371  -0.167  23.131  0.00  0.00    +0.099 C 
ENDBRANCH  24  25
ENDBRANCH   1  16
ENDBRANCH   6   1
ENDBRANCH   8   6
TORSDOF 7
ENDMDL
MODEL 8
REMARK VINA RESULT:      -1.1      2.528      5.473
REMARK  Name = 71694017
REMARK  7 active torsions:
REMARK  status: ('A' for Active; 'I' for Inactive)
REMARK    1  A    between atoms: S_1  and  N_6
REMARK    2  A    between atoms: S_1  and  C_16
REMARK    3  A    between atoms: O_2  and  C_10
REMARK    4  A    between atoms: O_3  and  C_12
REMARK    5  A    between atoms: N_6  and  C_8
REMARK    6  A    between atoms: C_9  and  C_13
REMARK    7  A    between atoms: C_24  and  C_25
REMARK                            x       y       z     vdW  Elec       q    Type
REMARK                         _______ _______ _______ _____ _____    ______ ____
ROOT
ATOM      8  C   UNL     1      -1.241  -0.309  25.259  0.00  0.00    +0.115 C 
ATOM      9  C   UNL     1      -2.564  -0.766  25.907  0.00  0.00    +0.043 C 
ATOM     10  C   UNL     1      -0.411  -1.587  25.190  0.00  0.00    +0.162 C 
ATOM     11  C   UNL     1      -2.662  -2.289  25.631  0.00  0.00    +0.043 C 
ATOM     12  C   UNL     1      -1.437  -2.641  24.790  0.00  0.00    +0.145 C 
ENDROOT
BRANCH   9  13
ATOM     13  C   UNL     1      -3.760   0.031  25.432  0.00  0.00    -0.043 A 
ATOM     14  C   UNL     1      -3.919   0.309  24.074  0.00  0.00    +0.004 A 
ATOM     15  C   UNL     1      -4.704   0.489  26.352  0.00  0.00    +0.004 A 
ATOM     17  C   UNL     1      -5.021   1.044  23.637  0.00  0.00    +0.000 A 
ATOM     18  C   UNL     1      -5.806   1.224  25.914  0.00  0.00    +0.000 A 
ATOM     19  C   UNL     1      -5.964   1.502  24.557  0.00  0.00    +0.000 A 
ENDBRANCH   9  13
BRANCH  10   2
ATOM      2  O   UNL     1       0.632  -1.500  24.238  0.00  0.00    -0.388 OA
ATOM     27  H   UNL     1       0.410  -2.099  23.506  0.00  0.00    +0.210 HD
ENDBRANCH  10   2
BRANCH  12   3
ATOM      3  O   UNL     1      -1.778  -2.522  23.412  0.00  0.00    -0.389 OA
ATOM     28  H   UNL     1      -2.222  -3.347  23.150  0.00  0.00    +0.210 HD
ENDBRANCH  12   3
BRANCH   8   6
ATOM      6  N   UNL     1      -0.566   0.691  26.120  0.00  0.00    -0.184 NA
ATOM     26  H   UNL     1      -0.575   0.540  27.136  0.00  0.00    +0.148 HD
BRANCH   6   1
ATOM      1  S   UNL     1      -0.144   2.208  25.485  0.00  0.00    +0.059 S 
ATOM      4  O   UNL     1       0.319   2.048  24.119  0.00  0.00    -0.153 OA
ATOM      5  O   UNL     1       0.674   2.911  26.456  0.00  0.00    -0.153 OA
BRANCH   1  16
ATOM     16  C   UNL     1      -1.708   3.031  25.437  0.00  0.00    +0.105 A 
ATOM     20  C   UNL     1      -2.337   3.403  26.625  0.00  0.00    +0.030 A 
ATOM     21  C   UNL     1      -2.312   3.307  24.211  0.00  0.00    +0.030 A 
ATOM     22  C   UNL     1      -3.571   4.052  26.586  0.00  0.00    +0.021 A 
ATOM     23  C   UNL     1      -3.546   3.956  24.172  0.00  0.00    +0.021 A 
ATOM     24  C   UNL     1      -4.176   4.329  25.360  0.00  0.00    +0.052 A 
BRANCH  24  25
ATOM      7  N   UNL     1      -6.469   5.532  25.291  0.00  0.00    -0.191 NA
ATOM     25  C   UNL     1      -5.441   4.993  25.322  0.00  0.00    +0.099 C 
ENDBRANCH  24  25
ENDBRANCH   1  16
ENDBRANCH   6   1
ENDBRANCH   8   6
TORSDOF 7
ENDMDL
MODEL 9
REMARK VINA RESULT:      -0.9      3.776      5.177
REMARK  Name = 71694017
REMARK  7 active torsions:
REMARK  status: ('A' for Active; 'I' for Inactive)
REMARK    1  A    between atoms: S_1  and  N_6
REMARK    2  A    between atoms: S_1  and  C_16
REMARK    3  A    between atoms: O_2  and  C_10
REMARK    4  A    between atoms: O_3  and  C_12
REMARK    5  A    between atoms: N_6  and  C_8
REMARK    6  A    between atoms: C_9  and  C_13
REMARK    7  A    between atoms: C_24  and  C_25
REMARK                            x       y       z     vdW  Elec       q    Type
REMARK                         _______ _______ _______ _____ _____    ______ ____
ROOT
ATOM      8  C   UNL     1      -1.553  -0.942  24.359  0.00  0.00    +0.115 C 
ATOM      9  C   UNL     1      -2.228  -0.254  25.563  0.00  0.00    +0.043 C 
ATOM     10  C   UNL     1      -1.712  -2.430  24.657  0.00  0.00    +0.162 C 
ATOM     11  C   UNL     1      -3.216  -1.299  26.143  0.00  0.00    +0.043 C 
ATOM     12  C   UNL     1      -3.122  -2.516  25.226  0.00  0.00    +0.145 C 
ENDROOT
BRANCH   9  13
ATOM     13  C   UNL     1      -2.864   1.073  25.204  0.00  0.00    -0.043 A 
ATOM     14  C   UNL     1      -4.144   1.106  24.650  0.00  0.00    +0.004 A 
ATOM     15  C   UNL     1      -2.170   2.263  25.427  0.00  0.00    +0.004 A 
ATOM     17  C   UNL     1      -4.729   2.328  24.319  0.00  0.00    +0.000 A 
ATOM     18  C   UNL     1      -2.756   3.485  25.096  0.00  0.00    +0.000 A 
ATOM     19  C   UNL     1      -4.035   3.517  24.542  0.00  0.00    +0.000 A 
ENDBRANCH   9  13
BRANCH  10   2
ATOM      2  O   UNL     1      -1.578  -3.227  23.496  0.00  0.00    -0.388 OA
ATOM     27  H   UNL     1      -1.994  -4.086  23.681  0.00  0.00    +0.210 HD
ENDBRANCH  10   2
BRANCH  12   3
ATOM      3  O   UNL     1      -4.097  -2.390  24.195  0.00  0.00    -0.389 OA
ATOM     28  H   UNL     1      -3.962  -1.525  23.772  0.00  0.00    +0.210 HD
ENDBRANCH  12   3
BRANCH   8   6
ATOM      6  N   UNL     1      -0.116  -0.584  24.303  0.00  0.00    -0.184 NA
ATOM     26  H   UNL     1       0.481  -0.851  25.096  0.00  0.00    +0.148 HD
BRANCH   6   1
ATOM      1  S   UNL     1       0.430   0.554  23.168  0.00  0.00    +0.059 S 
ATOM      4  O   UNL     1       0.185   1.893  23.670  0.00  0.00    -0.153 OA
ATOM      5  O   UNL     1      -0.046   0.169  21.853  0.00  0.00    -0.153 OA
BRANCH   1  16
ATOM     16  C   UNL     1       2.177   0.277  23.185  0.00  0.00    +0.105 A 
ATOM     20  C   UNL     1       3.049   1.304  22.822  0.00  0.00    +0.030 A 
ATOM     21  C   UNL     1       2.681  -0.967  23.561  0.00  0.00    +0.030 A 
ATOM     22  C   UNL     1       4.426   1.086  22.836  0.00  0.00    +0.021 A 
ATOM     23  C   UNL     1       4.059  -1.185  23.575  0.00  0.00    +0.021 A 
ATOM     24  C   UNL     1       4.932  -0.159  23.212  0.00  0.00    +0.052 A 
BRANCH  24  25
ATOM      7  N   UNL     1       7.490  -0.563  23.235  0.00  0.00    -0.191 NA
ATOM     25  C   UNL     1       6.344  -0.382  23.225  0.00  0.00    +0.099 C 
ENDBRANCH  24  25
ENDBRANCH   1  16
ENDBRANCH   6   1
ENDBRANCH   8   6
TORSDOF 7
ENDMDL
MODEL 10
REMARK VINA RESULT:      -0.6      2.286      5.497
REMARK  Name = 71694017
REMARK  7 active torsions:
REMARK  status: ('A' for Active; 'I' for Inactive)
REMARK    1  A    between atoms: S_1  and  N_6
REMARK    2  A    between atoms: S_1  and  C_16
REMARK    3  A    between atoms: O_2  and  C_10
REMARK    4  A    between atoms: O_3  and  C_12
REMARK    5  A    between atoms: N_6  and  C_8
REMARK    6  A    between atoms: C_9  and  C_13
REMARK    7  A    between atoms: C_24  and  C_25
REMARK                            x       y       z     vdW  Elec       q    Type
REMARK                         _______ _______ _______ _____ _____    ______ ____
ROOT
ATOM      8  C   UNL     1       0.233   0.850  24.283  0.00  0.00    +0.115 C 
ATOM      9  C   UNL     1       0.081  -0.559  24.891  0.00  0.00    +0.043 C 
ATOM     10  C   UNL     1       1.620   0.823  23.650  0.00  0.00    +0.162 C 
ATOM     11  C   UNL     1       1.060  -1.465  24.101  0.00  0.00    +0.043 C 
ATOM     12  C   UNL     1       1.689  -0.570  23.036  0.00  0.00    +0.145 C 
ENDROOT
BRANCH   9  13
ATOM     13  C   UNL     1      -1.352  -1.048  24.899  0.00  0.00    -0.043 A 
ATOM     14  C   UNL     1      -2.273  -0.494  25.789  0.00  0.00    +0.004 A 
ATOM     15  C   UNL     1      -1.753  -2.051  24.016  0.00  0.00    +0.004 A 
ATOM     17  C   UNL     1      -3.593  -0.945  25.796  0.00  0.00    +0.000 A 
ATOM     18  C   UNL     1      -3.073  -2.502  24.024  0.00  0.00    +0.000 A 
ATOM     19  C   UNL     1      -3.993  -1.949  24.914  0.00  0.00    +0.000 A 
ENDBRANCH   9  13
BRANCH  10   2
ATOM      2  O   UNL     1       1.780   1.825  22.664  0.00  0.00    -0.388 OA
ATOM     27  H   UNL     1       1.085   2.489  22.806  0.00  0.00    +0.210 HD
ENDBRANCH  10   2
BRANCH  12   3
ATOM      3  O   UNL     1       0.901  -0.645  21.851  0.00  0.00    -0.389 OA
ATOM     28  H   UNL     1       0.303   0.122  21.850  0.00  0.00    +0.210 HD
ENDBRANCH  12   3
BRANCH   8   6
ATOM      6  N   UNL     1       0.180   1.878  25.350  0.00  0.00    -0.184 NA
ATOM     26  H   UNL     1       0.349   1.580  26.318  0.00  0.00    +0.148 HD
BRANCH   6   1
ATOM      1  S   UNL     1      -0.514   3.394  25.031  0.00  0.00    +0.059 S 
ATOM      4  O   UNL     1      -0.075   3.863  23.730  0.00  0.00    -0.153 OA
ATOM      5  O   UNL     1      -0.356   4.237  26.202  0.00  0.00    -0.153 OA
BRANCH   1  16
ATOM     16  C   UNL     1      -2.231   2.992  24.913  0.00  0.00    +0.105 A 
ATOM     20  C   UNL     1      -3.111   3.390  25.919  0.00  0.00    +0.030 A 
ATOM     21  C   UNL     1      -2.705   2.275  23.815  0.00  0.00    +0.030 A 
ATOM     22  C   UNL     1      -4.466   3.072  25.826  0.00  0.00    +0.021 A 
ATOM     23  C   UNL     1      -4.060   1.957  23.722  0.00  0.00    +0.021 A 
ATOM     24  C   UNL     1      -4.941   2.356  24.727  0.00  0.00    +0.052 A 
BRANCH  24  25
ATOM      7  N   UNL     1      -7.457   1.765  24.558  0.00  0.00    -0.191 NA
ATOM     25  C   UNL     1      -6.330   2.030  24.634  0.00  0.00    +0.099 C 
ENDBRANCH  24  25
ENDBRANCH   1  16
ENDBRANCH   6   1
ENDBRANCH   8   6
TORSDOF 7
ENDMDL
