MODEL 1
REMARK VINA RESULT:      -3.2      0.000      0.000
REMARK  Name = 25390244
REMARK  7 active torsions:
REMARK  status: ('A' for Active; 'I' for Inactive)
REMARK    1  A    between atoms: O_2  and  C_11
REMARK    2  A    between atoms: O_3  and  C_12
REMARK    3  A    between atoms: N_8  and  C_20
REMARK    4  A    between atoms: C_10  and  C_14
REMARK    5  A    between atoms: C_13  and  C_20
REMARK    6  A    between atoms: C_14  and  C_21
REMARK    7  A    between atoms: C_15  and  C_22
REMARK                            x       y       z     vdW  Elec       q    Type
REMARK                         _______ _______ _______ _____ _____    ______ ____
ROOT
ATOM      1  O   UNL     1      -2.127  -0.575  25.920  0.00  0.00    -0.366 OA
ATOM     10  C   UNL     1      -3.409  -1.143  25.604  0.00  0.00    +0.159 C 
ATOM     11  C   UNL     1      -3.228  -1.856  24.275  0.00  0.00    +0.175 C 
ATOM     12  C   UNL     1      -1.813  -2.380  24.404  0.00  0.00    +0.176 C 
ATOM     13  C   UNL     1      -1.113  -1.234  25.126  0.00  0.00    +0.167 C 
ENDROOT
BRANCH  11   2
ATOM      2  O   UNL     1      -4.186  -2.874  24.085  0.00  0.00    -0.387 OA
ATOM     28  H   UNL     1      -4.778  -2.866  24.857  0.00  0.00    +0.210 HD
ENDBRANCH  11   2
BRANCH  12   3
ATOM      3  O   UNL     1      -1.784  -3.524  25.256  0.00  0.00    -0.387 OA
ATOM     29  H   UNL     1      -0.850  -3.743  25.417  0.00  0.00    +0.210 HD
ENDBRANCH  12   3
BRANCH  10  14
ATOM     14  C   UNL     1      -4.458  -0.046  25.561  0.00  0.00    +0.130 C 
BRANCH  14  21
ATOM      4  O   UNL     1      -4.257   0.312  23.228  0.00  0.00    -0.276 OA
ATOM      7  N   UNL     1      -4.036   2.184  24.584  0.00  0.00    -0.301 N 
ATOM     15  C   UNL     1      -2.504   4.620  24.956  0.00  0.00    -0.011 C 
ATOM     16  C   UNL     1      -2.722   3.619  26.101  0.00  0.00    +0.022 C 
ATOM     17  C   UNL     1      -2.565   3.899  23.600  0.00  0.00    +0.022 C 
ATOM     18  C   UNL     1      -4.012   2.824  25.905  0.00  0.00    +0.108 C 
ATOM     19  C   UNL     1      -3.858   3.100  23.457  0.00  0.00    +0.108 C 
ATOM     21  C   UNL     1      -4.243   0.825  24.350  0.00  0.00    +0.218 C 
ATOM     22  C   UNL     1      -1.176   5.354  25.122  0.00  0.00    +0.007 C 
ENDBRANCH  14  21
ENDBRANCH  10  14
BRANCH  13  20
ATOM     20  C   UNL     1      -0.522  -0.203  24.175  0.00  0.00    +0.140 C 
BRANCH  20   8
ATOM      5  O   UNL     1       5.834  -0.514  23.348  0.00  0.00    -0.377 OA
ATOM      6  O   UNL     1       1.398   1.676  23.333  0.00  0.00    -0.253 OA
ATOM      8  N   UNL     1       0.869  -0.485  23.898  0.00  0.00    -0.297 N 
ATOM      9  N   UNL     1       3.072   0.072  23.247  0.00  0.00    -0.281 N 
ATOM     23  C   UNL     1       1.755   0.502  23.484  0.00  0.00    +0.302 C 
ATOM     24  C   UNL     1       4.072   1.045  22.802  0.00  0.00    +0.137 C 
ATOM     25  C   UNL     1       3.543  -1.321  23.255  0.00  0.00    +0.137 C 
ATOM     26  C   UNL     1       5.395   0.834  23.520  0.00  0.00    +0.179 C 
ATOM     27  C   UNL     1       4.905  -1.427  23.933  0.00  0.00    +0.179 C 
ATOM     30  H   UNL     1       1.166  -1.438  24.048  0.00  0.00    +0.150 HD
ENDBRANCH  20   8
ENDBRANCH  13  20
TORSDOF 6
ENDMDL
MODEL 2
REMARK VINA RESULT:      -2.1      2.134      4.258
REMARK  Name = 25390244
REMARK  7 active torsions:
REMARK  status: ('A' for Active; 'I' for Inactive)
REMARK    1  A    between atoms: O_2  and  C_11
REMARK    2  A    between atoms: O_3  and  C_12
REMARK    3  A    between atoms: N_8  and  C_20
REMARK    4  A    between atoms: C_10  and  C_14
REMARK    5  A    between atoms: C_13  and  C_20
REMARK    6  A    between atoms: C_14  and  C_21
REMARK    7  A    between atoms: C_15  and  C_22
REMARK                            x       y       z     vdW  Elec       q    Type
REMARK                         _______ _______ _______ _____ _____    ______ ____
ROOT
ATOM      1  O   UNL     1      -1.993   2.605  23.330  0.00  0.00    -0.366 OA
ATOM     10  C   UNL     1      -2.897   3.474  24.034  0.00  0.00    +0.159 C 
ATOM     11  C   UNL     1      -2.409   3.500  25.472  0.00  0.00    +0.175 C 
ATOM     12  C   UNL     1      -0.908   3.421  25.284  0.00  0.00    +0.176 C 
ATOM     13  C   UNL     1      -0.785   2.453  24.111  0.00  0.00    +0.167 C 
ENDROOT
BRANCH  11   2
ATOM      2  O   UNL     1      -2.827   4.662  26.153  0.00  0.00    -0.387 OA
ATOM     28  H   UNL     1      -3.181   4.384  27.016  0.00  0.00    +0.210 HD
ENDBRANCH  11   2
BRANCH  12   3
ATOM      3  O   UNL     1      -0.395   4.686  24.870  0.00  0.00    -0.387 OA
ATOM     29  H   UNL     1      -1.047   5.082  24.267  0.00  0.00    +0.210 HD
ENDBRANCH  12   3
BRANCH  10  14
ATOM     14  C   UNL     1      -4.318   2.959  23.889  0.00  0.00    +0.130 C 
BRANCH  14  21
ATOM      4  O   UNL     1      -5.017   2.394  26.081  0.00  0.00    -0.276 OA
ATOM      7  N   UNL     1      -4.437   0.625  24.691  0.00  0.00    -0.301 N 
ATOM     15  C   UNL     1      -3.045  -1.919  24.621  0.00  0.00    -0.011 C 
ATOM     16  C   UNL     1      -2.757  -0.811  23.596  0.00  0.00    +0.022 C 
ATOM     17  C   UNL     1      -3.552  -1.308  25.936  0.00  0.00    +0.022 C 
ATOM     18  C   UNL     1      -3.972   0.096  23.403  0.00  0.00    +0.108 C 
ATOM     19  C   UNL     1      -4.750  -0.394  25.694  0.00  0.00    +0.108 C 
ATOM     21  C   UNL     1      -4.624   1.974  24.989  0.00  0.00    +0.218 C 
ATOM     22  C   UNL     1      -1.801  -2.772  24.861  0.00  0.00    +0.007 C 
ENDBRANCH  14  21
ENDBRANCH  10  14
BRANCH  13  20
ATOM     20  C   UNL     1      -0.691   0.998  24.546  0.00  0.00    +0.140 C 
BRANCH  20   8
ATOM      5  O   UNL     1       5.331  -0.747  23.176  0.00  0.00    -0.377 OA
ATOM      6  O   UNL     1       1.548   2.414  23.596  0.00  0.00    -0.253 OA
ATOM      8  N   UNL     1       0.569   0.413  24.144  0.00  0.00    -0.297 N 
ATOM      9  N   UNL     1       2.786   0.470  23.325  0.00  0.00    -0.281 N 
ATOM     23  C   UNL     1       1.629   1.185  23.684  0.00  0.00    +0.302 C 
ATOM     24  C   UNL     1       3.950   1.204  22.823  0.00  0.00    +0.137 C 
ATOM     25  C   UNL     1       2.914  -0.992  23.255  0.00  0.00    +0.137 C 
ATOM     26  C   UNL     1       5.237   0.658  23.420  0.00  0.00    +0.179 C 
ATOM     27  C   UNL     1       4.260  -1.445  23.812  0.00  0.00    +0.179 C 
ATOM     30  H   UNL     1       0.643  -0.589  24.243  0.00  0.00    +0.150 HD
ENDBRANCH  20   8
ENDBRANCH  13  20
TORSDOF 6
ENDMDL
MODEL 3
REMARK VINA RESULT:      -0.4      1.713      2.347
REMARK  Name = 25390244
REMARK  7 active torsions:
REMARK  status: ('A' for Active; 'I' for Inactive)
REMARK    1  A    between atoms: O_2  and  C_11
REMARK    2  A    between atoms: O_3  and  C_12
REMARK    3  A    between atoms: N_8  and  C_20
REMARK    4  A    between atoms: C_10  and  C_14
REMARK    5  A    between atoms: C_13  and  C_20
REMARK    6  A    between atoms: C_14  and  C_21
REMARK    7  A    between atoms: C_15  and  C_22
REMARK                            x       y       z     vdW  Elec       q    Type
REMARK                         _______ _______ _______ _____ _____    ______ ____
ROOT
ATOM      1  O   UNL     1      -4.080  -0.292  26.071  0.00  0.00    -0.366 OA
ATOM     10  C   UNL     1      -4.633  -0.347  24.745  0.00  0.00    +0.159 C 
ATOM     11  C   UNL     1      -3.537  -0.920  23.863  0.00  0.00    +0.175 C 
ATOM     12  C   UNL     1      -2.877  -1.908  24.804  0.00  0.00    +0.176 C 
ATOM     13  C   UNL     1      -2.925  -1.161  26.133  0.00  0.00    +0.167 C 
ENDROOT
BRANCH  11   2
ATOM      2  O   UNL     1      -4.053  -1.520  22.696  0.00  0.00    -0.387 OA
ATOM     28  H   UNL     1      -4.793  -2.091  22.964  0.00  0.00    +0.210 HD
ENDBRANCH  11   2
BRANCH  12   3
ATOM      3  O   UNL     1      -3.677  -3.083  24.927  0.00  0.00    -0.387 OA
ATOM     29  H   UNL     1      -4.582  -2.848  24.658  0.00  0.00    +0.210 HD
ENDBRANCH  12   3
BRANCH  10  14
ATOM     14  C   UNL     1      -5.084   1.039  24.322  0.00  0.00    +0.130 C 
BRANCH  14  21
ATOM      4  O   UNL     1      -5.811   2.227  26.238  0.00  0.00    -0.276 OA
ATOM      7  N   UNL     1      -3.632   2.626  25.538  0.00  0.00    -0.301 N 
ATOM     15  C   UNL     1      -1.658   4.717  25.153  0.00  0.00    -0.011 C 
ATOM     16  C   UNL     1      -2.001   3.714  24.041  0.00  0.00    +0.022 C 
ATOM     17  C   UNL     1      -2.859   4.898  26.094  0.00  0.00    +0.022 C 
ATOM     18  C   UNL     1      -2.509   2.395  24.621  0.00  0.00    +0.108 C 
ATOM     19  C   UNL     1      -3.347   3.556  26.632  0.00  0.00    +0.108 C 
ATOM     21  C   UNL     1      -4.883   2.015  25.453  0.00  0.00    +0.218 C 
ATOM     22  C   UNL     1      -1.224   6.056  24.561  0.00  0.00    +0.007 C 
ENDBRANCH  14  21
ENDBRANCH  10  14
BRANCH  13  20
ATOM     20  C   UNL     1      -1.699  -0.292  26.373  0.00  0.00    +0.140 C 
BRANCH  20   8
ATOM      5  O   UNL     1       2.769   0.306  21.806  0.00  0.00    -0.377 OA
ATOM      6  O   UNL     1       0.217   1.692  25.812  0.00  0.00    -0.253 OA
ATOM      8  N   UNL     1      -0.856  -0.241  25.199  0.00  0.00    -0.297 N 
ATOM      9  N   UNL     1       0.809   0.690  23.804  0.00  0.00    -0.281 N 
ATOM     23  C   UNL     1       0.068   0.776  24.996  0.00  0.00    +0.302 C 
ATOM     24  C   UNL     1       1.802   1.724  23.505  0.00  0.00    +0.137 C 
ATOM     25  C   UNL     1       0.591  -0.273  22.715  0.00  0.00    +0.137 C 
ATOM     26  C   UNL     1       3.076   1.111  22.945  0.00  0.00    +0.179 C 
ATOM     27  C   UNL     1       1.920  -0.783  22.169  0.00  0.00    +0.179 C 
ATOM     30  H   UNL     1      -0.960  -1.005  24.547  0.00  0.00    +0.150 HD
ENDBRANCH  20   8
ENDBRANCH  13  20
TORSDOF 6
ENDMDL
MODEL 4
REMARK VINA RESULT:       0.0      2.846      6.881
REMARK  Name = 25390244
REMARK  7 active torsions:
REMARK  status: ('A' for Active; 'I' for Inactive)
REMARK    1  A    between atoms: O_2  and  C_11
REMARK    2  A    between atoms: O_3  and  C_12
REMARK    3  A    between atoms: N_8  and  C_20
REMARK    4  A    between atoms: C_10  and  C_14
REMARK    5  A    between atoms: C_13  and  C_20
REMARK    6  A    between atoms: C_14  and  C_21
REMARK    7  A    between atoms: C_15  and  C_22
REMARK                            x       y       z     vdW  Elec       q    Type
REMARK                         _______ _______ _______ _____ _____    ______ ____
ROOT
ATOM      1  O   UNL     1      -0.004   2.589  25.370  0.00  0.00    -0.366 OA
ATOM     10  C   UNL     1      -0.118   1.155  25.367  0.00  0.00    +0.159 C 
ATOM     11  C   UNL     1      -0.087   0.742  23.906  0.00  0.00    +0.175 C 
ATOM     12  C   UNL     1       0.881   1.753  23.326  0.00  0.00    +0.176 C 
ATOM     13  C   UNL     1       0.511   3.021  24.089  0.00  0.00    +0.167 C 
ENDROOT
BRANCH  11   2
ATOM      2  O   UNL     1       0.336  -0.594  23.742  0.00  0.00    -0.387 OA
ATOM     28  H   UNL     1      -0.435  -1.110  23.450  0.00  0.00    +0.210 HD
ENDBRANCH  11   2
BRANCH  12   3
ATOM      3  O   UNL     1       2.222   1.406  23.666  0.00  0.00    -0.387 OA
ATOM     29  H   UNL     1       2.589   2.139  24.189  0.00  0.00    +0.210 HD
ENDBRANCH  12   3
BRANCH  10  14
ATOM     14  C   UNL     1      -1.392   0.743  26.083  0.00  0.00    +0.130 C 
BRANCH  14  21
ATOM      4  O   UNL     1      -0.511  -1.406  26.549  0.00  0.00    -0.276 OA
ATOM      7  N   UNL     1      -2.687  -1.333  25.740  0.00  0.00    -0.301 N 
ATOM     15  C   UNL     1      -4.538  -2.631  23.923  0.00  0.00    -0.011 C 
ATOM     16  C   UNL     1      -4.306  -1.113  23.893  0.00  0.00    +0.022 C 
ATOM     17  C   UNL     1      -3.290  -3.349  24.458  0.00  0.00    +0.022 C 
ATOM     18  C   UNL     1      -3.860  -0.593  25.259  0.00  0.00    +0.108 C 
ATOM     19  C   UNL     1      -2.866  -2.784  25.812  0.00  0.00    +0.108 C 
ATOM     21  C   UNL     1      -1.483  -0.760  26.148  0.00  0.00    +0.218 C 
ATOM     22  C   UNL     1      -4.910  -3.150  22.536  0.00  0.00    +0.007 C 
ENDBRANCH  14  21
ENDBRANCH  10  14
BRANCH  13  20
ATOM     20  C   UNL     1      -0.574   3.836  23.401  0.00  0.00    +0.140 C 
BRANCH  20   8
ATOM      5  O   UNL     1      -6.114   2.732  26.445  0.00  0.00    -0.377 OA
ATOM      6  O   UNL     1      -2.908   2.435  22.688  0.00  0.00    -0.253 OA
ATOM      8  N   UNL     1      -1.806   3.810  24.157  0.00  0.00    -0.297 N 
ATOM      9  N   UNL     1      -4.043   3.170  24.574  0.00  0.00    -0.281 N 
ATOM     23  C   UNL     1      -2.918   3.091  23.735  0.00  0.00    +0.302 C 
ATOM     24  C   UNL     1      -5.262   2.447  24.203  0.00  0.00    +0.137 C 
ATOM     25  C   UNL     1      -4.189   4.042  25.748  0.00  0.00    +0.137 C 
ATOM     26  C   UNL     1      -5.884   1.771  25.413  0.00  0.00    +0.179 C 
ATOM     27  C   UNL     1      -4.883   3.303  26.888  0.00  0.00    +0.179 C 
ATOM     30  H   UNL     1      -1.803   4.325  25.026  0.00  0.00    +0.150 HD
ENDBRANCH  20   8
ENDBRANCH  13  20
TORSDOF 6
ENDMDL
MODEL 5
REMARK VINA RESULT:       0.5      2.428      3.935
REMARK  Name = 25390244
REMARK  7 active torsions:
REMARK  status: ('A' for Active; 'I' for Inactive)
REMARK    1  A    between atoms: O_2  and  C_11
REMARK    2  A    between atoms: O_3  and  C_12
REMARK    3  A    between atoms: N_8  and  C_20
REMARK    4  A    between atoms: C_10  and  C_14
REMARK    5  A    between atoms: C_13  and  C_20
REMARK    6  A    between atoms: C_14  and  C_21
REMARK    7  A    between atoms: C_15  and  C_22
REMARK                            x       y       z     vdW  Elec       q    Type
REMARK                         _______ _______ _______ _____ _____    ______ ____
ROOT
ATOM      1  O   UNL     1      -1.669  -1.517  25.994  0.00  0.00    -0.366 OA
ATOM     10  C   UNL     1      -3.017  -1.613  25.503  0.00  0.00    +0.159 C 
ATOM     11  C   UNL     1      -2.895  -1.817  24.002  0.00  0.00    +0.175 C 
ATOM     12  C   UNL     1      -1.646  -2.669  23.913  0.00  0.00    +0.176 C 
ATOM     13  C   UNL     1      -0.768  -2.061  25.002  0.00  0.00    +0.167 C 
ENDROOT
BRANCH  11   2
ATOM      2  O   UNL     1      -4.037  -2.440  23.457  0.00  0.00    -0.387 OA
ATOM     28  H   UNL     1      -3.834  -3.386  23.359  0.00  0.00    +0.210 HD
ENDBRANCH  11   2
BRANCH  12   3
ATOM      3  O   UNL     1      -1.939  -4.016  24.280  0.00  0.00    -0.387 OA
ATOM     29  H   UNL     1      -2.194  -4.013  25.218  0.00  0.00    +0.210 HD
ENDBRANCH  12   3
BRANCH  10  14
ATOM     14  C   UNL     1      -3.789  -0.362  25.880  0.00  0.00    +0.130 C 
BRANCH  14  21
ATOM      4  O   UNL     1      -2.804   0.576  23.940  0.00  0.00    -0.276 OA
ATOM      7  N   UNL     1      -4.742   1.597  24.714  0.00  0.00    -0.301 N 
ATOM     15  C   UNL     1      -5.992   4.176  25.165  0.00  0.00    -0.011 C 
ATOM     16  C   UNL     1      -5.927   3.105  26.265  0.00  0.00    +0.022 C 
ATOM     17  C   UNL     1      -4.823   4.002  24.183  0.00  0.00    +0.022 C 
ATOM     18  C   UNL     1      -5.853   1.700  25.668  0.00  0.00    +0.108 C 
ATOM     19  C   UNL     1      -4.773   2.580  23.630  0.00  0.00    +0.108 C 
ATOM     21  C   UNL     1      -3.728   0.641  24.756  0.00  0.00    +0.218 C 
ATOM     22  C   UNL     1      -5.990   5.577  25.771  0.00  0.00    +0.007 C 
ENDBRANCH  14  21
ENDBRANCH  10  14
BRANCH  13  20
ATOM     20  C   UNL     1       0.110  -0.926  24.497  0.00  0.00    +0.140 C 
BRANCH  20   8
ATOM      5  O   UNL     1      -1.811   5.053  25.819  0.00  0.00    -0.377 OA
ATOM      6  O   UNL     1       0.922   1.602  23.561  0.00  0.00    -0.253 OA
ATOM      8  N   UNL     1      -0.333   0.349  25.017  0.00  0.00    -0.297 N 
ATOM      9  N   UNL     1      -0.399   2.710  25.114  0.00  0.00    -0.281 N 
ATOM     23  C   UNL     1       0.118   1.556  24.498  0.00  0.00    +0.302 C 
ATOM     24  C   UNL     1       0.027   4.027  24.635  0.00  0.00    +0.137 C 
ATOM     25  C   UNL     1      -1.236   2.746  26.322  0.00  0.00    +0.137 C 
ATOM     26  C   UNL     1      -1.151   4.984  24.554  0.00  0.00    +0.179 C 
ATOM     27  C   UNL     1      -2.347   3.780  26.180  0.00  0.00    +0.179 C 
ATOM     30  H   UNL     1      -1.012   0.310  25.764  0.00  0.00    +0.150 HD
ENDBRANCH  20   8
ENDBRANCH  13  20
TORSDOF 6
ENDMDL
MODEL 6
REMARK VINA RESULT:       0.6      2.198      4.903
REMARK  Name = 25390244
REMARK  7 active torsions:
REMARK  status: ('A' for Active; 'I' for Inactive)
REMARK    1  A    between atoms: O_2  and  C_11
REMARK    2  A    between atoms: O_3  and  C_12
REMARK    3  A    between atoms: N_8  and  C_20
REMARK    4  A    between atoms: C_10  and  C_14
REMARK    5  A    between atoms: C_13  and  C_20
REMARK    6  A    between atoms: C_14  and  C_21
REMARK    7  A    between atoms: C_15  and  C_22
REMARK                            x       y       z     vdW  Elec       q    Type
REMARK                         _______ _______ _______ _____ _____    ______ ____
ROOT
ATOM      1  O   UNL     1      -4.412   3.865  24.431  0.00  0.00    -0.366 OA
ATOM     10  C   UNL     1      -4.265   3.676  25.849  0.00  0.00    +0.159 C 
ATOM     11  C   UNL     1      -2.791   3.386  26.075  0.00  0.00    +0.175 C 
ATOM     12  C   UNL     1      -2.144   4.268  25.027  0.00  0.00    +0.176 C 
ATOM     13  C   UNL     1      -3.112   4.130  23.856  0.00  0.00    +0.167 C 
ENDROOT
BRANCH  11   2
ATOM      2  O   UNL     1      -2.386   3.694  27.391  0.00  0.00    -0.387 OA
ATOM     28  H   UNL     1      -2.419   2.870  27.907  0.00  0.00    +0.210 HD
ENDBRANCH  11   2
BRANCH  12   3
ATOM      3  O   UNL     1      -2.153   5.630  25.452  0.00  0.00    -0.387 OA
ATOM     29  H   UNL     1      -2.864   5.724  26.109  0.00  0.00    +0.210 HD
ENDBRANCH  12   3
BRANCH  10  14
ATOM     14  C   UNL     1      -5.178   2.555  26.313  0.00  0.00    +0.130 C 
BRANCH  14  21
ATOM      4  O   UNL     1      -6.557   1.744  24.566  0.00  0.00    -0.276 OA
ATOM      7  N   UNL     1      -4.509   0.684  24.845  0.00  0.00    -0.301 N 
ATOM     15  C   UNL     1      -3.215  -1.913  24.851  0.00  0.00    -0.011 C 
ATOM     16  C   UNL     1      -3.038  -0.918  26.008  0.00  0.00    +0.022 C 
ATOM     17  C   UNL     1      -4.563  -1.680  24.151  0.00  0.00    +0.022 C 
ATOM     18  C   UNL     1      -3.223   0.523  25.535  0.00  0.00    +0.108 C 
ATOM     19  C   UNL     1      -4.715  -0.224  23.716  0.00  0.00    +0.108 C 
ATOM     21  C   UNL     1      -5.483   1.630  25.163  0.00  0.00    +0.218 C 
ATOM     22  C   UNL     1      -3.102  -3.351  25.350  0.00  0.00    +0.007 C 
ENDBRANCH  14  21
ENDBRANCH  10  14
BRANCH  13  20
ATOM     20  C   UNL     1      -2.766   2.973  22.930  0.00  0.00    +0.140 C 
BRANCH  20   8
ATOM      5  O   UNL     1       3.045   0.259  23.142  0.00  0.00    -0.377 OA
ATOM      6  O   UNL     1      -1.874   0.322  22.619  0.00  0.00    -0.253 OA
ATOM      8  N   UNL     1      -1.418   2.504  23.159  0.00  0.00    -0.297 N 
ATOM      9  N   UNL     1       0.289   0.872  23.252  0.00  0.00    -0.281 N 
ATOM     23  C   UNL     1      -1.057   1.174  22.983  0.00  0.00    +0.302 C 
ATOM     24  C   UNL     1       0.755  -0.508  23.098  0.00  0.00    +0.137 C 
ATOM     25  C   UNL     1       1.284   1.787  23.830  0.00  0.00    +0.137 C 
ATOM     26  C   UNL     1       2.116  -0.552  22.422  0.00  0.00    +0.179 C 
ATOM     27  C   UNL     1       2.633   1.626  23.138  0.00  0.00    +0.179 C 
ATOM     30  H   UNL     1      -0.745   3.207  23.430  0.00  0.00    +0.150 HD
ENDBRANCH  20   8
ENDBRANCH  13  20
TORSDOF 6
ENDMDL
MODEL 7
REMARK VINA RESULT:       0.8      1.912      6.092
REMARK  Name = 25390244
REMARK  7 active torsions:
REMARK  status: ('A' for Active; 'I' for Inactive)
REMARK    1  A    between atoms: O_2  and  C_11
REMARK    2  A    between atoms: O_3  and  C_12
REMARK    3  A    between atoms: N_8  and  C_20
REMARK    4  A    between atoms: C_10  and  C_14
REMARK    5  A    between atoms: C_13  and  C_20
REMARK    6  A    between atoms: C_14  and  C_21
REMARK    7  A    between atoms: C_15  and  C_22
REMARK                            x       y       z     vdW  Elec       q    Type
REMARK                         _______ _______ _______ _____ _____    ______ ____
ROOT
ATOM      1  O   UNL     1      -2.940  -2.244  24.005  0.00  0.00    -0.366 OA
ATOM     10  C   UNL     1      -1.648  -2.090  24.617  0.00  0.00    +0.159 C 
ATOM     11  C   UNL     1      -1.740  -0.830  25.460  0.00  0.00    +0.175 C 
ATOM     12  C   UNL     1      -3.170  -0.899  25.953  0.00  0.00    +0.176 C 
ATOM     13  C   UNL     1      -3.902  -1.443  24.731  0.00  0.00    +0.167 C 
ENDROOT
BRANCH  11   2
ATOM      2  O   UNL     1      -0.789  -0.820  26.503  0.00  0.00    -0.387 OA
ATOM     28  H   UNL     1       0.074  -1.039  26.113  0.00  0.00    +0.210 HD
ENDBRANCH  11   2
BRANCH  12   3
ATOM      3  O   UNL     1      -3.286  -1.858  27.003  0.00  0.00    -0.387 OA
ATOM     29  H   UNL     1      -2.425  -1.901  27.453  0.00  0.00    +0.210 HD
ENDBRANCH  12   3
BRANCH  10  14
ATOM     14  C   UNL     1      -0.579  -2.018  23.541  0.00  0.00    +0.130 C 
BRANCH  14  21
ATOM      4  O   UNL     1      -0.907   0.235  22.890  0.00  0.00    -0.276 OA
ATOM      7  N   UNL     1       1.185  -0.300  23.747  0.00  0.00    -0.301 N 
ATOM     15  C   UNL     1       4.029   0.150  23.392  0.00  0.00    -0.011 C 
ATOM     16  C   UNL     1       3.441  -1.265  23.508  0.00  0.00    +0.022 C 
ATOM     17  C   UNL     1       2.977   1.116  22.824  0.00  0.00    +0.022 C 
ATOM     18  C   UNL     1       2.140  -1.262  24.309  0.00  0.00    +0.108 C 
ATOM     19  C   UNL     1       1.687   1.070  23.639  0.00  0.00    +0.108 C 
ATOM     21  C   UNL     1      -0.123  -0.593  23.361  0.00  0.00    +0.218 C 
ATOM     22  C   UNL     1       5.287   0.146  22.527  0.00  0.00    +0.007 C 
ENDBRANCH  14  21
ENDBRANCH  10  14
BRANCH  13  20
ATOM     20  C   UNL     1      -4.398  -0.350  23.796  0.00  0.00    +0.140 C 
BRANCH  20   8
ATOM      5  O   UNL     1      -1.171   5.060  25.025  0.00  0.00    -0.377 OA
ATOM      6  O   UNL     1      -5.177   2.165  24.792  0.00  0.00    -0.253 OA
ATOM      8  N   UNL     1      -3.557   0.824  23.873  0.00  0.00    -0.297 N 
ATOM      9  N   UNL     1      -3.086   3.084  24.382  0.00  0.00    -0.281 N 
ATOM     23  C   UNL     1      -4.020   2.033  24.379  0.00  0.00    +0.302 C 
ATOM     24  C   UNL     1      -3.490   4.396  24.893  0.00  0.00    +0.137 C 
ATOM     25  C   UNL     1      -1.747   3.056  23.776  0.00  0.00    +0.137 C 
ATOM     26  C   UNL     1      -2.397   5.005  25.756  0.00  0.00    +0.179 C 
ATOM     27  C   UNL     1      -0.730   3.747  24.677  0.00  0.00    +0.179 C 
ATOM     30  H   UNL     1      -2.604   0.707  23.561  0.00  0.00    +0.150 HD
ENDBRANCH  20   8
ENDBRANCH  13  20
TORSDOF 6
ENDMDL
