MODEL 1
REMARK VINA RESULT:      -4.8      0.000      0.000
REMARK  Name = 56774399
REMARK  5 active torsions:
REMARK  status: ('A' for Active; 'I' for Inactive)
REMARK    1  A    between atoms: N_2  and  C_8
REMARK    2  A    between atoms: C_4  and  C_10
REMARK    3  A    between atoms: C_8  and  C_9
REMARK    4  A    between atoms: C_9  and  C_11
REMARK    5  A    between atoms: C_9  and  C_12
REMARK                            x       y       z     vdW  Elec       q    Type
REMARK                         _______ _______ _______ _____ _____    ______ ____
ROOT
ATOM      2  N   UNL     1       1.141  -0.066  23.652  0.00  0.00    -0.301 NA
ATOM      4  C   UNL     1      -0.494   0.715  25.141  0.00  0.00    +0.090 C 
ATOM      5  C   UNL     1       0.363   1.141  23.942  0.00  0.00    +0.097 C 
ATOM      6  C   UNL     1      -0.592  -0.816  25.026  0.00  0.00    +0.029 C 
ATOM      7  C   UNL     1       0.185  -1.167  23.763  0.00  0.00    +0.085 C 
ENDROOT
BRANCH   4  10
ATOM      1  O   UNL     1      -2.929   0.657  25.035  0.00  0.00    -0.439 OA
ATOM      3  N   UNL     1      -2.049   2.714  25.393  0.00  0.00    -0.213 NA
ATOM     10  C   UNL     1      -1.822   1.433  25.201  0.00  0.00    +0.201 A 
ATOM     13  C   UNL     1      -3.961   1.545  25.133  0.00  0.00    +0.155 A 
ATOM     14  C   UNL     1      -3.419   2.803  25.353  0.00  0.00    +0.110 A 
ATOM     15  C   UNL     1      -5.320   1.275  25.037  0.00  0.00    +0.048 A 
ATOM     16  C   UNL     1      -4.282   3.900  25.490  0.00  0.00    +0.031 A 
ATOM     17  C   UNL     1      -6.169   2.379  25.176  0.00  0.00    +0.004 A 
ATOM     18  C   UNL     1      -5.662   3.666  25.398  0.00  0.00    +0.002 A 
ENDBRANCH   4  10
BRANCH   2   8
ATOM      8  C   UNL     1       1.779  -0.015  22.345  0.00  0.00    +0.087 C 
BRANCH   8   9
ATOM      9  C   UNL     1       3.312  -0.099  22.435  0.00  0.00    -0.003 C 
ATOM     11  C   UNL     1       3.892   1.296  22.682  0.00  0.00    +0.008 C 
ATOM     12  C   UNL     1       3.785  -1.055  23.534  0.00  0.00    +0.008 C 
ENDBRANCH   8   9
ENDBRANCH   2   8
TORSDOF 3
ENDMDL
MODEL 2
REMARK VINA RESULT:      -4.6      2.633      5.393
REMARK  Name = 56774399
REMARK  5 active torsions:
REMARK  status: ('A' for Active; 'I' for Inactive)
REMARK    1  A    between atoms: N_2  and  C_8
REMARK    2  A    between atoms: C_4  and  C_10
REMARK    3  A    between atoms: C_8  and  C_9
REMARK    4  A    between atoms: C_9  and  C_11
REMARK    5  A    between atoms: C_9  and  C_12
REMARK                            x       y       z     vdW  Elec       q    Type
REMARK                         _______ _______ _______ _____ _____    ______ ____
ROOT
ATOM      2  N   UNL     1      -0.615   3.969  25.294  0.00  0.00    -0.301 NA
ATOM      4  C   UNL     1      -0.491   1.632  25.448  0.00  0.00    +0.090 C 
ATOM      5  C   UNL     1      -1.413   2.824  25.740  0.00  0.00    +0.097 C 
ATOM      6  C   UNL     1       0.438   2.123  24.325  0.00  0.00    +0.029 C 
ATOM      7  C   UNL     1      -0.023   3.544  24.025  0.00  0.00    +0.085 C 
ENDROOT
BRANCH   4  10
ATOM      1  O   UNL     1      -2.537   0.525  24.719  0.00  0.00    -0.439 OA
ATOM      3  N   UNL     1      -0.830  -0.880  25.215  0.00  0.00    -0.213 NA
ATOM     10  C   UNL     1      -1.250   0.363  25.136  0.00  0.00    +0.201 A 
ATOM     13  C   UNL     1      -2.971  -0.753  24.514  0.00  0.00    +0.155 A 
ATOM     14  C   UNL     1      -1.923  -1.610  24.817  0.00  0.00    +0.110 A 
ATOM     15  C   UNL     1      -4.226  -1.160  24.080  0.00  0.00    +0.048 A 
ATOM     16  C   UNL     1      -2.118  -2.993  24.686  0.00  0.00    +0.031 A 
ATOM     17  C   UNL     1      -4.405  -2.542  23.954  0.00  0.00    +0.004 A 
ATOM     18  C   UNL     1      -3.373  -3.442  24.251  0.00  0.00    +0.002 A 
ENDBRANCH   4  10
BRANCH   2   8
ATOM      8  C   UNL     1      -1.411   5.179  25.156  0.00  0.00    +0.087 C 
BRANCH   8   9
ATOM      9  C   UNL     1      -2.919   4.912  25.304  0.00  0.00    -0.003 C 
ATOM     11  C   UNL     1      -3.415   4.083  24.117  0.00  0.00    +0.008 C 
ATOM     12  C   UNL     1      -3.262   4.195  26.612  0.00  0.00    +0.008 C 
ENDBRANCH   8   9
ENDBRANCH   2   8
TORSDOF 3
ENDMDL
MODEL 3
REMARK VINA RESULT:      -4.5      1.150      1.473
REMARK  Name = 56774399
REMARK  5 active torsions:
REMARK  status: ('A' for Active; 'I' for Inactive)
REMARK    1  A    between atoms: N_2  and  C_8
REMARK    2  A    between atoms: C_4  and  C_10
REMARK    3  A    between atoms: C_8  and  C_9
REMARK    4  A    between atoms: C_9  and  C_11
REMARK    5  A    between atoms: C_9  and  C_12
REMARK                            x       y       z     vdW  Elec       q    Type
REMARK                         _______ _______ _______ _____ _____    ______ ____
ROOT
ATOM      2  N   UNL     1       2.197   0.054  23.068  0.00  0.00    -0.301 NA
ATOM      4  C   UNL     1       0.023   0.063  23.947  0.00  0.00    +0.090 C 
ATOM      5  C   UNL     1       1.358   0.819  23.994  0.00  0.00    +0.097 C 
ATOM      6  C   UNL     1       0.023  -0.643  22.580  0.00  0.00    +0.029 C 
ATOM      7  C   UNL     1       1.333  -0.230  21.922  0.00  0.00    +0.085 C 
ENDROOT
BRANCH   4  10
ATOM      1  O   UNL     1      -2.366   0.326  24.356  0.00  0.00    -0.439 OA
ATOM      3  N   UNL     1      -1.201   2.269  24.289  0.00  0.00    -0.213 NA
ATOM     10  C   UNL     1      -1.169   0.957  24.200  0.00  0.00    +0.201 A 
ATOM     13  C   UNL     1      -3.243   1.351  24.566  0.00  0.00    +0.155 A 
ATOM     14  C   UNL     1      -2.527   2.537  24.525  0.00  0.00    +0.110 A 
ATOM     15  C   UNL     1      -4.612   1.259  24.786  0.00  0.00    +0.048 A 
ATOM     16  C   UNL     1      -3.209   3.748  24.714  0.00  0.00    +0.031 A 
ATOM     17  C   UNL     1      -5.278   2.475  24.974  0.00  0.00    +0.004 A 
ATOM     18  C   UNL     1      -4.592   3.696  24.938  0.00  0.00    +0.002 A 
ENDBRANCH   4  10
BRANCH   2   8
ATOM      8  C   UNL     1       3.403   0.775  22.687  0.00  0.00    +0.087 C 
BRANCH   8   9
ATOM      9  C   UNL     1       4.685   0.003  23.038  0.00  0.00    -0.003 C 
ATOM     11  C   UNL     1       5.575   0.863  23.940  0.00  0.00    +0.008 C 
ATOM     12  C   UNL     1       4.397  -1.335  23.725  0.00  0.00    +0.008 C 
ENDBRANCH   8   9
ENDBRANCH   2   8
TORSDOF 3
ENDMDL
MODEL 4
REMARK VINA RESULT:      -4.3      3.192      5.425
REMARK  Name = 56774399
REMARK  5 active torsions:
REMARK  status: ('A' for Active; 'I' for Inactive)
REMARK    1  A    between atoms: N_2  and  C_8
REMARK    2  A    between atoms: C_4  and  C_10
REMARK    3  A    between atoms: C_8  and  C_9
REMARK    4  A    between atoms: C_9  and  C_11
REMARK    5  A    between atoms: C_9  and  C_12
REMARK                            x       y       z     vdW  Elec       q    Type
REMARK                         _______ _______ _______ _____ _____    ______ ____
ROOT
ATOM      2  N   UNL     1      -2.971   4.517  24.971  0.00  0.00    -0.301 NA
ATOM      4  C   UNL     1      -4.035   2.506  24.400  0.00  0.00    +0.090 C 
ATOM      5  C   UNL     1      -2.726   3.287  24.214  0.00  0.00    +0.097 C 
ATOM      6  C   UNL     1      -4.631   3.050  25.710  0.00  0.00    +0.029 C 
ATOM      7  C   UNL     1      -3.622   4.078  26.205  0.00  0.00    +0.085 C 
ENDROOT
BRANCH   4  10
ATOM      1  O   UNL     1      -2.571   0.568  24.601  0.00  0.00    -0.439 OA
ATOM      3  N   UNL     1      -4.732   0.073  24.131  0.00  0.00    -0.213 NA
ATOM     10  C   UNL     1      -3.838   1.009  24.364  0.00  0.00    +0.201 A 
ATOM     13  C   UNL     1      -2.682  -0.790  24.509  0.00  0.00    +0.155 A 
ATOM     14  C   UNL     1      -4.005  -1.089  24.222  0.00  0.00    +0.110 A 
ATOM     15  C   UNL     1      -1.673  -1.733  24.668  0.00  0.00    +0.048 A 
ATOM     16  C   UNL     1      -4.381  -2.432  24.075  0.00  0.00    +0.031 A 
ATOM     17  C   UNL     1      -2.064  -3.068  24.519  0.00  0.00    +0.004 A 
ATOM     18  C   UNL     1      -3.390  -3.413  24.228  0.00  0.00    +0.002 A 
ENDBRANCH   4  10
BRANCH   2   8
ATOM      8  C   UNL     1      -1.749   5.265  25.224  0.00  0.00    +0.087 C 
BRANCH   8   9
ATOM      9  C   UNL     1      -0.490   4.389  25.112  0.00  0.00    -0.003 C 
ATOM     11  C   UNL     1      -0.621   3.175  26.036  0.00  0.00    +0.008 C 
ATOM     12  C   UNL     1      -0.226   3.919  23.679  0.00  0.00    +0.008 C 
ENDBRANCH   8   9
ENDBRANCH   2   8
TORSDOF 3
ENDMDL
MODEL 5
REMARK VINA RESULT:      -3.4      2.510      4.406
REMARK  Name = 56774399
REMARK  5 active torsions:
REMARK  status: ('A' for Active; 'I' for Inactive)
REMARK    1  A    between atoms: N_2  and  C_8
REMARK    2  A    between atoms: C_4  and  C_10
REMARK    3  A    between atoms: C_8  and  C_9
REMARK    4  A    between atoms: C_9  and  C_11
REMARK    5  A    between atoms: C_9  and  C_12
REMARK                            x       y       z     vdW  Elec       q    Type
REMARK                         _______ _______ _______ _____ _____    ______ ____
ROOT
ATOM      2  N   UNL     1      -1.406  -2.181  24.155  0.00  0.00    -0.301 NA
ATOM      4  C   UNL     1      -0.758   0.030  23.718  0.00  0.00    +0.090 C 
ATOM      5  C   UNL     1      -1.993  -0.868  23.876  0.00  0.00    +0.097 C 
ATOM      6  C   UNL     1       0.347  -0.682  24.517  0.00  0.00    +0.029 C 
ATOM      7  C   UNL     1      -0.324  -1.918  25.103  0.00  0.00    +0.085 C 
ENDROOT
BRANCH   4  10
ATOM      1  O   UNL     1      -2.211   1.705  24.731  0.00  0.00    -0.439 OA
ATOM      3  N   UNL     1      -0.232   2.507  23.971  0.00  0.00    -0.213 NA
ATOM     10  C   UNL     1      -1.015   1.462  24.126  0.00  0.00    +0.201 A 
ATOM     13  C   UNL     1      -2.175   3.046  24.983  0.00  0.00    +0.155 A 
ATOM     14  C   UNL     1      -0.964   3.533  24.518  0.00  0.00    +0.110 A 
ATOM     15  C   UNL     1      -3.157   3.816  25.595  0.00  0.00    +0.048 A 
ATOM     16  C   UNL     1      -0.682   4.900  24.661  0.00  0.00    +0.031 A 
ATOM     17  C   UNL     1      -2.861   5.177  25.731  0.00  0.00    +0.004 A 
ATOM     18  C   UNL     1      -1.649   5.710  25.273  0.00  0.00    +0.002 A 
ENDBRANCH   4  10
BRANCH   2   8
ATOM      8  C   UNL     1      -2.383  -3.125  24.677  0.00  0.00    +0.087 C 
BRANCH   8   9
ATOM      9  C   UNL     1      -3.729  -2.458  25.005  0.00  0.00    -0.003 C 
ATOM     11  C   UNL     1      -3.512  -1.329  26.017  0.00  0.00    +0.008 C 
ATOM     12  C   UNL     1      -4.430  -1.905  23.761  0.00  0.00    +0.008 C 
ENDBRANCH   8   9
ENDBRANCH   2   8
TORSDOF 3
ENDMDL
MODEL 6
REMARK VINA RESULT:      -3.1      1.654      7.128
REMARK  Name = 56774399
REMARK  5 active torsions:
REMARK  status: ('A' for Active; 'I' for Inactive)
REMARK    1  A    between atoms: N_2  and  C_8
REMARK    2  A    between atoms: C_4  and  C_10
REMARK    3  A    between atoms: C_8  and  C_9
REMARK    4  A    between atoms: C_9  and  C_11
REMARK    5  A    between atoms: C_9  and  C_12
REMARK                            x       y       z     vdW  Elec       q    Type
REMARK                         _______ _______ _______ _____ _____    ______ ____
ROOT
ATOM      2  N   UNL     1      -3.496   3.466  25.745  0.00  0.00    -0.301 NA
ATOM      4  C   UNL     1      -1.327   2.603  25.525  0.00  0.00    +0.090 C 
ATOM      5  C   UNL     1      -2.808   2.220  25.399  0.00  0.00    +0.097 C 
ATOM      6  C   UNL     1      -1.298   4.126  25.314  0.00  0.00    +0.029 C 
ATOM      7  C   UNL     1      -2.748   4.516  25.053  0.00  0.00    +0.085 C 
ENDROOT
BRANCH   4  10
ATOM      1  O   UNL     1       0.874   2.194  24.561  0.00  0.00    -0.439 OA
ATOM      3  N   UNL     1      -0.756   0.810  23.812  0.00  0.00    -0.213 NA
ATOM     10  C   UNL     1      -0.434   1.815  24.595  0.00  0.00    +0.201 A 
ATOM     13  C   UNL     1       1.433   1.334  23.660  0.00  0.00    +0.155 A 
ATOM     14  C   UNL     1       0.433   0.488  23.204  0.00  0.00    +0.110 A 
ATOM     15  C   UNL     1       2.760   1.285  23.250  0.00  0.00    +0.048 A 
ATOM     16  C   UNL     1       0.756  -0.497  22.260  0.00  0.00    +0.031 A 
ATOM     17  C   UNL     1       3.066   0.296  22.308  0.00  0.00    +0.004 A 
ATOM     18  C   UNL     1       2.086  -0.578  21.821  0.00  0.00    +0.002 A 
ENDBRANCH   4  10
BRANCH   2   8
ATOM      8  C   UNL     1      -4.902   3.447  25.367  0.00  0.00    +0.087 C 
BRANCH   8   9
ATOM      9  C   UNL     1      -5.546   2.065  25.569  0.00  0.00    -0.003 C 
ATOM     11  C   UNL     1      -6.273   2.026  26.916  0.00  0.00    +0.008 C 
ATOM     12  C   UNL     1      -6.522   1.702  24.447  0.00  0.00    +0.008 C 
ENDBRANCH   8   9
ENDBRANCH   2   8
TORSDOF 3
ENDMDL
MODEL 7
REMARK VINA RESULT:      -2.8      3.190      4.532
REMARK  Name = 56774399
REMARK  5 active torsions:
REMARK  status: ('A' for Active; 'I' for Inactive)
REMARK    1  A    between atoms: N_2  and  C_8
REMARK    2  A    between atoms: C_4  and  C_10
REMARK    3  A    between atoms: C_8  and  C_9
REMARK    4  A    between atoms: C_9  and  C_11
REMARK    5  A    between atoms: C_9  and  C_12
REMARK                            x       y       z     vdW  Elec       q    Type
REMARK                         _______ _______ _______ _____ _____    ______ ____
ROOT
ATOM      2  N   UNL     1      -3.950  -1.810  25.145  0.00  0.00    -0.301 NA
ATOM      4  C   UNL     1      -4.218   0.501  25.445  0.00  0.00    +0.090 C 
ATOM      5  C   UNL     1      -3.280  -0.669  25.775  0.00  0.00    +0.097 C 
ATOM      6  C   UNL     1      -4.964   0.057  24.175  0.00  0.00    +0.029 C 
ATOM      7  C   UNL     1      -4.392  -1.316  23.841  0.00  0.00    +0.085 C 
ENDROOT
BRANCH   4  10
ATOM      1  O   UNL     1      -2.194   1.755  24.923  0.00  0.00    -0.439 OA
ATOM      3  N   UNL     1      -3.953   3.029  25.567  0.00  0.00    -0.213 NA
ATOM     10  C   UNL     1      -3.493   1.821  25.328  0.00  0.00    +0.201 A 
ATOM     13  C   UNL     1      -1.796   3.061  24.906  0.00  0.00    +0.155 A 
ATOM     14  C   UNL     1      -2.875   3.838  25.299  0.00  0.00    +0.110 A 
ATOM     15  C   UNL     1      -0.546   3.559  24.561  0.00  0.00    +0.048 A 
ATOM     16  C   UNL     1      -2.721   5.230  25.364  0.00  0.00    +0.031 A 
ATOM     17  C   UNL     1      -0.408   4.950  24.630  0.00  0.00    +0.004 A 
ATOM     18  C   UNL     1      -1.473   5.771  25.024  0.00  0.00    +0.002 A 
ENDBRANCH   4  10
BRANCH   2   8
ATOM      8  C   UNL     1      -3.080  -2.971  25.031  0.00  0.00    +0.087 C 
BRANCH   8   9
ATOM      9  C   UNL     1      -1.795  -2.667  24.242  0.00  0.00    -0.003 C 
ATOM     11  C   UNL     1      -0.625  -2.480  25.212  0.00  0.00    +0.008 C 
ATOM     12  C   UNL     1      -1.453  -3.764  23.230  0.00  0.00    +0.008 C 
ENDBRANCH   8   9
ENDBRANCH   2   8
TORSDOF 3
ENDMDL
MODEL 8
REMARK VINA RESULT:      -2.4      1.399      2.041
REMARK  Name = 56774399
REMARK  5 active torsions:
REMARK  status: ('A' for Active; 'I' for Inactive)
REMARK    1  A    between atoms: N_2  and  C_8
REMARK    2  A    between atoms: C_4  and  C_10
REMARK    3  A    between atoms: C_8  and  C_9
REMARK    4  A    between atoms: C_9  and  C_11
REMARK    5  A    between atoms: C_9  and  C_12
REMARK                            x       y       z     vdW  Elec       q    Type
REMARK                         _______ _______ _______ _____ _____    ______ ____
ROOT
ATOM      2  N   UNL     1       1.102   0.705  23.182  0.00  0.00    -0.301 NA
ATOM      4  C   UNL     1      -0.941   1.857  23.217  0.00  0.00    +0.090 C 
ATOM      5  C   UNL     1      -0.338   0.451  23.091  0.00  0.00    +0.097 C 
ATOM      6  C   UNL     1       0.122   2.670  23.976  0.00  0.00    +0.029 C 
ATOM      7  C   UNL     1       1.246   1.682  24.261  0.00  0.00    +0.085 C 
ENDROOT
BRANCH   4  10
ATOM      1  O   UNL     1      -2.758   3.057  24.313  0.00  0.00    -0.439 OA
ATOM      3  N   UNL     1      -3.134   0.842  24.017  0.00  0.00    -0.213 NA
ATOM     10  C   UNL     1      -2.312   1.856  23.851  0.00  0.00    +0.201 A 
ATOM     13  C   UNL     1      -3.991   2.767  24.822  0.00  0.00    +0.155 A 
ATOM     14  C   UNL     1      -4.218   1.412  24.638  0.00  0.00    +0.110 A 
ATOM     15  C   UNL     1      -4.886   3.646  25.422  0.00  0.00    +0.048 A 
ATOM     16  C   UNL     1      -5.429   0.860  25.082  0.00  0.00    +0.031 A 
ATOM     17  C   UNL     1      -6.089   3.081  25.858  0.00  0.00    +0.004 A 
ATOM     18  C   UNL     1      -6.357   1.716  25.693  0.00  0.00    +0.002 A 
ENDBRANCH   4  10
BRANCH   2   8
ATOM      8  C   UNL     1       1.865  -0.509  23.428  0.00  0.00    +0.087 C 
BRANCH   8   9
ATOM      9  C   UNL     1       3.291  -0.433  22.859  0.00  0.00    -0.003 C 
ATOM     11  C   UNL     1       3.698   1.033  22.679  0.00  0.00    +0.008 C 
ATOM     12  C   UNL     1       4.317  -1.145  23.744  0.00  0.00    +0.008 C 
ENDBRANCH   8   9
ENDBRANCH   2   8
TORSDOF 3
ENDMDL
MODEL 9
REMARK VINA RESULT:      -1.9      2.591      3.816
REMARK  Name = 56774399
REMARK  5 active torsions:
REMARK  status: ('A' for Active; 'I' for Inactive)
REMARK    1  A    between atoms: N_2  and  C_8
REMARK    2  A    between atoms: C_4  and  C_10
REMARK    3  A    between atoms: C_8  and  C_9
REMARK    4  A    between atoms: C_9  and  C_11
REMARK    5  A    between atoms: C_9  and  C_12
REMARK                            x       y       z     vdW  Elec       q    Type
REMARK                         _______ _______ _______ _____ _____    ______ ____
ROOT
ATOM      2  N   UNL     1      -1.198  -1.522  24.292  0.00  0.00    -0.301 NA
ATOM      4  C   UNL     1      -1.563   0.793  24.206  0.00  0.00    +0.090 C 
ATOM      5  C   UNL     1      -2.190  -0.554  23.820  0.00  0.00    +0.097 C 
ATOM      6  C   UNL     1      -0.622   0.463  25.378  0.00  0.00    +0.029 C 
ATOM      7  C   UNL     1      -0.789  -1.033  25.609  0.00  0.00    +0.085 C 
ENDROOT
BRANCH   4  10
ATOM      1  O   UNL     1      -3.754   1.431  25.062  0.00  0.00    -0.439 OA
ATOM      3  N   UNL     1      -2.511   3.154  24.275  0.00  0.00    -0.213 NA
ATOM     10  C   UNL     1      -2.591   1.861  24.497  0.00  0.00    +0.201 A 
ATOM     13  C   UNL     1      -4.481   2.576  25.211  0.00  0.00    +0.155 A 
ATOM     14  C   UNL     1      -3.717   3.629  24.729  0.00  0.00    +0.110 A 
ATOM     15  C   UNL     1      -5.757   2.704  25.745  0.00  0.00    +0.048 A 
ATOM     16  C   UNL     1      -4.248   4.927  24.770  0.00  0.00    +0.031 A 
ATOM     17  C   UNL     1      -6.272   4.005  25.780  0.00  0.00    +0.004 A 
ATOM     18  C   UNL     1      -5.534   5.095  25.302  0.00  0.00    +0.002 A 
ENDBRANCH   4  10
BRANCH   2   8
ATOM      8  C   UNL     1      -1.726  -2.877  24.343  0.00  0.00    +0.087 C 
BRANCH   8   9
ATOM      9  C   UNL     1      -3.194  -2.919  24.800  0.00  0.00    -0.003 C 
ATOM     11  C   UNL     1      -3.404  -1.936  25.955  0.00  0.00    +0.008 C 
ATOM     12  C   UNL     1      -4.171  -2.597  23.666  0.00  0.00    +0.008 C 
ENDBRANCH   8   9
ENDBRANCH   2   8
TORSDOF 3
ENDMDL
MODEL 10
REMARK VINA RESULT:      -1.7      1.575      2.315
REMARK  Name = 56774399
REMARK  5 active torsions:
REMARK  status: ('A' for Active; 'I' for Inactive)
REMARK    1  A    between atoms: N_2  and  C_8
REMARK    2  A    between atoms: C_4  and  C_10
REMARK    3  A    between atoms: C_8  and  C_9
REMARK    4  A    between atoms: C_9  and  C_11
REMARK    5  A    between atoms: C_9  and  C_12
REMARK                            x       y       z     vdW  Elec       q    Type
REMARK                         _______ _______ _______ _____ _____    ______ ____
ROOT
ATOM      2  N   UNL     1       1.003   2.209  24.248  0.00  0.00    -0.301 NA
ATOM      4  C   UNL     1      -0.976   3.332  24.816  0.00  0.00    +0.090 C 
ATOM      5  C   UNL     1      -0.367   2.392  23.765  0.00  0.00    +0.097 C 
ATOM      6  C   UNL     1      -0.136   3.096  26.083  0.00  0.00    +0.029 C 
ATOM      7  C   UNL     1       0.873   2.024  25.693  0.00  0.00    +0.085 C 
ENDROOT
BRANCH   4  10
ATOM      1  O   UNL     1      -2.940   1.895  24.689  0.00  0.00    -0.439 OA
ATOM      3  N   UNL     1      -3.360   4.006  25.399  0.00  0.00    -0.213 NA
ATOM     10  C   UNL     1      -2.463   3.135  24.992  0.00  0.00    +0.201 A 
ATOM     13  C   UNL     1      -4.279   1.999  24.933  0.00  0.00    +0.155 A 
ATOM     14  C   UNL     1      -4.532   3.292  25.368  0.00  0.00    +0.110 A 
ATOM     15  C   UNL     1      -5.245   1.011  24.786  0.00  0.00    +0.048 A 
ATOM     16  C   UNL     1      -5.849   3.655  25.687  0.00  0.00    +0.031 A 
ATOM     17  C   UNL     1      -6.553   1.388  25.108  0.00  0.00    +0.004 A 
ATOM     18  C   UNL     1      -6.851   2.684  25.550  0.00  0.00    +0.002 A 
ENDBRANCH   4  10
BRANCH   2   8
ATOM      8  C   UNL     1       1.673   1.089  23.604  0.00  0.00    +0.087 C 
BRANCH   8   9
ATOM      9  C   UNL     1       0.685   0.122  22.929  0.00  0.00    -0.003 C 
ATOM     11  C   UNL     1       1.368  -0.571  21.747  0.00  0.00    +0.008 C 
ATOM     12  C   UNL     1       0.138  -0.930  23.897  0.00  0.00    +0.008 C 
ENDBRANCH   8   9
ENDBRANCH   2   8
TORSDOF 3
ENDMDL
