MODEL 1
REMARK VINA RESULT:      12.6      0.000      0.000
REMARK  Name = 11882032
REMARK  11 active torsions:
REMARK  status: ('A' for Active; 'I' for Inactive)
REMARK    1  A    between atoms: S_1  and  C_39
REMARK    2  A    between atoms: S_1  and  C_42
REMARK    3  A    between atoms: N_7  and  C_13
REMARK    4  A    between atoms: N_8  and  C_19
REMARK    5  A    between atoms: N_9  and  C_29
REMARK    6  A    between atoms: N_10  and  C_32
REMARK    7  A    between atoms: C_14  and  C_17
REMARK    8  A    between atoms: C_18  and  C_20
REMARK    9  A    between atoms: C_19  and  C_22
REMARK   10  A    between atoms: C_19  and  C_25
REMARK   11  A    between atoms: C_22  and  C_23
REMARK                            x       y       z     vdW  Elec       q    Type
REMARK                         _______ _______ _______ _____ _____    ______ ____
ROOT
ATOM      3  O   UNL     1      -5.558   0.859  24.043  0.00  0.00    -0.268 OA
ATOM      6  N   UNL     1      -3.673   2.165  23.793  0.00  0.00    -0.283 N 
ATOM     13  C   UNL     1      -1.526   3.100  23.369  0.00  0.00    +0.094 C 
ATOM     14  C   UNL     1      -3.047   1.308  22.797  0.00  0.00    +0.164 C 
ATOM     15  C   UNL     1      -1.880   2.124  22.243  0.00  0.00    +0.056 C 
ATOM     16  C   UNL     1      -2.864   3.359  24.052  0.00  0.00    +0.131 C 
ATOM     18  C   UNL     1      -4.943   1.892  24.310  0.00  0.00    +0.264 C 
ENDROOT
BRANCH  13   7
ATOM      4  O   UNL     1      -0.926   4.059  26.000  0.00  0.00    -0.253 OA
ATOM      7  N   UNL     1      -0.557   2.554  24.285  0.00  0.00    -0.295 N 
ATOM     10  N   UNL     1       0.668   2.350  26.218  0.00  0.00    -0.269 N 
ATOM     21  C   UNL     1      -0.323   3.084  25.560  0.00  0.00    +0.304 C 
ATOM     43  H   UNL     1       0.030   1.788  23.967  0.00  0.00    +0.151 HD
ATOM     45  H   UNL     1       1.069   1.566  25.710  0.00  0.00    +0.156 HD
BRANCH  10  32
ATOM     32  C   UNL     1       1.189   2.562  27.517  0.00  0.00    +0.036 A 
ATOM     37  C   UNL     1       0.337   2.543  28.622  0.00  0.00    +0.038 A 
ATOM     38  C   UNL     1       2.553   2.791  27.691  0.00  0.00    +0.023 A 
ATOM     39  C   UNL     1       0.850   2.753  29.901  0.00  0.00    +0.009 A 
ATOM     40  C   UNL     1       3.067   3.001  28.971  0.00  0.00    +0.003 A 
ATOM     41  C   UNL     1       2.216   2.982  30.076  0.00  0.00    +0.015 A 
BRANCH  39   1
ATOM      1  S   UNL     1      -0.235   2.727  31.315  0.00  0.00    -0.129 S 
ATOM     42  C   UNL     1       0.841   2.017  32.593  0.00  0.00    +0.090 C 
ENDBRANCH  39   1
ENDBRANCH  10  32
ENDBRANCH  13   7
BRANCH  18  20
ATOM      9  N   UNL     1      -6.200   2.592  26.359  0.00  0.00    -0.346 N 
ATOM     20  C   UNL     1      -5.502   2.887  25.218  0.00  0.00    +0.104 A 
ATOM     24  C   UNL     1      -5.436   4.257  25.104  0.00  0.00    +0.032 A 
ATOM     26  C   UNL     1      -6.583   3.755  26.976  0.00  0.00    +0.086 A 
ATOM     28  C   UNL     1      -6.121   4.807  26.215  0.00  0.00    +0.020 A 
ATOM     29  C   UNL     1      -6.499   1.266  26.852  0.00  0.00    +0.149 C 
ENDBRANCH  18  20
BRANCH  14  17
ATOM      2  O   UNL     1      -3.282  -0.941  23.565  0.00  0.00    -0.274 OA
ATOM      8  N   UNL     1      -1.279   0.180  23.952  0.00  0.00    -0.302 N 
ATOM     17  C   UNL     1      -2.568   0.054  23.466  0.00  0.00    +0.234 C 
ATOM     44  H   UNL     1      -0.752   1.021  23.736  0.00  0.00    +0.150 HD
BRANCH   8  19
ATOM     19  C   UNL     1      -0.594  -0.879  24.660  0.00  0.00    +0.163 C 
BRANCH  19  25
ATOM      5  O   UNL     1      -1.731  -3.004  24.350  0.00  0.00    -0.274 OA
ATOM     12  N   UNL     1      -2.408  -1.635  26.066  0.00  0.00    -0.328 N 
ATOM     25  C   UNL     1      -1.629  -1.950  24.974  0.00  0.00    +0.231 C 
ATOM     47  H   UNL     1      -2.296  -0.771  26.586  0.00  0.00    +0.145 HD
ATOM     48  H   UNL     1      -3.129  -2.271  26.392  0.00  0.00    +0.145 HD
ENDBRANCH  19  25
BRANCH  19  22
ATOM     22  C   UNL     1       0.560  -1.473  23.843  0.00  0.00    +0.069 C 
BRANCH  22  23
ATOM     11  N   UNL     1       2.617   1.412  22.861  0.00  0.00    -0.360 N 
ATOM     23  C   UNL     1       1.621  -0.465  23.503  0.00  0.00    -0.020 A 
ATOM     27  C   UNL     1       3.029  -0.656  23.586  0.00  0.00    +0.003 A 
ATOM     30  C   UNL     1       1.399   0.816  23.055  0.00  0.00    +0.087 A 
ATOM     31  C   UNL     1       3.630   0.536  23.177  0.00  0.00    +0.047 A 
ATOM     33  C   UNL     1       3.852  -1.734  23.970  0.00  0.00    +0.010 A 
ATOM     34  C   UNL     1       5.019   0.705  23.133  0.00  0.00    +0.026 A 
ATOM     35  C   UNL     1       5.243  -1.578  23.931  0.00  0.00    +0.001 A 
ATOM     36  C   UNL     1       5.815  -0.377  23.520  0.00  0.00    +0.002 A 
ATOM     46  H   UNL     1       2.753   2.358  22.533  0.00  0.00    +0.165 HD
ENDBRANCH  22  23
ENDBRANCH  19  22
ENDBRANCH   8  19
ENDBRANCH  14  17
TORSDOF 9
ENDMDL
MODEL 2
REMARK VINA RESULT:      12.7      0.840      1.284
REMARK  Name = 11882032
REMARK  11 active torsions:
REMARK  status: ('A' for Active; 'I' for Inactive)
REMARK    1  A    between atoms: S_1  and  C_39
REMARK    2  A    between atoms: S_1  and  C_42
REMARK    3  A    between atoms: N_7  and  C_13
REMARK    4  A    between atoms: N_8  and  C_19
REMARK    5  A    between atoms: N_9  and  C_29
REMARK    6  A    between atoms: N_10  and  C_32
REMARK    7  A    between atoms: C_14  and  C_17
REMARK    8  A    between atoms: C_18  and  C_20
REMARK    9  A    between atoms: C_19  and  C_22
REMARK   10  A    between atoms: C_19  and  C_25
REMARK   11  A    between atoms: C_22  and  C_23
REMARK                            x       y       z     vdW  Elec       q    Type
REMARK                         _______ _______ _______ _____ _____    ______ ____
ROOT
ATOM      3  O   UNL     1      -4.526   0.067  23.491  0.00  0.00    -0.268 OA
ATOM      6  N   UNL     1      -3.319   2.007  23.808  0.00  0.00    -0.283 N 
ATOM     13  C   UNL     1      -1.747   3.792  23.845  0.00  0.00    +0.094 C 
ATOM     14  C   UNL     1      -2.511   1.861  22.605  0.00  0.00    +0.164 C 
ATOM     15  C   UNL     1      -1.806   3.205  22.432  0.00  0.00    +0.056 C 
ATOM     16  C   UNL     1      -3.010   3.256  24.509  0.00  0.00    +0.131 C 
ATOM     18  C   UNL     1      -4.332   1.099  24.133  0.00  0.00    +0.264 C 
ENDROOT
BRANCH  13   7
ATOM      4  O   UNL     1      -1.425   3.635  26.687  0.00  0.00    -0.253 OA
ATOM      7  N   UNL     1      -0.559   3.394  24.557  0.00  0.00    -0.295 N 
ATOM     10  N   UNL     1       0.787   2.922  26.358  0.00  0.00    -0.269 N 
ATOM     21  C   UNL     1      -0.483   3.342  25.954  0.00  0.00    +0.304 C 
ATOM     43  H   UNL     1       0.283   3.202  24.021  0.00  0.00    +0.151 HD
ATOM     45  H   UNL     1       1.456   2.719  25.620  0.00  0.00    +0.156 HD
BRANCH  10  32
ATOM     32  C   UNL     1       1.264   2.742  27.678  0.00  0.00    +0.036 A 
ATOM     37  C   UNL     1       0.371   2.755  28.750  0.00  0.00    +0.038 A 
ATOM     38  C   UNL     1       2.626   2.551  27.907  0.00  0.00    +0.023 A 
ATOM     39  C   UNL     1       0.841   2.577  30.051  0.00  0.00    +0.009 A 
ATOM     40  C   UNL     1       3.097   2.374  29.208  0.00  0.00    +0.003 A 
ATOM     41  C   UNL     1       2.205   2.387  30.280  0.00  0.00    +0.015 A 
BRANCH  39   1
ATOM      1  S   UNL     1      -0.298   2.592  31.422  0.00  0.00    -0.129 S 
ATOM     42  C   UNL     1       0.777   2.097  32.799  0.00  0.00    +0.090 C 
ENDBRANCH  39   1
ENDBRANCH  10  32
ENDBRANCH  13   7
BRANCH  18  20
ATOM      9  N   UNL     1      -5.611   2.671  25.603  0.00  0.00    -0.346 N 
ATOM     20  C   UNL     1      -5.139   1.420  25.304  0.00  0.00    +0.104 A 
ATOM     24  C   UNL     1      -5.563   0.560  26.292  0.00  0.00    +0.032 A 
ATOM     26  C   UNL     1      -6.331   2.622  26.769  0.00  0.00    +0.086 A 
ATOM     28  C   UNL     1      -6.316   1.321  27.220  0.00  0.00    +0.020 A 
ATOM     29  C   UNL     1      -5.395   3.868  24.822  0.00  0.00    +0.149 C 
ENDBRANCH  18  20
BRANCH  14  17
ATOM      2  O   UNL     1      -1.054   0.117  21.873  0.00  0.00    -0.274 OA
ATOM      8  N   UNL     1      -1.258   0.533  24.155  0.00  0.00    -0.302 N 
ATOM     17  C   UNL     1      -1.527   0.749  22.814  0.00  0.00    +0.234 C 
ATOM     44  H   UNL     1      -1.642   1.175  24.843  0.00  0.00    +0.150 HD
BRANCH   8  19
ATOM     19  C   UNL     1      -0.359  -0.497  24.625  0.00  0.00    +0.163 C 
BRANCH  19  25
ATOM      5  O   UNL     1      -0.893  -2.837  25.009  0.00  0.00    -0.274 OA
ATOM     12  N   UNL     1      -2.386  -1.239  25.713  0.00  0.00    -0.328 N 
ATOM     25  C   UNL     1      -1.220  -1.656  25.107  0.00  0.00    +0.231 C 
ATOM     47  H   UNL     1      -2.632  -0.259  25.808  0.00  0.00    +0.145 HD
ATOM     48  H   UNL     1      -3.045  -1.912  26.092  0.00  0.00    +0.145 HD
ENDBRANCH  19  25
BRANCH  19  22
ATOM     22  C   UNL     1       0.608  -0.968  23.532  0.00  0.00    +0.069 C 
BRANCH  22  23
ATOM     11  N   UNL     1       3.073   1.714  23.038  0.00  0.00    -0.360 N 
ATOM     23  C   UNL     1       1.808  -0.077  23.384  0.00  0.00    -0.020 A 
ATOM     27  C   UNL     1       3.171  -0.459  23.527  0.00  0.00    +0.003 A 
ATOM     30  C   UNL     1       1.780   1.266  23.083  0.00  0.00    +0.087 A 
ATOM     31  C   UNL     1       3.944   0.682  23.305  0.00  0.00    +0.047 A 
ATOM     33  C   UNL     1       3.824  -1.673  23.825  0.00  0.00    +0.010 A 
ATOM     34  C   UNL     1       5.342   0.672  23.366  0.00  0.00    +0.026 A 
ATOM     35  C   UNL     1       5.222  -1.697  23.889  0.00  0.00    +0.001 A 
ATOM     36  C   UNL     1       5.967  -0.543  23.663  0.00  0.00    +0.002 A 
ATOM     46  H   UNL     1       3.349   2.665  22.838  0.00  0.00    +0.165 HD
ENDBRANCH  22  23
ENDBRANCH  19  22
ENDBRANCH   8  19
ENDBRANCH  14  17
TORSDOF 9
ENDMDL
MODEL 3
REMARK VINA RESULT:      13.8      1.838      3.962
REMARK  Name = 11882032
REMARK  11 active torsions:
REMARK  status: ('A' for Active; 'I' for Inactive)
REMARK    1  A    between atoms: S_1  and  C_39
REMARK    2  A    between atoms: S_1  and  C_42
REMARK    3  A    between atoms: N_7  and  C_13
REMARK    4  A    between atoms: N_8  and  C_19
REMARK    5  A    between atoms: N_9  and  C_29
REMARK    6  A    between atoms: N_10  and  C_32
REMARK    7  A    between atoms: C_14  and  C_17
REMARK    8  A    between atoms: C_18  and  C_20
REMARK    9  A    between atoms: C_19  and  C_22
REMARK   10  A    between atoms: C_19  and  C_25
REMARK   11  A    between atoms: C_22  and  C_23
REMARK                            x       y       z     vdW  Elec       q    Type
REMARK                         _______ _______ _______ _____ _____    ______ ____
ROOT
ATOM      3  O   UNL     1      -3.039   0.888  23.493  0.00  0.00    -0.268 OA
ATOM      6  N   UNL     1      -2.113   2.932  24.032  0.00  0.00    -0.283 N 
ATOM     13  C   UNL     1      -0.760   4.859  24.371  0.00  0.00    +0.094 C 
ATOM     14  C   UNL     1      -1.066   2.875  23.021  0.00  0.00    +0.164 C 
ATOM     15  C   UNL     1      -0.472   4.282  22.982  0.00  0.00    +0.056 C 
ATOM     16  C   UNL     1      -2.075   4.198  24.768  0.00  0.00    +0.131 C 
ATOM     18  C   UNL     1      -3.080   1.928  24.152  0.00  0.00    +0.264 C 
ENDROOT
BRANCH  13   7
ATOM      4  O   UNL     1      -0.984   3.277  26.749  0.00  0.00    -0.253 OA
ATOM      7  N   UNL     1       0.290   4.568  25.315  0.00  0.00    -0.295 N 
ATOM     10  N   UNL     1       1.289   3.674  27.181  0.00  0.00    -0.269 N 
ATOM     21  C   UNL     1       0.097   3.782  26.459  0.00  0.00    +0.304 C 
ATOM     43  H   UNL     1       1.196   5.007  25.180  0.00  0.00    +0.151 HD
ATOM     45  H   UNL     1       2.099   4.156  26.801  0.00  0.00    +0.156 HD
BRANCH  10  32
ATOM     32  C   UNL     1       1.512   2.970  28.388  0.00  0.00    +0.036 A 
ATOM     37  C   UNL     1       0.586   3.058  29.428  0.00  0.00    +0.038 A 
ATOM     38  C   UNL     1       2.657   2.188  28.537  0.00  0.00    +0.023 A 
ATOM     39  C   UNL     1       0.805   2.364  30.618  0.00  0.00    +0.009 A 
ATOM     40  C   UNL     1       2.877   1.494  29.727  0.00  0.00    +0.003 A 
ATOM     41  C   UNL     1       1.952   1.581  30.768  0.00  0.00    +0.015 A 
BRANCH  39   1
ATOM      1  S   UNL     1      -0.377   2.473  31.947  0.00  0.00    -0.129 S 
ATOM     42  C   UNL     1       0.242   3.908  32.872  0.00  0.00    +0.090 C 
ENDBRANCH  39   1
ENDBRANCH  10  32
ENDBRANCH  13   7
BRANCH  18  20
ATOM      9  N   UNL     1      -5.237   1.359  25.287  0.00  0.00    -0.346 N 
ATOM     20  C   UNL     1      -4.136   2.159  25.129  0.00  0.00    +0.104 A 
ATOM     24  C   UNL     1      -4.225   3.185  26.042  0.00  0.00    +0.032 A 
ATOM     26  C   UNL     1      -6.028   1.859  26.288  0.00  0.00    +0.086 A 
ATOM     28  C   UNL     1      -5.423   2.997  26.775  0.00  0.00    +0.020 A 
ATOM     29  C   UNL     1      -5.535   0.166  24.525  0.00  0.00    +0.149 C 
ENDBRANCH  18  20
BRANCH  14  17
ATOM      2  O   UNL     1       0.737   2.069  24.364  0.00  0.00    -0.274 OA
ATOM      8  N   UNL     1      -0.088   0.720  22.655  0.00  0.00    -0.302 N 
ATOM     17  C   UNL     1      -0.044   1.861  23.438  0.00  0.00    +0.234 C 
ATOM     44  H   UNL     1      -0.833   0.622  21.971  0.00  0.00    +0.150 HD
BRANCH   8  19
ATOM     19  C   UNL     1       0.809  -0.399  22.836  0.00  0.00    +0.163 C 
BRANCH  19  25
ATOM      5  O   UNL     1       2.533  -0.138  21.144  0.00  0.00    -0.274 OA
ATOM     12  N   UNL     1       2.937   0.668  23.257  0.00  0.00    -0.328 N 
ATOM     25  C   UNL     1       2.170   0.028  22.306  0.00  0.00    +0.231 C 
ATOM     47  H   UNL     1       2.614   0.818  24.207  0.00  0.00    +0.145 HD
ATOM     48  H   UNL     1       3.863   1.016  23.031  0.00  0.00    +0.145 HD
ENDBRANCH  19  25
BRANCH  19  22
ATOM     22  C   UNL     1       0.916  -0.826  24.304  0.00  0.00    +0.069 C 
BRANCH  22  23
ATOM     11  N   UNL     1      -2.107  -0.596  26.385  0.00  0.00    -0.360 N 
ATOM     23  C   UNL     1      -0.420  -0.939  24.984  0.00  0.00    -0.020 A 
ATOM     27  C   UNL     1      -1.478  -1.824  24.633  0.00  0.00    +0.003 A 
ATOM     30  C   UNL     1      -0.837  -0.197  26.065  0.00  0.00    +0.087 A 
ATOM     31  C   UNL     1      -2.524  -1.588  25.527  0.00  0.00    +0.047 A 
ATOM     33  C   UNL     1      -1.645  -2.807  23.636  0.00  0.00    +0.010 A 
ATOM     34  C   UNL     1      -3.734  -2.289  25.474  0.00  0.00    +0.026 A 
ATOM     35  C   UNL     1      -2.851  -3.514  23.572  0.00  0.00    +0.001 A 
ATOM     36  C   UNL     1      -3.878  -3.258  24.478  0.00  0.00    +0.002 A 
ATOM     46  H   UNL     1      -2.659  -0.217  27.141  0.00  0.00    +0.165 HD
ENDBRANCH  22  23
ENDBRANCH  19  22
ENDBRANCH   8  19
ENDBRANCH  14  17
TORSDOF 9
ENDMDL
MODEL 4
REMARK VINA RESULT:      14.2      2.716      5.189
REMARK  Name = 11882032
REMARK  11 active torsions:
REMARK  status: ('A' for Active; 'I' for Inactive)
REMARK    1  A    between atoms: S_1  and  C_39
REMARK    2  A    between atoms: S_1  and  C_42
REMARK    3  A    between atoms: N_7  and  C_13
REMARK    4  A    between atoms: N_8  and  C_19
REMARK    5  A    between atoms: N_9  and  C_29
REMARK    6  A    between atoms: N_10  and  C_32
REMARK    7  A    between atoms: C_14  and  C_17
REMARK    8  A    between atoms: C_18  and  C_20
REMARK    9  A    between atoms: C_19  and  C_22
REMARK   10  A    between atoms: C_19  and  C_25
REMARK   11  A    between atoms: C_22  and  C_23
REMARK                            x       y       z     vdW  Elec       q    Type
REMARK                         _______ _______ _______ _____ _____    ______ ____
ROOT
ATOM      3  O   UNL     1      -5.492   0.399  24.863  0.00  0.00    -0.268 OA
ATOM      6  N   UNL     1      -3.807   1.148  23.477  0.00  0.00    -0.283 N 
ATOM     13  C   UNL     1      -1.905   1.464  22.082  0.00  0.00    +0.094 C 
ATOM     14  C   UNL     1      -3.450  -0.171  22.974  0.00  0.00    +0.164 C 
ATOM     15  C   UNL     1      -2.519   0.091  21.791  0.00  0.00    +0.056 C 
ATOM     16  C   UNL     1      -3.009   2.197  22.836  0.00  0.00    +0.131 C 
ATOM     18  C   UNL     1      -4.870   1.338  24.366  0.00  0.00    +0.264 C 
ENDROOT
BRANCH  13   7
ATOM      4  O   UNL     1       0.354  -0.214  21.548  0.00  0.00    -0.253 OA
ATOM      7  N   UNL     1      -0.697   1.371  22.862  0.00  0.00    -0.295 N 
ATOM     10  N   UNL     1       1.398   0.647  23.466  0.00  0.00    -0.269 N 
ATOM     21  C   UNL     1       0.367   0.522  22.531  0.00  0.00    +0.304 C 
ATOM     43  H   UNL     1      -0.640   1.899  23.728  0.00  0.00    +0.151 HD
ATOM     45  H   UNL     1       1.249   1.305  24.226  0.00  0.00    +0.156 HD
BRANCH  10  32
ATOM     32  C   UNL     1       2.638  -0.035  23.487  0.00  0.00    +0.036 A 
ATOM     37  C   UNL     1       3.832   0.686  23.464  0.00  0.00    +0.038 A 
ATOM     38  C   UNL     1       2.666  -1.429  23.531  0.00  0.00    +0.023 A 
ATOM     39  C   UNL     1       5.054   0.014  23.486  0.00  0.00    +0.009 A 
ATOM     40  C   UNL     1       3.888  -2.102  23.552  0.00  0.00    +0.003 A 
ATOM     41  C   UNL     1       5.081  -1.381  23.530  0.00  0.00    +0.015 A 
BRANCH  39   1
ATOM      1  S   UNL     1       6.580   0.934  23.459  0.00  0.00    -0.129 S 
ATOM     42  C   UNL     1       7.785  -0.365  23.061  0.00  0.00    +0.090 C 
ENDBRANCH  39   1
ENDBRANCH  10  32
ENDBRANCH  13   7
BRANCH  18  20
ATOM      9  N   UNL     1      -5.931   3.098  25.796  0.00  0.00    -0.346 N 
ATOM     20  C   UNL     1      -5.193   2.718  24.705  0.00  0.00    +0.104 A 
ATOM     24  C   UNL     1      -4.834   3.857  24.021  0.00  0.00    +0.032 A 
ATOM     26  C   UNL     1      -6.048   4.463  25.818  0.00  0.00    +0.086 A 
ATOM     28  C   UNL     1      -5.375   4.962  24.724  0.00  0.00    +0.020 A 
ATOM     29  C   UNL     1      -6.505   2.209  26.782  0.00  0.00    +0.149 C 
ENDBRANCH  18  20
BRANCH  14  17
ATOM      2  O   UNL     1      -2.746  -2.160  24.093  0.00  0.00    -0.274 OA
ATOM      8  N   UNL     1      -2.164  -0.094  24.993  0.00  0.00    -0.302 N 
ATOM     17  C   UNL     1      -2.752  -0.932  24.062  0.00  0.00    +0.234 C 
ATOM     44  H   UNL     1      -2.159   0.908  24.819  0.00  0.00    +0.150 HD
BRANCH   8  19
ATOM     19  C   UNL     1      -1.449  -0.578  26.152  0.00  0.00    +0.163 C 
BRANCH  19  25
ATOM      5  O   UNL     1       0.001  -1.553  24.463  0.00  0.00    -0.274 OA
ATOM     12  N   UNL     1       0.317  -2.149  26.659  0.00  0.00    -0.328 N 
ATOM     25  C   UNL     1      -0.327  -1.473  25.645  0.00  0.00    +0.231 C 
ATOM     47  H   UNL     1       0.050  -2.054  27.634  0.00  0.00    +0.145 HD
ATOM     48  H   UNL     1       1.094  -2.770  26.459  0.00  0.00    +0.145 HD
ENDBRANCH  19  25
BRANCH  19  22
ATOM     22  C   UNL     1      -0.879   0.564  27.003  0.00  0.00    +0.069 C 
BRANCH  22  23
ATOM     11  N   UNL     1       0.677   3.096  24.838  0.00  0.00    -0.360 N 
ATOM     23  C   UNL     1      -0.470   1.758  26.188  0.00  0.00    -0.020 A 
ATOM     27  C   UNL     1      -1.180   2.986  26.068  0.00  0.00    +0.003 A 
ATOM     30  C   UNL     1       0.667   1.856  25.420  0.00  0.00    +0.087 A 
ATOM     31  C   UNL     1      -0.440   3.807  25.216  0.00  0.00    +0.047 A 
ATOM     33  C   UNL     1      -2.387   3.478  26.605  0.00  0.00    +0.010 A 
ATOM     34  C   UNL     1      -0.846   5.101  24.872  0.00  0.00    +0.026 A 
ATOM     35  C   UNL     1      -2.805   4.771  26.269  0.00  0.00    +0.001 A 
ATOM     36  C   UNL     1      -2.046   5.568  25.416  0.00  0.00    +0.002 A 
ATOM     46  H   UNL     1       1.398   3.439  24.220  0.00  0.00    +0.165 HD
ENDBRANCH  22  23
ENDBRANCH  19  22
ENDBRANCH   8  19
ENDBRANCH  14  17
TORSDOF 9
ENDMDL
MODEL 5
REMARK VINA RESULT:      14.3      2.923      5.357
REMARK  Name = 11882032
REMARK  11 active torsions:
REMARK  status: ('A' for Active; 'I' for Inactive)
REMARK    1  A    between atoms: S_1  and  C_39
REMARK    2  A    between atoms: S_1  and  C_42
REMARK    3  A    between atoms: N_7  and  C_13
REMARK    4  A    between atoms: N_8  and  C_19
REMARK    5  A    between atoms: N_9  and  C_29
REMARK    6  A    between atoms: N_10  and  C_32
REMARK    7  A    between atoms: C_14  and  C_17
REMARK    8  A    between atoms: C_18  and  C_20
REMARK    9  A    between atoms: C_19  and  C_22
REMARK   10  A    between atoms: C_19  and  C_25
REMARK   11  A    between atoms: C_22  and  C_23
REMARK                            x       y       z     vdW  Elec       q    Type
REMARK                         _______ _______ _______ _____ _____    ______ ____
ROOT
ATOM      3  O   UNL     1      -4.902   1.769  26.209  0.00  0.00    -0.268 OA
ATOM      6  N   UNL     1      -4.258   0.485  24.404  0.00  0.00    -0.283 N 
ATOM     13  C   UNL     1      -3.514  -1.183  22.879  0.00  0.00    +0.094 C 
ATOM     14  C   UNL     1      -4.470  -0.795  25.067  0.00  0.00    +0.164 C 
ATOM     15  C   UNL     1      -4.382  -1.839  23.956  0.00  0.00    +0.056 C 
ATOM     16  C   UNL     1      -3.839   0.301  23.012  0.00  0.00    +0.131 C 
ATOM     18  C   UNL     1      -4.555   1.699  25.030  0.00  0.00    +0.264 C 
ENDROOT
BRANCH  13   7
ATOM      4  O   UNL     1      -1.380   0.718  22.685  0.00  0.00    -0.253 OA
ATOM      7  N   UNL     1      -2.109  -1.441  23.073  0.00  0.00    -0.295 N 
ATOM     10  N   UNL     1       0.141  -0.994  23.201  0.00  0.00    -0.269 N 
ATOM     21  C   UNL     1      -1.124  -0.451  22.960  0.00  0.00    +0.304 C 
ATOM     43  H   UNL     1      -1.813  -2.399  23.236  0.00  0.00    +0.151 HD
ATOM     45  H   UNL     1       0.178  -1.987  23.416  0.00  0.00    +0.156 HD
BRANCH  10  32
ATOM     32  C   UNL     1       1.389  -0.328  23.183  0.00  0.00    +0.036 A 
ATOM     37  C   UNL     1       2.556  -1.024  23.500  0.00  0.00    +0.038 A 
ATOM     38  C   UNL     1       1.453   1.024  22.848  0.00  0.00    +0.023 A 
ATOM     39  C   UNL     1       3.786  -0.368  23.482  0.00  0.00    +0.009 A 
ATOM     40  C   UNL     1       2.683   1.681  22.831  0.00  0.00    +0.003 A 
ATOM     41  C   UNL     1       3.850   0.986  23.147  0.00  0.00    +0.015 A 
BRANCH  39   1
ATOM      1  S   UNL     1       5.279  -1.256  23.884  0.00  0.00    -0.129 S 
ATOM     42  C   UNL     1       6.550  -0.194  23.142  0.00  0.00    +0.090 C 
ENDBRANCH  39   1
ENDBRANCH  10  32
ENDBRANCH  13   7
BRANCH  18  20
ATOM      9  N   UNL     1      -4.912   4.130  24.547  0.00  0.00    -0.346 N 
ATOM     20  C   UNL     1      -4.403   2.901  24.219  0.00  0.00    +0.104 A 
ATOM     24  C   UNL     1      -3.744   3.024  23.016  0.00  0.00    +0.032 A 
ATOM     26  C   UNL     1      -4.589   5.036  23.571  0.00  0.00    +0.086 A 
ATOM     28  C   UNL     1      -3.862   4.375  22.605  0.00  0.00    +0.020 A 
ATOM     29  C   UNL     1      -5.676   4.441  25.736  0.00  0.00    +0.149 C 
ENDBRANCH  18  20
BRANCH  14  17
ATOM      2  O   UNL     1      -3.553  -1.726  27.065  0.00  0.00    -0.274 OA
ATOM      8  N   UNL     1      -2.259  -0.253  25.810  0.00  0.00    -0.302 N 
ATOM     17  C   UNL     1      -3.394  -0.994  26.092  0.00  0.00    +0.234 C 
ATOM     44  H   UNL     1      -2.207   0.251  24.930  0.00  0.00    +0.150 HD
BRANCH   8  19
ATOM     19  C   UNL     1      -1.087  -0.251  26.656  0.00  0.00    +0.163 C 
BRANCH  19  25
ATOM      5  O   UNL     1      -0.522  -2.269  25.425  0.00  0.00    -0.274 OA
ATOM     12  N   UNL     1       0.522  -1.879  27.434  0.00  0.00    -0.328 N 
ATOM     25  C   UNL     1      -0.366  -1.572  26.425  0.00  0.00    +0.231 C 
ATOM     47  H   UNL     1       0.657  -1.282  28.243  0.00  0.00    +0.145 HD
ATOM     48  H   UNL     1       1.078  -2.727  27.397  0.00  0.00    +0.145 HD
ENDBRANCH  19  25
BRANCH  19  22
ATOM     22  C   UNL     1      -0.154   0.928  26.354  0.00  0.00    +0.069 C 
BRANCH  22  23
ATOM     11  N   UNL     1      -2.239   3.918  26.827  0.00  0.00    -0.360 N 
ATOM     23  C   UNL     1      -0.867   2.249  26.317  0.00  0.00    -0.020 A 
ATOM     27  C   UNL     1      -0.661   3.299  25.378  0.00  0.00    +0.003 A 
ATOM     30  C   UNL     1      -1.843   2.661  27.196  0.00  0.00    +0.087 A 
ATOM     31  C   UNL     1      -1.534   4.334  25.720  0.00  0.00    +0.047 A 
ATOM     33  C   UNL     1       0.187   3.467  24.265  0.00  0.00    +0.010 A 
ATOM     34  C   UNL     1      -1.601   5.533  25.002  0.00  0.00    +0.026 A 
ATOM     35  C   UNL     1       0.131   4.662  23.539  0.00  0.00    +0.001 A 
ATOM     36  C   UNL     1      -0.750   5.677  23.903  0.00  0.00    +0.002 A 
ATOM     46  H   UNL     1      -2.946   4.464  27.299  0.00  0.00    +0.165 HD
ENDBRANCH  22  23
ENDBRANCH  19  22
ENDBRANCH   8  19
ENDBRANCH  14  17
TORSDOF 9
ENDMDL
MODEL 6
REMARK VINA RESULT:      15.1      2.849      7.130
REMARK  Name = 11882032
REMARK  11 active torsions:
REMARK  status: ('A' for Active; 'I' for Inactive)
REMARK    1  A    between atoms: S_1  and  C_39
REMARK    2  A    between atoms: S_1  and  C_42
REMARK    3  A    between atoms: N_7  and  C_13
REMARK    4  A    between atoms: N_8  and  C_19
REMARK    5  A    between atoms: N_9  and  C_29
REMARK    6  A    between atoms: N_10  and  C_32
REMARK    7  A    between atoms: C_14  and  C_17
REMARK    8  A    between atoms: C_18  and  C_20
REMARK    9  A    between atoms: C_19  and  C_22
REMARK   10  A    between atoms: C_19  and  C_25
REMARK   11  A    between atoms: C_22  and  C_23
REMARK                            x       y       z     vdW  Elec       q    Type
REMARK                         _______ _______ _______ _____ _____    ______ ____
ROOT
ATOM      3  O   UNL     1       0.942  -1.124  21.567  0.00  0.00    -0.268 OA
ATOM      6  N   UNL     1       0.877  -1.247  23.869  0.00  0.00    -0.283 N 
ATOM     13  C   UNL     1       0.347  -1.506  26.174  0.00  0.00    +0.094 C 
ATOM     14  C   UNL     1      -0.261  -2.153  23.924  0.00  0.00    +0.164 C 
ATOM     15  C   UNL     1      -0.326  -2.626  25.375  0.00  0.00    +0.056 C 
ATOM     16  C   UNL     1       1.392  -0.957  25.210  0.00  0.00    +0.131 C 
ATOM     18  C   UNL     1       1.439  -0.838  22.656  0.00  0.00    +0.264 C 
ENDROOT
BRANCH  13   7
ATOM      4  O   UNL     1       0.178   1.171  25.170  0.00  0.00    -0.253 OA
ATOM      7  N   UNL     1      -0.587  -0.489  26.587  0.00  0.00    -0.295 N 
ATOM     10  N   UNL     1      -1.614   1.566  26.634  0.00  0.00    -0.269 N 
ATOM     21  C   UNL     1      -0.604   0.802  26.043  0.00  0.00    +0.304 C 
ATOM     43  H   UNL     1      -1.220  -0.697  27.353  0.00  0.00    +0.151 HD
ATOM     45  H   UNL     1      -2.175   1.107  27.347  0.00  0.00    +0.156 HD
BRANCH  10  32
ATOM     32  C   UNL     1      -1.957   2.912  26.364  0.00  0.00    +0.036 A 
ATOM     37  C   UNL     1      -1.192   3.660  25.467  0.00  0.00    +0.038 A 
ATOM     38  C   UNL     1      -3.058   3.491  26.993  0.00  0.00    +0.023 A 
ATOM     39  C   UNL     1      -1.530   4.986  25.200  0.00  0.00    +0.009 A 
ATOM     40  C   UNL     1      -3.396   4.818  26.727  0.00  0.00    +0.003 A 
ATOM     41  C   UNL     1      -2.632   5.566  25.831  0.00  0.00    +0.015 A 
BRANCH  39   1
ATOM      1  S   UNL     1      -0.557   5.942  24.054  0.00  0.00    -0.129 S 
ATOM     42  C   UNL     1       0.262   4.640  23.090  0.00  0.00    +0.090 C 
ENDBRANCH  39   1
ENDBRANCH  10  32
ENDBRANCH  13   7
BRANCH  18  20
ATOM      9  N   UNL     1       3.860  -0.469  23.179  0.00  0.00    -0.346 N 
ATOM     20  C   UNL     1       2.642  -0.019  22.741  0.00  0.00    +0.104 A 
ATOM     24  C   UNL     1       2.776   1.312  22.413  0.00  0.00    +0.032 A 
ATOM     26  C   UNL     1       4.771   0.555  23.134  0.00  0.00    +0.086 A 
ATOM     28  C   UNL     1       4.123   1.675  22.662  0.00  0.00    +0.020 A 
ATOM     29  C   UNL     1       4.157  -1.813  23.622  0.00  0.00    +0.149 C 
ENDBRANCH  18  20
BRANCH  14  17
ATOM      2  O   UNL     1      -1.473  -0.484  22.721  0.00  0.00    -0.274 OA
ATOM      8  N   UNL     1      -2.619  -1.852  24.216  0.00  0.00    -0.302 N 
ATOM     17  C   UNL     1      -1.499  -1.402  23.537  0.00  0.00    +0.234 C 
ATOM     44  H   UNL     1      -2.537  -2.676  24.805  0.00  0.00    +0.150 HD
BRANCH   8  19
ATOM     19  C   UNL     1      -3.934  -1.279  24.040  0.00  0.00    +0.163 C 
BRANCH  19  25
ATOM      5  O   UNL     1      -6.077  -2.273  23.474  0.00  0.00    -0.274 OA
ATOM     12  N   UNL     1      -4.212  -3.614  23.482  0.00  0.00    -0.328 N 
ATOM     25  C   UNL     1      -4.870  -2.415  23.655  0.00  0.00    +0.231 C 
ATOM     47  H   UNL     1      -3.210  -3.711  23.612  0.00  0.00    +0.145 HD
ATOM     48  H   UNL     1      -4.718  -4.451  23.210  0.00  0.00    +0.145 HD
ENDBRANCH  19  25
BRANCH  19  22
ATOM     22  C   UNL     1      -4.436  -0.577  25.308  0.00  0.00    +0.069 C 
BRANCH  22  23
ATOM     11  N   UNL     1      -5.887   2.800  25.234  0.00  0.00    -0.360 N 
ATOM     23  C   UNL     1      -4.837   0.851  25.071  0.00  0.00    -0.020 A 
ATOM     27  C   UNL     1      -4.263   1.747  24.126  0.00  0.00    +0.003 A 
ATOM     30  C   UNL     1      -5.832   1.528  25.737  0.00  0.00    +0.087 A 
ATOM     31  C   UNL     1      -4.939   2.963  24.248  0.00  0.00    +0.047 A 
ATOM     33  C   UNL     1      -3.229   1.640  23.173  0.00  0.00    +0.010 A 
ATOM     34  C   UNL     1      -4.633   4.080  23.464  0.00  0.00    +0.026 A 
ATOM     35  C   UNL     1      -2.912   2.750  22.383  0.00  0.00    +0.001 A 
ATOM     36  C   UNL     1      -3.604   3.950  22.527  0.00  0.00    +0.002 A 
ATOM     46  H   UNL     1      -6.529   3.517  25.541  0.00  0.00    +0.165 HD
ENDBRANCH  22  23
ENDBRANCH  19  22
ENDBRANCH   8  19
ENDBRANCH  14  17
TORSDOF 9
ENDMDL
