MODEL 1
REMARK VINA RESULT:      -3.4      0.000      0.000
REMARK  Name = 7134477
REMARK  11 active torsions:
REMARK  status: ('A' for Active; 'I' for Inactive)
REMARK    1  A    between atoms: O_4  and  C_15
REMARK    2  A    between atoms: O_5  and  C_18
REMARK    3  A    between atoms: O_6  and  C_20
REMARK    4  A    between atoms: O_10  and  C_31
REMARK    5  A    between atoms: O_10  and  C_32
REMARK    6  A    between atoms: N_11  and  C_16
REMARK    7  A    between atoms: N_12  and  C_23
REMARK    8  A    between atoms: N_13  and  C_26
REMARK    9  A    between atoms: C_15  and  C_21
REMARK   10  A    between atoms: C_23  and  C_24
REMARK   11  A    between atoms: C_23  and  C_25
REMARK                            x       y       z     vdW  Elec       q    Type
REMARK                         _______ _______ _______ _____ _____    ______ ____
ROOT
ATOM     15  C   UNL     1      -9.833  -9.658  13.259  0.00  0.00    +0.146 C 
ATOM     16  C   UNL     1      -8.355 -10.470  11.357  0.00  0.00    +0.109 C 
ATOM     17  C   UNL     1      -8.423 -10.079  12.837  0.00  0.00    +0.069 C 
ATOM     18  C   UNL     1      -8.918  -9.368  10.449  0.00  0.00    +0.163 C 
ATOM     19  C   UNL     1     -10.373  -8.548  12.360  0.00  0.00    +0.078 C 
ATOM     20  C   UNL     1     -10.320  -8.929  10.880  0.00  0.00    +0.148 C 
ENDROOT
BRANCH  16  11
ATOM      8  O   UNL     1      -6.028  -8.916  11.967  0.00  0.00    -0.252 OA
ATOM     11  N   UNL     1      -6.989 -10.780  10.996  0.00  0.00    -0.294 N 
ATOM     13  N   UNL     1      -4.716 -10.515  10.856  0.00  0.00    -0.269 N 
ATOM     22  C   UNL     1      -5.908  -9.963  11.335  0.00  0.00    +0.304 C 
ATOM     33  H   UNL     1      -6.818 -11.589  10.407  0.00  0.00    +0.151 HD
ATOM     38  H   UNL     1      -4.792 -11.393  10.350  0.00  0.00    +0.156 HD
BRANCH  13  26
ATOM     26  C   UNL     1      -3.406  -9.999  10.988  0.00  0.00    +0.035 A 
ATOM     27  C   UNL     1      -2.577 -10.454  12.012  0.00  0.00    +0.027 A 
ATOM     28  C   UNL     1      -2.943  -9.037  10.091  0.00  0.00    +0.027 A 
ATOM     29  C   UNL     1      -1.284  -9.946  12.142  0.00  0.00    +0.048 A 
ATOM     30  C   UNL     1      -1.650  -8.528  10.220  0.00  0.00    +0.048 A 
ATOM     31  C   UNL     1      -0.821  -8.983  11.246  0.00  0.00    +0.130 A 
BRANCH  31  10
ATOM     10  O   UNL     1       0.441  -8.489  11.370  0.00  0.00    -0.406 OA
BRANCH  10  32
ATOM      1  F   UNL     1      -0.182  -6.507  12.254  0.00  0.00    -0.133 F 
ATOM      2  F   UNL     1       0.508  -8.069  13.618  0.00  0.00    -0.133 F 
ATOM      3  F   UNL     1       1.940  -7.028  12.294  0.00  0.00    -0.133 F 
ATOM     32  C   UNL     1       0.691  -7.531  12.393  0.00  0.00    +0.575 C 
ENDBRANCH  10  32
ENDBRANCH  31  10
ENDBRANCH  13  26
ENDBRANCH  16  11
BRANCH  15  21
ATOM      7  O   UNL     1     -10.129  -8.063  15.012  0.00  0.00    -0.273 OA
ATOM     12  N   UNL     1      -9.488 -10.234  15.559  0.00  0.00    -0.302 N 
ATOM     21  C   UNL     1      -9.846  -9.215  14.693  0.00  0.00    +0.245 C 
ATOM     37  H   UNL     1      -9.234 -11.145  15.193  0.00  0.00    +0.150 HD
BRANCH  12  23
ATOM     23  C   UNL     1      -9.403 -10.060  16.991  0.00  0.00    +0.156 C 
ATOM     24  C   UNL     1     -10.410  -9.030  17.477  0.00  0.00    +0.038 C 
BRANCH  23  25
ATOM      9  O   UNL     1      -7.183  -9.196  16.513  0.00  0.00    -0.274 OA
ATOM     14  N   UNL     1      -7.699  -9.762  18.679  0.00  0.00    -0.328 N 
ATOM     25  C   UNL     1      -7.983  -9.637  17.335  0.00  0.00    +0.231 C 
ATOM     39  H   UNL     1      -6.789  -9.501  19.045  0.00  0.00    +0.145 HD
ATOM     40  H   UNL     1      -8.377 -10.109  19.350  0.00  0.00    +0.145 HD
ENDBRANCH  23  25
ENDBRANCH  12  23
ENDBRANCH  15  21
BRANCH  15   4
ATOM      4  O   UNL     1     -10.719 -10.770  13.209  0.00  0.00    -0.379 OA
ATOM     34  H   UNL     1     -10.344 -11.487  13.748  0.00  0.00    +0.211 HD
ENDBRANCH  15   4
BRANCH  18   5
ATOM      5  O   UNL     1      -9.013  -9.869   9.112  0.00  0.00    -0.387 OA
ATOM     35  H   UNL     1      -9.772  -9.439   8.682  0.00  0.00    +0.210 HD
ENDBRANCH  18   5
BRANCH  20   6
ATOM      6  O   UNL     1     -10.698  -7.795  10.098  0.00  0.00    -0.389 OA
ATOM     36  H   UNL     1     -11.133  -8.127   9.294  0.00  0.00    +0.210 HD
ENDBRANCH  20   6
TORSDOF 10
ENDMDL
