MODEL 1
REMARK VINA RESULT:       3.8      0.000      0.000
REMARK  Name = 11867502
REMARK  8 active torsions:
REMARK  status: ('A' for Active; 'I' for Inactive)
REMARK    1  A    between atoms: O_3  and  C_14
REMARK    2  A    between atoms: O_3  and  C_18
REMARK    3  A    between atoms: N_5  and  C_13
REMARK    4  A    between atoms: N_9  and  C_22
REMARK    5  A    between atoms: N_10  and  C_25
REMARK    6  A    between atoms: N_10  and  C_32
REMARK    7  A    between atoms: N_10  and  C_33
REMARK    8  A    between atoms: C_17  and  C_19
REMARK                            x       y       z     vdW  Elec       q    Type
REMARK                         _______ _______ _______ _____ _____    ______ ____
ROOT
ATOM      1  O   UNL     1      -1.955  -0.675  24.767  0.00  0.00    -0.368 OA
ATOM      2  O   UNL     1      -0.399  -3.241  25.509  0.00  0.00    -0.368 OA
ATOM     11  C   UNL     1      -0.229  -2.276  24.447  0.00  0.00    +0.177 C 
ATOM     12  C   UNL     1      -1.618  -1.852  24.015  0.00  0.00    +0.192 C 
ATOM     13  C   UNL     1       0.399  -1.013  25.002  0.00  0.00    +0.168 C 
ATOM     14  C   UNL     1      -2.468  -3.033  24.419  0.00  0.00    +0.235 C 
ATOM     15  C   UNL     1      -0.809  -0.232  25.507  0.00  0.00    +0.190 C 
ATOM     16  C   UNL     1      -1.799  -3.482  25.697  0.00  0.00    +0.207 C 
ENDROOT
BRANCH  13   5
ATOM      5  N   UNL     1       1.229  -0.318  24.016  0.00  0.00    -0.217 N 
ATOM      6  N   UNL     1       2.144  -0.986  23.306  0.00  0.00    -0.043 NA
ATOM      7  N   UNL     1       2.141   1.170  22.739  0.00  0.00    -0.108 NA
ATOM      8  N   UNL     1       2.701  -0.069  22.525  0.00  0.00    -0.023 NA
ATOM     17  C   UNL     1       1.230   0.992  23.667  0.00  0.00    +0.182 A 
BRANCH  17  19
ATOM     19  C   UNL     1       0.365   1.992  24.238  0.00  0.00    +0.021 A 
ATOM     20  C   UNL     1       0.118   3.179  23.545  0.00  0.00    +0.013 A 
ATOM     21  C   UNL     1      -0.227   1.778  25.484  0.00  0.00    +0.013 A 
ATOM     23  C   UNL     1      -0.719   4.149  24.097  0.00  0.00    +0.024 A 
ATOM     24  C   UNL     1      -1.063   2.749  26.036  0.00  0.00    +0.024 A 
ATOM     25  C   UNL     1      -1.310   3.934  25.343  0.00  0.00    +0.029 A 
BRANCH  25  10
ATOM     10  N   UNL     1      -2.155   4.914  25.900  0.00  0.00    -0.336 N 
ATOM     32  C   UNL     1      -3.032   4.585  27.007  0.00  0.00    +0.129 C 
ATOM     33  C   UNL     1      -2.168   6.262  25.366  0.00  0.00    +0.129 C 
ENDBRANCH  25  10
ENDBRANCH  17  19
ENDBRANCH  13   5
BRANCH  14   3
ATOM      3  O   UNL     1      -3.826  -2.710  24.613  0.00  0.00    -0.442 OA
BRANCH   3  18
ATOM      4  O   UNL     1      -4.475  -1.268  22.962  0.00  0.00    -0.226 OA
ATOM      9  N   UNL     1      -4.363  -0.601  25.203  0.00  0.00    -0.251 N 
ATOM     18  C   UNL     1      -4.249  -1.483  24.147  0.00  0.00    +0.405 C 
ATOM     37  H   UNL     1      -4.125  -0.999  26.104  0.00  0.00    +0.158 HD
BRANCH   9  22
ATOM     22  C   UNL     1      -4.765   0.753  25.167  0.00  0.00    +0.044 A 
ATOM     26  C   UNL     1      -4.265   1.634  24.203  0.00  0.00    +0.003 A 
ATOM     27  C   UNL     1      -5.676   1.168  26.130  0.00  0.00    +0.024 A 
ATOM     28  C   UNL     1      -4.705   2.979  24.216  0.00  0.00    -0.016 A 
ATOM     29  C   UNL     1      -3.345   1.221  23.226  0.00  0.00    +0.010 A 
ATOM     30  C   UNL     1      -6.107   2.491  26.143  0.00  0.00    +0.002 A 
ATOM     31  C   UNL     1      -5.626   3.392  25.193  0.00  0.00    +0.008 A 
ATOM     34  C   UNL     1      -4.210   3.873  23.252  0.00  0.00    +0.008 A 
ATOM     35  C   UNL     1      -2.864   2.122  22.276  0.00  0.00    +0.001 A 
ATOM     36  C   UNL     1      -3.296   3.446  22.289  0.00  0.00    +0.001 A 
ENDBRANCH   9  22
ENDBRANCH   3  18
ENDBRANCH  14   3
TORSDOF 6
ENDMDL
MODEL 2
REMARK VINA RESULT:       5.0      2.091      5.934
REMARK  Name = 11867502
REMARK  8 active torsions:
REMARK  status: ('A' for Active; 'I' for Inactive)
REMARK    1  A    between atoms: O_3  and  C_14
REMARK    2  A    between atoms: O_3  and  C_18
REMARK    3  A    between atoms: N_5  and  C_13
REMARK    4  A    between atoms: N_9  and  C_22
REMARK    5  A    between atoms: N_10  and  C_25
REMARK    6  A    between atoms: N_10  and  C_32
REMARK    7  A    between atoms: N_10  and  C_33
REMARK    8  A    between atoms: C_17  and  C_19
REMARK                            x       y       z     vdW  Elec       q    Type
REMARK                         _______ _______ _______ _____ _____    ______ ____
ROOT
ATOM      1  O   UNL     1      -2.400  -0.068  24.862  0.00  0.00    -0.368 OA
ATOM      2  O   UNL     1      -4.588  -1.969  23.788  0.00  0.00    -0.368 OA
ATOM     11  C   UNL     1      -4.566  -1.044  24.898  0.00  0.00    +0.177 C 
ATOM     12  C   UNL     1      -3.172  -1.104  25.490  0.00  0.00    +0.192 C 
ATOM     13  C   UNL     1      -4.698   0.375  24.380  0.00  0.00    +0.168 C 
ATOM     14  C   UNL     1      -2.697  -2.478  25.082  0.00  0.00    +0.235 C 
ATOM     15  C   UNL     1      -3.256   0.748  24.051  0.00  0.00    +0.190 C 
ATOM     16  C   UNL     1      -3.322  -2.638  23.717  0.00  0.00    +0.207 C 
ENDROOT
BRANCH  13   5
ATOM      5  N   UNL     1      -5.374   1.259  25.332  0.00  0.00    -0.217 N 
ATOM      6  N   UNL     1      -6.520   0.887  25.910  0.00  0.00    -0.043 NA
ATOM      7  N   UNL     1      -5.915   2.912  26.617  0.00  0.00    -0.108 NA
ATOM      8  N   UNL     1      -6.847   1.904  26.697  0.00  0.00    -0.023 NA
ATOM     17  C   UNL     1      -5.009   2.491  25.765  0.00  0.00    +0.182 A 
BRANCH  17  19
ATOM     19  C   UNL     1      -3.823   3.191  25.342  0.00  0.00    +0.021 A 
ATOM     20  C   UNL     1      -2.667   3.143  26.124  0.00  0.00    +0.013 A 
ATOM     21  C   UNL     1      -3.827   3.918  24.151  0.00  0.00    +0.013 A 
ATOM     23  C   UNL     1      -1.519   3.820  25.716  0.00  0.00    +0.024 A 
ATOM     24  C   UNL     1      -2.678   4.597  23.743  0.00  0.00    +0.024 A 
ATOM     25  C   UNL     1      -1.524   4.548  24.525  0.00  0.00    +0.029 A 
BRANCH  25  10
ATOM     10  N   UNL     1      -0.363   5.233  24.113  0.00  0.00    -0.336 N 
ATOM     32  C   UNL     1       0.302   6.156  25.011  0.00  0.00    +0.129 C 
ATOM     33  C   UNL     1       0.174   5.032  22.781  0.00  0.00    +0.129 C 
ENDBRANCH  25  10
ENDBRANCH  17  19
ENDBRANCH  13   5
BRANCH  14   3
ATOM      3  O   UNL     1      -1.293  -2.600  25.042  0.00  0.00    -0.442 OA
BRANCH   3  18
ATOM      4  O   UNL     1      -0.557  -0.766  26.192  0.00  0.00    -0.226 OA
ATOM      9  N   UNL     1       0.122  -1.192  23.993  0.00  0.00    -0.251 N 
ATOM     18  C   UNL     1      -0.561  -1.437  25.168  0.00  0.00    +0.405 C 
ATOM     37  H   UNL     1      -0.029  -1.886  23.271  0.00  0.00    +0.158 HD
BRANCH   9  22
ATOM     22  C   UNL     1       0.984  -0.111  23.697  0.00  0.00    +0.044 A 
ATOM     26  C   UNL     1       2.366  -0.292  23.590  0.00  0.00    +0.003 A 
ATOM     27  C   UNL     1       0.397   1.135  23.519  0.00  0.00    +0.024 A 
ATOM     28  C   UNL     1       3.178   0.827  23.291  0.00  0.00    -0.016 A 
ATOM     29  C   UNL     1       2.966  -1.549  23.769  0.00  0.00    +0.010 A 
ATOM     30  C   UNL     1       1.196   2.235  23.225  0.00  0.00    +0.002 A 
ATOM     31  C   UNL     1       2.579   2.085  23.112  0.00  0.00    +0.008 A 
ATOM     34  C   UNL     1       4.568   0.657  23.181  0.00  0.00    +0.008 A 
ATOM     35  C   UNL     1       4.348  -1.700  23.655  0.00  0.00    +0.001 A 
ATOM     36  C   UNL     1       5.148  -0.599  23.362  0.00  0.00    +0.001 A 
ENDBRANCH   9  22
ENDBRANCH   3  18
ENDBRANCH  14   3
TORSDOF 6
ENDMDL
MODEL 3
REMARK VINA RESULT:       5.3      2.745      7.480
REMARK  Name = 11867502
REMARK  8 active torsions:
REMARK  status: ('A' for Active; 'I' for Inactive)
REMARK    1  A    between atoms: O_3  and  C_14
REMARK    2  A    between atoms: O_3  and  C_18
REMARK    3  A    between atoms: N_5  and  C_13
REMARK    4  A    between atoms: N_9  and  C_22
REMARK    5  A    between atoms: N_10  and  C_25
REMARK    6  A    between atoms: N_10  and  C_32
REMARK    7  A    between atoms: N_10  and  C_33
REMARK    8  A    between atoms: C_17  and  C_19
REMARK                            x       y       z     vdW  Elec       q    Type
REMARK                         _______ _______ _______ _____ _____    ______ ____
ROOT
ATOM      1  O   UNL     1      -1.849   2.434  24.540  0.00  0.00    -0.368 OA
ATOM      2  O   UNL     1      -2.104   5.241  25.809  0.00  0.00    -0.368 OA
ATOM     11  C   UNL     1      -3.036   4.424  25.068  0.00  0.00    +0.177 C 
ATOM     12  C   UNL     1      -2.235   3.708  23.999  0.00  0.00    +0.192 C 
ATOM     13  C   UNL     1      -3.560   3.314  25.958  0.00  0.00    +0.168 C 
ATOM     14  C   UNL     1      -1.045   4.617  23.810  0.00  0.00    +0.235 C 
ATOM     15  C   UNL     1      -2.498   2.230  25.803  0.00  0.00    +0.190 C 
ATOM     16  C   UNL     1      -0.806   5.123  25.213  0.00  0.00    +0.207 C 
ENDROOT
BRANCH  13   5
ATOM      5  N   UNL     1      -4.924   2.911  25.609  0.00  0.00    -0.217 N 
ATOM      6  N   UNL     1      -5.930   3.788  25.678  0.00  0.00    -0.043 NA
ATOM      7  N   UNL     1      -6.677   1.802  24.997  0.00  0.00    -0.108 NA
ATOM      8  N   UNL     1      -7.003   3.103  25.301  0.00  0.00    -0.023 NA
ATOM     17  C   UNL     1      -5.382   1.705  25.195  0.00  0.00    +0.182 A 
BRANCH  17  19
ATOM     19  C   UNL     1      -4.561   0.535  25.012  0.00  0.00    +0.021 A 
ATOM     20  C   UNL     1      -4.095   0.201  23.739  0.00  0.00    +0.013 A 
ATOM     21  C   UNL     1      -4.231  -0.266  26.106  0.00  0.00    +0.013 A 
ATOM     23  C   UNL     1      -3.300  -0.932  23.561  0.00  0.00    +0.024 A 
ATOM     24  C   UNL     1      -3.437  -1.400  25.928  0.00  0.00    +0.024 A 
ATOM     25  C   UNL     1      -2.972  -1.733  24.656  0.00  0.00    +0.029 A 
BRANCH  25  10
ATOM     10  N   UNL     1      -2.169  -2.877  24.475  0.00  0.00    -0.336 N 
ATOM     32  C   UNL     1      -2.423  -3.786  23.375  0.00  0.00    +0.129 C 
ATOM     33  C   UNL     1      -1.087  -3.167  25.395  0.00  0.00    +0.129 C 
ENDBRANCH  25  10
ENDBRANCH  17  19
ENDBRANCH  13   5
BRANCH  14   3
ATOM      3  O   UNL     1       0.086   3.962  23.280  0.00  0.00    -0.442 OA
BRANCH   3  18
ATOM      4  O   UNL     1       0.722   2.903  25.204  0.00  0.00    -0.226 OA
ATOM      9  N   UNL     1       0.839   1.843  23.121  0.00  0.00    -0.251 N 
ATOM     18  C   UNL     1       0.572   2.883  23.989  0.00  0.00    +0.405 C 
ATOM     37  H   UNL     1       0.637   2.049  22.150  0.00  0.00    +0.158 HD
BRANCH   9  22
ATOM     22  C   UNL     1       1.348   0.560  23.430  0.00  0.00    +0.044 A 
ATOM     26  C   UNL     1       2.718   0.291  23.381  0.00  0.00    +0.003 A 
ATOM     27  C   UNL     1       0.425  -0.416  23.783  0.00  0.00    +0.024 A 
ATOM     28  C   UNL     1       3.168  -1.012  23.701  0.00  0.00    -0.016 A 
ATOM     29  C   UNL     1       3.656   1.273  23.025  0.00  0.00    +0.010 A 
ATOM     30  C   UNL     1       0.867  -1.697  24.097  0.00  0.00    +0.002 A 
ATOM     31  C   UNL     1       2.230  -1.996  24.057  0.00  0.00    +0.008 A 
ATOM     34  C   UNL     1       4.543  -1.295  23.655  0.00  0.00    +0.008 A 
ATOM     35  C   UNL     1       5.018   0.975  22.985  0.00  0.00    +0.001 A 
ATOM     36  C   UNL     1       5.461  -0.306  23.299  0.00  0.00    +0.001 A 
ENDBRANCH   9  22
ENDBRANCH   3  18
ENDBRANCH  14   3
TORSDOF 6
ENDMDL
MODEL 4
REMARK VINA RESULT:       5.5      0.677      2.108
REMARK  Name = 11867502
REMARK  8 active torsions:
REMARK  status: ('A' for Active; 'I' for Inactive)
REMARK    1  A    between atoms: O_3  and  C_14
REMARK    2  A    between atoms: O_3  and  C_18
REMARK    3  A    between atoms: N_5  and  C_13
REMARK    4  A    between atoms: N_9  and  C_22
REMARK    5  A    between atoms: N_10  and  C_25
REMARK    6  A    between atoms: N_10  and  C_32
REMARK    7  A    between atoms: N_10  and  C_33
REMARK    8  A    between atoms: C_17  and  C_19
REMARK                            x       y       z     vdW  Elec       q    Type
REMARK                         _______ _______ _______ _____ _____    ______ ____
ROOT
ATOM      1  O   UNL     1      -1.867  -0.471  24.622  0.00  0.00    -0.368 OA
ATOM      2  O   UNL     1      -0.623  -3.250  25.156  0.00  0.00    -0.368 OA
ATOM     11  C   UNL     1      -0.316  -2.218  24.192  0.00  0.00    +0.177 C 
ATOM     12  C   UNL     1      -1.637  -1.606  23.772  0.00  0.00    +0.192 C 
ATOM     13  C   UNL     1       0.428  -1.088  24.876  0.00  0.00    +0.168 C 
ATOM     14  C   UNL     1      -2.621  -2.717  24.046  0.00  0.00    +0.235 C 
ATOM     15  C   UNL     1      -0.705  -0.226  25.426  0.00  0.00    +0.190 C 
ATOM     16  C   UNL     1      -2.047  -3.350  25.290  0.00  0.00    +0.207 C 
ENDROOT
BRANCH  13   5
ATOM      5  N   UNL     1       1.358  -0.403  23.977  0.00  0.00    -0.217 N 
ATOM      6  N   UNL     1       2.296  -1.090  23.318  0.00  0.00    -0.043 NA
ATOM      7  N   UNL     1       2.427   1.078  22.819  0.00  0.00    -0.108 NA
ATOM      8  N   UNL     1       2.949  -0.177  22.609  0.00  0.00    -0.023 NA
ATOM     17  C   UNL     1       1.441   0.915  23.671  0.00  0.00    +0.182 A 
BRANCH  17  19
ATOM     19  C   UNL     1       0.578   1.936  24.206  0.00  0.00    +0.021 A 
ATOM     20  C   UNL     1       0.257   1.939  25.565  0.00  0.00    +0.013 A 
ATOM     21  C   UNL     1       0.061   2.925  23.367  0.00  0.00    +0.013 A 
ATOM     23  C   UNL     1      -0.579   2.927  26.083  0.00  0.00    +0.024 A 
ATOM     24  C   UNL     1      -0.776   3.914  23.886  0.00  0.00    +0.024 A 
ATOM     25  C   UNL     1      -1.096   3.915  25.244  0.00  0.00    +0.029 A 
BRANCH  25  10
ATOM     10  N   UNL     1      -1.941   4.914  25.769  0.00  0.00    -0.336 N 
ATOM     32  C   UNL     1      -2.811   4.624  26.891  0.00  0.00    +0.129 C 
ATOM     33  C   UNL     1      -1.961   6.240  25.184  0.00  0.00    +0.129 C 
ENDBRANCH  25  10
ENDBRANCH  17  19
ENDBRANCH  13   5
BRANCH  14   3
ATOM      3  O   UNL     1      -3.943  -2.264  24.240  0.00  0.00    -0.442 OA
BRANCH   3  18
ATOM      4  O   UNL     1      -4.280  -0.679  25.852  0.00  0.00    -0.226 OA
ATOM      9  N   UNL     1      -4.019  -0.104  23.599  0.00  0.00    -0.251 N 
ATOM     18  C   UNL     1      -4.100  -0.964  24.675  0.00  0.00    +0.405 C 
ATOM     37  H   UNL     1      -3.863  -0.563  22.709  0.00  0.00    +0.158 HD
BRANCH   9  22
ATOM     22  C   UNL     1      -4.126   1.306  23.601  0.00  0.00    +0.044 A 
ATOM     26  C   UNL     1      -4.903   1.973  24.551  0.00  0.00    +0.003 A 
ATOM     27  C   UNL     1      -3.426   1.994  22.619  0.00  0.00    +0.024 A 
ATOM     28  C   UNL     1      -4.972   3.386  24.505  0.00  0.00    -0.016 A 
ATOM     29  C   UNL     1      -5.613   1.284  25.547  0.00  0.00    +0.010 A 
ATOM     30  C   UNL     1      -3.493   3.383  22.572  0.00  0.00    +0.002 A 
ATOM     31  C   UNL     1      -4.262   4.077  23.509  0.00  0.00    +0.008 A 
ATOM     34  C   UNL     1      -5.750   4.069  25.455  0.00  0.00    +0.008 A 
ATOM     35  C   UNL     1      -6.381   1.978  26.484  0.00  0.00    +0.001 A 
ATOM     36  C   UNL     1      -6.449   3.367  26.437  0.00  0.00    +0.001 A 
ENDBRANCH   9  22
ENDBRANCH   3  18
ENDBRANCH  14   3
TORSDOF 6
ENDMDL
MODEL 5
REMARK VINA RESULT:       7.8      1.767      5.384
REMARK  Name = 11867502
REMARK  8 active torsions:
REMARK  status: ('A' for Active; 'I' for Inactive)
REMARK    1  A    between atoms: O_3  and  C_14
REMARK    2  A    between atoms: O_3  and  C_18
REMARK    3  A    between atoms: N_5  and  C_13
REMARK    4  A    between atoms: N_9  and  C_22
REMARK    5  A    between atoms: N_10  and  C_25
REMARK    6  A    between atoms: N_10  and  C_32
REMARK    7  A    between atoms: N_10  and  C_33
REMARK    8  A    between atoms: C_17  and  C_19
REMARK                            x       y       z     vdW  Elec       q    Type
REMARK                         _______ _______ _______ _____ _____    ______ ____
ROOT
ATOM      1  O   UNL     1      -2.787  -0.458  24.999  0.00  0.00    -0.368 OA
ATOM      2  O   UNL     1      -5.089  -1.796  23.429  0.00  0.00    -0.368 OA
ATOM     11  C   UNL     1      -5.067  -1.036  24.657  0.00  0.00    +0.177 C 
ATOM     12  C   UNL     1      -3.790  -1.413  25.382  0.00  0.00    +0.192 C 
ATOM     13  C   UNL     1      -4.902   0.438  24.340  0.00  0.00    +0.168 C 
ATOM     14  C   UNL     1      -3.490  -2.787  24.832  0.00  0.00    +0.235 C 
ATOM     15  C   UNL     1      -3.389   0.590  24.227  0.00  0.00    +0.190 C 
ATOM     16  C   UNL     1      -3.947  -2.663  23.398  0.00  0.00    +0.207 C 
ENDROOT
BRANCH  13   5
ATOM      5  N   UNL     1      -5.548   1.301  25.331  0.00  0.00    -0.217 N 
ATOM      6  N   UNL     1      -6.674   0.913  25.938  0.00  0.00    -0.043 NA
ATOM      7  N   UNL     1      -6.050   2.925  26.668  0.00  0.00    -0.108 NA
ATOM      8  N   UNL     1      -6.978   1.913  26.757  0.00  0.00    -0.023 NA
ATOM     17  C   UNL     1      -5.172   2.524  25.777  0.00  0.00    +0.182 A 
BRANCH  17  19
ATOM     19  C   UNL     1      -4.002   3.236  25.331  0.00  0.00    +0.021 A 
ATOM     20  C   UNL     1      -3.574   3.115  24.007  0.00  0.00    +0.013 A 
ATOM     21  C   UNL     1      -3.294   4.046  26.219  0.00  0.00    +0.013 A 
ATOM     23  C   UNL     1      -2.441   3.803  23.574  0.00  0.00    +0.024 A 
ATOM     24  C   UNL     1      -2.160   4.734  25.786  0.00  0.00    +0.024 A 
ATOM     25  C   UNL     1      -1.734   4.613  24.463  0.00  0.00    +0.029 A 
BRANCH  25  10
ATOM     10  N   UNL     1      -0.588   5.308  24.025  0.00  0.00    -0.336 N 
ATOM     32  C   UNL     1      -0.054   6.408  24.804  0.00  0.00    +0.129 C 
ATOM     33  C   UNL     1       0.063   4.941  22.783  0.00  0.00    +0.129 C 
ENDBRANCH  25  10
ENDBRANCH  17  19
ENDBRANCH  13   5
BRANCH  14   3
ATOM      3  O   UNL     1      -2.130  -3.147  24.928  0.00  0.00    -0.442 OA
BRANCH   3  18
ATOM      4  O   UNL     1      -0.904  -1.764  26.274  0.00  0.00    -0.226 OA
ATOM      9  N   UNL     1      -0.788  -1.627  23.941  0.00  0.00    -0.251 N 
ATOM     18  C   UNL     1      -1.228  -2.127  25.150  0.00  0.00    +0.405 C 
ATOM     37  H   UNL     1      -1.191  -2.083  23.130  0.00  0.00    +0.158 HD
BRANCH   9  22
ATOM     22  C   UNL     1       0.136  -0.581  23.716  0.00  0.00    +0.044 A 
ATOM     26  C   UNL     1       0.177   0.543  24.545  0.00  0.00    +0.003 A 
ATOM     27  C   UNL     1       0.997  -0.721  22.635  0.00  0.00    +0.024 A 
ATOM     28  C   UNL     1       1.125   1.558  24.271  0.00  0.00    -0.016 A 
ATOM     29  C   UNL     1      -0.690   0.691  25.639  0.00  0.00    +0.010 A 
ATOM     30  C   UNL     1       1.928   0.277  22.365  0.00  0.00    +0.002 A 
ATOM     31  C   UNL     1       1.993   1.410  23.177  0.00  0.00    +0.008 A 
ATOM     34  C   UNL     1       1.176   2.692  25.098  0.00  0.00    +0.008 A 
ATOM     35  C   UNL     1      -0.626   1.824  26.451  0.00  0.00    +0.001 A 
ATOM     36  C   UNL     1       0.306   2.823  26.181  0.00  0.00    +0.001 A 
ENDBRANCH   9  22
ENDBRANCH   3  18
ENDBRANCH  14   3
TORSDOF 6
ENDMDL
