MODEL 1
REMARK VINA RESULT:      -3.0      0.000      0.000
REMARK  Name = 45783719
REMARK  7 active torsions:
REMARK  status: ('A' for Active; 'I' for Inactive)
REMARK    1  A    between atoms: O_2  and  C_26
REMARK    2  A    between atoms: O_2  and  C_27
REMARK    3  A    between atoms: N_9  and  C_24
REMARK    4  A    between atoms: N_9  and  C_25
REMARK    5  A    between atoms: C_10  and  C_14
REMARK    6  A    between atoms: C_16  and  C_17
REMARK    7  A    between atoms: C_25  and  C_26
REMARK                            x       y       z     vdW  Elec       q    Type
REMARK                         _______ _______ _______ _____ _____    ______ ____
ROOT
ATOM      1  O   UNL     1      -7.860  -9.209  11.800  0.00  0.00    -0.336 OA
ATOM      4  N   UNL     1      -6.332 -10.496  12.813  0.00  0.00    -0.190 NA
ATOM      7  N   UNL     1      -6.624  -8.861  11.241  0.00  0.00    -0.056 NA
ATOM     14  C   UNL     1      -7.598 -10.178  12.717  0.00  0.00    +0.248 A 
ATOM     16  C   UNL     1      -5.774  -9.662  11.888  0.00  0.00    +0.204 A 
ENDROOT
BRANCH  14  10
ATOM      3  N   UNL     1      -9.143  -9.961  14.676  0.00  0.00    -0.288 N 
ATOM      5  N   UNL     1      -7.322 -10.730  15.894  0.00  0.00    -0.223 NA
ATOM      6  N   UNL     1      -9.048  -9.402  16.927  0.00  0.00    -0.223 NA
ATOM     10  C   UNL     1      -8.791 -10.734  13.473  0.00  0.00    +0.165 C 
ATOM     11  C   UNL     1     -10.078 -10.683  12.629  0.00  0.00    +0.034 C 
ATOM     12  C   UNL     1     -10.719  -9.360  13.018  0.00  0.00    +0.021 C 
ATOM     13  C   UNL     1     -10.408  -9.242  14.506  0.00  0.00    +0.109 C 
ATOM     15  C   UNL     1      -8.474 -10.034  15.885  0.00  0.00    +0.218 A 
ATOM     18  C   UNL     1      -6.698 -10.780  17.090  0.00  0.00    +0.116 A 
ATOM     19  C   UNL     1      -8.370  -9.493  18.091  0.00  0.00    +0.116 A 
ATOM     20  C   UNL     1      -7.180 -10.175  18.233  0.00  0.00    +0.039 A 
ENDBRANCH  14  10
BRANCH  16  17
ATOM      8  N   UNL     1      -2.140 -10.322  12.314  0.00  0.00    -0.240 NA
ATOM     17  C   UNL     1      -4.361  -9.653  11.637  0.00  0.00    +0.041 A 
ATOM     21  C   UNL     1      -3.836  -9.004  10.526  0.00  0.00    +0.016 A 
ATOM     22  C   UNL     1      -3.479 -10.292  12.493  0.00  0.00    +0.124 A 
ATOM     23  C   UNL     1      -2.461  -9.013  10.308  0.00  0.00    +0.044 A 
ATOM     24  C   UNL     1      -1.664  -9.681  11.224  0.00  0.00    +0.119 A 
BRANCH  24   9
ATOM      9  N   UNL     1      -0.267  -9.681  10.988  0.00  0.00    -0.327 N 
ATOM     28  H   UNL     1       0.133 -10.546  10.645  0.00  0.00    +0.148 HD
BRANCH   9  25
ATOM     25  C   UNL     1       0.553  -8.536  11.216  0.00  0.00    +0.131 C 
BRANCH  25  26
ATOM     26  C   UNL     1       0.153  -7.860  12.516  0.00  0.00    +0.178 C 
BRANCH  26   2
ATOM      2  O   UNL     1       0.691  -6.544  12.550  0.00  0.00    -0.381 OA
ATOM     27  C   UNL     1       2.082  -6.543  12.260  0.00  0.00    +0.194 C 
ENDBRANCH  26   2
ENDBRANCH  25  26
ENDBRANCH   9  25
ENDBRANCH  24   9
ENDBRANCH  16  17
TORSDOF 6
ENDMDL
MODEL 2
REMARK VINA RESULT:      -1.3     23.839     25.290
REMARK  Name = 45783719
REMARK  7 active torsions:
REMARK  status: ('A' for Active; 'I' for Inactive)
REMARK    1  A    between atoms: O_2  and  C_26
REMARK    2  A    between atoms: O_2  and  C_27
REMARK    3  A    between atoms: N_9  and  C_24
REMARK    4  A    between atoms: N_9  and  C_25
REMARK    5  A    between atoms: C_10  and  C_14
REMARK    6  A    between atoms: C_16  and  C_17
REMARK    7  A    between atoms: C_25  and  C_26
REMARK                            x       y       z     vdW  Elec       q    Type
REMARK                         _______ _______ _______ _____ _____    ______ ____
ROOT
ATOM      1  O   UNL     1      12.358  -6.845  30.799  0.00  0.00    -0.336 OA
ATOM      4  N   UNL     1      14.351  -7.804  30.444  0.00  0.00    -0.190 NA
ATOM      7  N   UNL     1      12.858  -6.280  29.619  0.00  0.00    -0.056 NA
ATOM     14  C   UNL     1      13.299  -7.732  31.219  0.00  0.00    +0.248 A 
ATOM     16  C   UNL     1      14.035  -6.896  29.476  0.00  0.00    +0.204 A 
ENDROOT
BRANCH  14  10
ATOM      3  N   UNL     1      11.808  -9.362  32.401  0.00  0.00    -0.288 N 
ATOM      5  N   UNL     1      10.304  -7.594  32.441  0.00  0.00    -0.223 NA
ATOM      6  N   UNL     1       9.550  -9.881  32.550  0.00  0.00    -0.223 NA
ATOM     10  C   UNL     1      12.990  -8.490  32.498  0.00  0.00    +0.165 C 
ATOM     11  C   UNL     1      14.121  -9.464  32.873  0.00  0.00    +0.034 C 
ATOM     12  C   UNL     1      13.694 -10.781  32.245  0.00  0.00    +0.021 C 
ATOM     13  C   UNL     1      12.179 -10.779  32.419  0.00  0.00    +0.109 C 
ATOM     15  C   UNL     1      10.497  -8.926  32.466  0.00  0.00    +0.218 A 
ATOM     18  C   UNL     1       9.014  -7.205  32.506  0.00  0.00    +0.116 A 
ATOM     19  C   UNL     1       8.283  -9.421  32.612  0.00  0.00    +0.116 A 
ATOM     20  C   UNL     1       7.952  -8.082  32.594  0.00  0.00    +0.039 A 
ENDBRANCH  14  10
BRANCH  16  17
ATOM      8  N   UNL     1      15.251  -6.441  25.992  0.00  0.00    -0.240 NA
ATOM     17  C   UNL     1      14.919  -6.626  28.379  0.00  0.00    +0.041 A 
ATOM     21  C   UNL     1      16.253  -6.298  28.598  0.00  0.00    +0.016 A 
ATOM     22  C   UNL     1      14.472  -6.683  27.070  0.00  0.00    +0.124 A 
ATOM     23  C   UNL     1      17.086  -6.042  27.514  0.00  0.00    +0.044 A 
ATOM     24  C   UNL     1      16.541  -6.125  26.243  0.00  0.00    +0.119 A 
BRANCH  24   9
ATOM      9  N   UNL     1      17.403  -5.861  25.150  0.00  0.00    -0.327 N 
ATOM     28  H   UNL     1      18.246  -6.419  25.094  0.00  0.00    +0.148 HD
BRANCH   9  25
ATOM     25  C   UNL     1      17.120  -4.864  24.169  0.00  0.00    +0.131 C 
BRANCH  25  26
ATOM     26  C   UNL     1      16.998  -3.503  24.830  0.00  0.00    +0.178 C 
BRANCH  26   2
ATOM      2  O   UNL     1      16.090  -2.696  24.089  0.00  0.00    -0.381 OA
ATOM     27  C   UNL     1      16.775  -1.733  23.300  0.00  0.00    +0.194 C 
ENDBRANCH  26   2
ENDBRANCH  25  26
ENDBRANCH   9  25
ENDBRANCH  24   9
ENDBRANCH  16  17
TORSDOF 6
ENDMDL
