MODEL 1
REMARK VINA RESULT:      -3.5      0.000      0.000
REMARK  Name = 11865816
REMARK  11 active torsions:
REMARK  status: ('A' for Active; 'I' for Inactive)
REMARK    1  A    between atoms: S_1  and  C_18
REMARK    2  A    between atoms: S_1  and  C_25
REMARK    3  A    between atoms: N_7  and  C_11
REMARK    4  A    between atoms: N_8  and  C_19
REMARK    5  A    between atoms: N_8  and  C_20
REMARK    6  A    between atoms: N_9  and  C_21
REMARK    7  A    between atoms: C_12  and  C_15
REMARK    8  A    between atoms: C_16  and  C_18
REMARK    9  A    between atoms: C_19  and  C_22
REMARK   10  A    between atoms: C_21  and  C_23
REMARK   11  A    between atoms: C_21  and  C_24
REMARK                            x       y       z     vdW  Elec       q    Type
REMARK                         _______ _______ _______ _____ _____    ______ ____
ROOT
ATOM      3  O   UNL     1      -3.265  -0.782  26.124  0.00  0.00    -0.275 OA
ATOM      6  N   UNL     1      -1.533  -0.076  24.761  0.00  0.00    -0.287 N 
ATOM     11  C   UNL     1      -0.311   1.949  24.589  0.00  0.00    +0.105 C 
ATOM     12  C   UNL     1      -1.612   1.339  25.111  0.00  0.00    +0.182 C 
ATOM     13  C   UNL     1       0.064   1.041  23.416  0.00  0.00    +0.043 C 
ATOM     14  C   UNL     1      -0.418  -0.336  23.853  0.00  0.00    +0.110 C 
ATOM     16  C   UNL     1      -2.331  -1.037  25.362  0.00  0.00    +0.226 C 
ENDROOT
BRANCH  11   7
ATOM      4  O   UNL     1      -0.446   3.181  27.196  0.00  0.00    -0.253 OA
ATOM      7  N   UNL     1       0.710   1.939  25.610  0.00  0.00    -0.294 N 
ATOM      9  N   UNL     1       1.693   2.399  27.637  0.00  0.00    -0.297 N 
ATOM     17  C   UNL     1       0.559   2.564  26.846  0.00  0.00    +0.300 C 
ATOM     26  H   UNL     1       1.609   1.519  25.392  0.00  0.00    +0.151 HD
ATOM     27  H   UNL     1       2.442   1.808  27.290  0.00  0.00    +0.150 HD
BRANCH   9  21
ATOM     21  C   UNL     1       1.805   2.946  28.969  0.00  0.00    +0.068 C 
ATOM     23  C   UNL     1       1.545   1.868  30.013  0.00  0.00    +0.027 C 
ATOM     24  C   UNL     1       3.172   3.588  29.165  0.00  0.00    +0.027 C 
ENDBRANCH   9  21
ENDBRANCH  11   7
BRANCH  12  15
ATOM      2  O   UNL     1      -3.191   1.340  23.354  0.00  0.00    -0.273 OA
ATOM      8  N   UNL     1      -3.412   3.015  24.952  0.00  0.00    -0.294 N 
ATOM     15  C   UNL     1      -2.806   1.890  24.389  0.00  0.00    +0.238 C 
ATOM     20  C   UNL     1      -2.922   3.634  26.176  0.00  0.00    +0.132 C 
BRANCH   8  19
ATOM     19  C   UNL     1      -4.581   3.653  24.352  0.00  0.00    +0.202 C 
BRANCH  19  22
ATOM      5  O   UNL     1      -6.258   4.639  25.793  0.00  0.00    -0.274 OA
ATOM     10  N   UNL     1      -6.091   2.348  25.688  0.00  0.00    -0.328 N 
ATOM     22  C   UNL     1      -5.732   3.631  25.331  0.00  0.00    +0.228 C 
ATOM     28  H   UNL     1      -5.630   1.528  25.310  0.00  0.00    +0.145 HD
ATOM     29  H   UNL     1      -6.841   2.184  26.350  0.00  0.00    +0.145 HD
ENDBRANCH  19  22
ENDBRANCH   8  19
ENDBRANCH  12  15
BRANCH  16  18
ATOM     18  C   UNL     1      -1.998  -2.467  25.018  0.00  0.00    +0.164 C 
BRANCH  18   1
ATOM      1  S   UNL     1      -3.538  -3.309  24.630  0.00  0.00    -0.155 S 
ATOM     25  C   UNL     1      -4.303  -2.033  23.599  0.00  0.00    +0.085 C 
ENDBRANCH  18   1
ENDBRANCH  16  18
TORSDOF 7
ENDMDL
MODEL 2
REMARK VINA RESULT:      -3.0      2.702      3.418
REMARK  Name = 11865816
REMARK  11 active torsions:
REMARK  status: ('A' for Active; 'I' for Inactive)
REMARK    1  A    between atoms: S_1  and  C_18
REMARK    2  A    between atoms: S_1  and  C_25
REMARK    3  A    between atoms: N_7  and  C_11
REMARK    4  A    between atoms: N_8  and  C_19
REMARK    5  A    between atoms: N_8  and  C_20
REMARK    6  A    between atoms: N_9  and  C_21
REMARK    7  A    between atoms: C_12  and  C_15
REMARK    8  A    between atoms: C_16  and  C_18
REMARK    9  A    between atoms: C_19  and  C_22
REMARK   10  A    between atoms: C_21  and  C_23
REMARK   11  A    between atoms: C_21  and  C_24
REMARK                            x       y       z     vdW  Elec       q    Type
REMARK                         _______ _______ _______ _____ _____    ______ ____
ROOT
ATOM      3  O   UNL     1      -2.171  -0.315  26.246  0.00  0.00    -0.275 OA
ATOM      6  N   UNL     1      -1.053  -0.223  24.221  0.00  0.00    -0.287 N 
ATOM     11  C   UNL     1       0.304   1.417  23.178  0.00  0.00    +0.105 C 
ATOM     12  C   UNL     1      -0.753   1.205  24.262  0.00  0.00    +0.182 C 
ATOM     13  C   UNL     1       0.017   0.297  22.174  0.00  0.00    +0.043 C 
ATOM     14  C   UNL     1      -0.462  -0.857  23.045  0.00  0.00    +0.110 C 
ATOM     16  C   UNL     1      -1.683  -0.881  25.267  0.00  0.00    +0.226 C 
ENDROOT
BRANCH  11   7
ATOM      4  O   UNL     1       2.555   0.046  22.003  0.00  0.00    -0.253 OA
ATOM      7  N   UNL     1       1.635   1.305  23.725  0.00  0.00    -0.294 N 
ATOM      9  N   UNL     1       3.842   0.667  23.831  0.00  0.00    -0.297 N 
ATOM     17  C   UNL     1       2.667   0.619  23.086  0.00  0.00    +0.300 C 
ATOM     26  H   UNL     1       1.812   1.680  24.652  0.00  0.00    +0.151 HD
ATOM     27  H   UNL     1       3.855   1.230  24.676  0.00  0.00    +0.150 HD
BRANCH   9  21
ATOM     21  C   UNL     1       5.068   0.037  23.401  0.00  0.00    +0.068 C 
ATOM     23  C   UNL     1       6.275   0.776  23.965  0.00  0.00    +0.027 C 
ATOM     24  C   UNL     1       5.080  -1.431  23.806  0.00  0.00    +0.027 C 
ENDBRANCH   9  21
ENDBRANCH  11   7
BRANCH  12  15
ATOM      2  O   UNL     1      -2.637   1.622  22.899  0.00  0.00    -0.273 OA
ATOM      8  N   UNL     1      -2.454   2.892  24.838  0.00  0.00    -0.294 N 
ATOM     15  C   UNL     1      -2.030   1.918  23.932  0.00  0.00    +0.238 C 
ATOM     20  C   UNL     1      -1.705   3.211  26.046  0.00  0.00    +0.132 C 
BRANCH   8  19
ATOM     19  C   UNL     1      -3.679   3.663  24.640  0.00  0.00    +0.202 C 
BRANCH  19  22
ATOM      5  O   UNL     1      -4.936   1.731  25.380  0.00  0.00    -0.274 OA
ATOM     10  N   UNL     1      -5.805   3.828  25.743  0.00  0.00    -0.328 N 
ATOM     22  C   UNL     1      -4.840   2.952  25.295  0.00  0.00    +0.228 C 
ATOM     28  H   UNL     1      -5.717   4.834  25.645  0.00  0.00    +0.145 HD
ATOM     29  H   UNL     1      -6.648   3.488  26.192  0.00  0.00    +0.145 HD
ENDBRANCH  19  22
ENDBRANCH   8  19
ENDBRANCH  12  15
BRANCH  16  18
ATOM     18  C   UNL     1      -1.755  -2.383  25.142  0.00  0.00    +0.164 C 
BRANCH  18   1
ATOM      1  S   UNL     1      -3.489  -2.837  25.004  0.00  0.00    -0.155 S 
ATOM     25  C   UNL     1      -4.027  -1.543  23.857  0.00  0.00    +0.085 C 
ENDBRANCH  18   1
ENDBRANCH  16  18
TORSDOF 7
ENDMDL
MODEL 3
REMARK VINA RESULT:      -2.5      2.863      5.342
REMARK  Name = 11865816
REMARK  11 active torsions:
REMARK  status: ('A' for Active; 'I' for Inactive)
REMARK    1  A    between atoms: S_1  and  C_18
REMARK    2  A    between atoms: S_1  and  C_25
REMARK    3  A    between atoms: N_7  and  C_11
REMARK    4  A    between atoms: N_8  and  C_19
REMARK    5  A    between atoms: N_8  and  C_20
REMARK    6  A    between atoms: N_9  and  C_21
REMARK    7  A    between atoms: C_12  and  C_15
REMARK    8  A    between atoms: C_16  and  C_18
REMARK    9  A    between atoms: C_19  and  C_22
REMARK   10  A    between atoms: C_21  and  C_23
REMARK   11  A    between atoms: C_21  and  C_24
REMARK                            x       y       z     vdW  Elec       q    Type
REMARK                         _______ _______ _______ _____ _____    ______ ____
ROOT
ATOM      3  O   UNL     1      -3.602   2.040  22.866  0.00  0.00    -0.275 OA
ATOM      6  N   UNL     1      -2.175   2.385  24.655  0.00  0.00    -0.287 N 
ATOM     11  C   UNL     1      -0.236   1.267  25.437  0.00  0.00    +0.105 C 
ATOM     12  C   UNL     1      -1.479   1.105  24.562  0.00  0.00    +0.182 C 
ATOM     13  C   UNL     1      -0.662   2.308  26.475  0.00  0.00    +0.043 C 
ATOM     14  C   UNL     1      -1.603   3.225  25.704  0.00  0.00    +0.110 C 
ATOM     16  C   UNL     1      -3.141   2.775  23.740  0.00  0.00    +0.226 C 
ENDROOT
BRANCH  11   7
ATOM      4  O   UNL     1       1.453  -0.314  23.712  0.00  0.00    -0.253 OA
ATOM      7  N   UNL     1       0.888   1.730  24.658  0.00  0.00    -0.294 N 
ATOM      9  N   UNL     1       2.671   1.597  23.212  0.00  0.00    -0.297 N 
ATOM     17  C   UNL     1       1.652   0.892  23.849  0.00  0.00    +0.300 C 
ATOM     26  H   UNL     1       1.182   2.697  24.759  0.00  0.00    +0.151 HD
ATOM     27  H   UNL     1       2.706   2.605  23.329  0.00  0.00    +0.150 HD
BRANCH   9  21
ATOM     21  C   UNL     1       3.613   0.971  22.314  0.00  0.00    +0.068 C 
ATOM     23  C   UNL     1       4.790   0.395  23.091  0.00  0.00    +0.027 C 
ATOM     24  C   UNL     1       2.921  -0.102  21.484  0.00  0.00    +0.027 C 
ENDBRANCH   9  21
ENDBRANCH  11   7
BRANCH  12  15
ATOM      2  O   UNL     1      -3.414   0.436  25.740  0.00  0.00    -0.273 OA
ATOM      8  N   UNL     1      -2.075  -1.263  24.888  0.00  0.00    -0.294 N 
ATOM     15  C   UNL     1      -2.412   0.072  25.118  0.00  0.00    +0.238 C 
ATOM     20  C   UNL     1      -0.880  -1.649  24.149  0.00  0.00    +0.132 C 
BRANCH   8  19
ATOM     19  C   UNL     1      -2.894  -2.371  25.374  0.00  0.00    +0.202 C 
BRANCH  19  22
ATOM      5  O   UNL     1      -3.975  -3.927  23.867  0.00  0.00    -0.274 OA
ATOM     10  N   UNL     1      -4.619  -1.720  23.835  0.00  0.00    -0.328 N 
ATOM     22  C   UNL     1      -3.878  -2.784  24.303  0.00  0.00    +0.228 C 
ATOM     28  H   UNL     1      -4.510  -0.778  24.195  0.00  0.00    +0.145 HD
ATOM     29  H   UNL     1      -5.310  -1.850  23.103  0.00  0.00    +0.145 HD
ENDBRANCH  19  22
ENDBRANCH   8  19
ENDBRANCH  12  15
BRANCH  16  18
ATOM     18  C   UNL     1      -3.630   4.196  23.875  0.00  0.00    +0.164 C 
BRANCH  18   1
ATOM      1  S   UNL     1      -4.638   4.288  25.361  0.00  0.00    -0.155 S 
ATOM     25  C   UNL     1      -5.601   2.772  25.140  0.00  0.00    +0.085 C 
ENDBRANCH  18   1
ENDBRANCH  16  18
TORSDOF 7
ENDMDL
MODEL 4
REMARK VINA RESULT:      -0.4      2.803      6.300
REMARK  Name = 11865816
REMARK  11 active torsions:
REMARK  status: ('A' for Active; 'I' for Inactive)
REMARK    1  A    between atoms: S_1  and  C_18
REMARK    2  A    between atoms: S_1  and  C_25
REMARK    3  A    between atoms: N_7  and  C_11
REMARK    4  A    between atoms: N_8  and  C_19
REMARK    5  A    between atoms: N_8  and  C_20
REMARK    6  A    between atoms: N_9  and  C_21
REMARK    7  A    between atoms: C_12  and  C_15
REMARK    8  A    between atoms: C_16  and  C_18
REMARK    9  A    between atoms: C_19  and  C_22
REMARK   10  A    between atoms: C_21  and  C_23
REMARK   11  A    between atoms: C_21  and  C_24
REMARK                            x       y       z     vdW  Elec       q    Type
REMARK                         _______ _______ _______ _____ _____    ______ ____
ROOT
ATOM      3  O   UNL     1      -0.120  -1.799  23.458  0.00  0.00    -0.275 OA
ATOM      6  N   UNL     1      -0.398   0.166  24.649  0.00  0.00    -0.287 N 
ATOM     11  C   UNL     1      -0.547   2.449  24.023  0.00  0.00    +0.105 C 
ATOM     12  C   UNL     1      -0.075   1.073  23.551  0.00  0.00    +0.182 C 
ATOM     13  C   UNL     1      -0.451   2.356  25.548  0.00  0.00    +0.043 C 
ATOM     14  C   UNL     1      -0.795   0.903  25.846  0.00  0.00    +0.110 C 
ATOM     16  C   UNL     1      -0.464  -1.209  24.484  0.00  0.00    +0.226 C 
ENDROOT
BRANCH  11   7
ATOM      4  O   UNL     1      -2.903   2.555  25.687  0.00  0.00    -0.253 OA
ATOM      7  N   UNL     1      -1.903   2.704  23.596  0.00  0.00    -0.294 N 
ATOM      9  N   UNL     1      -4.174   3.002  23.798  0.00  0.00    -0.297 N 
ATOM     17  C   UNL     1      -2.985   2.736  24.473  0.00  0.00    +0.300 C 
ATOM     26  H   UNL     1      -2.089   2.793  22.602  0.00  0.00    +0.151 HD
ATOM     27  H   UNL     1      -4.129   3.213  22.806  0.00  0.00    +0.150 HD
BRANCH   9  21
ATOM     21  C   UNL     1      -5.451   3.091  24.467  0.00  0.00    +0.068 C 
ATOM     23  C   UNL     1      -5.891   1.719  24.962  0.00  0.00    +0.027 C 
ATOM     24  C   UNL     1      -5.381   4.095  25.610  0.00  0.00    +0.027 C 
ENDBRANCH   9  21
ENDBRANCH  11   7
BRANCH  12  15
ATOM      2  O   UNL     1       2.126   1.661  24.175  0.00  0.00    -0.273 OA
ATOM      8  N   UNL     1       1.906   0.260  22.332  0.00  0.00    -0.294 N 
ATOM     15  C   UNL     1       1.415   1.029  23.388  0.00  0.00    +0.238 C 
ATOM     20  C   UNL     1       1.029  -0.469  21.425  0.00  0.00    +0.132 C 
BRANCH   8  19
ATOM     19  C   UNL     1       3.335   0.131  22.058  0.00  0.00    +0.202 C 
BRANCH  19  22
ATOM      5  O   UNL     1       3.868  -1.530  23.737  0.00  0.00    -0.274 OA
ATOM     10  N   UNL     1       4.866   0.537  23.863  0.00  0.00    -0.328 N 
ATOM     22  C   UNL     1       4.042  -0.403  23.282  0.00  0.00    +0.228 C 
ATOM     28  H   UNL     1       4.981   1.471  23.484  0.00  0.00    +0.145 HD
ATOM     29  H   UNL     1       5.393   0.319  24.702  0.00  0.00    +0.145 HD
ENDBRANCH  19  22
ENDBRANCH   8  19
ENDBRANCH  12  15
BRANCH  16  18
ATOM     18  C   UNL     1      -0.985  -1.983  25.668  0.00  0.00    +0.164 C 
BRANCH  18   1
ATOM      1  S   UNL     1      -2.621  -2.596  25.243  0.00  0.00    -0.155 S 
ATOM     25  C   UNL     1      -3.588  -1.121  25.656  0.00  0.00    +0.085 C 
ENDBRANCH  18   1
ENDBRANCH  16  18
TORSDOF 7
ENDMDL
MODEL 5
REMARK VINA RESULT:      -0.3      2.658      4.126
REMARK  Name = 11865816
REMARK  11 active torsions:
REMARK  status: ('A' for Active; 'I' for Inactive)
REMARK    1  A    between atoms: S_1  and  C_18
REMARK    2  A    between atoms: S_1  and  C_25
REMARK    3  A    between atoms: N_7  and  C_11
REMARK    4  A    between atoms: N_8  and  C_19
REMARK    5  A    between atoms: N_8  and  C_20
REMARK    6  A    between atoms: N_9  and  C_21
REMARK    7  A    between atoms: C_12  and  C_15
REMARK    8  A    between atoms: C_16  and  C_18
REMARK    9  A    between atoms: C_19  and  C_22
REMARK   10  A    between atoms: C_21  and  C_23
REMARK   11  A    between atoms: C_21  and  C_24
REMARK                            x       y       z     vdW  Elec       q    Type
REMARK                         _______ _______ _______ _____ _____    ______ ____
ROOT
ATOM      3  O   UNL     1       0.060  -1.162  24.016  0.00  0.00    -0.275 OA
ATOM      6  N   UNL     1      -0.362   1.101  23.772  0.00  0.00    -0.287 N 
ATOM     11  C   UNL     1      -1.419   2.722  25.142  0.00  0.00    +0.105 C 
ATOM     12  C   UNL     1      -1.288   1.219  24.895  0.00  0.00    +0.182 C 
ATOM     13  C   UNL     1      -1.143   3.336  23.767  0.00  0.00    +0.043 C 
ATOM     14  C   UNL     1      -0.113   2.399  23.151  0.00  0.00    +0.110 C 
ATOM     16  C   UNL     1       0.296  -0.082  23.472  0.00  0.00    +0.226 C 
ENDROOT
BRANCH  11   7
ATOM      4  O   UNL     1      -0.072   1.111  27.120  0.00  0.00    -0.253 OA
ATOM      7  N   UNL     1      -0.457   3.171  26.120  0.00  0.00    -0.294 N 
ATOM      9  N   UNL     1       1.030   3.012  27.867  0.00  0.00    -0.297 N 
ATOM     17  C   UNL     1       0.146   2.319  27.043  0.00  0.00    +0.300 C 
ATOM     26  H   UNL     1      -0.264   4.166  26.189  0.00  0.00    +0.151 HD
ATOM     27  H   UNL     1       1.199   3.994  27.675  0.00  0.00    +0.150 HD
BRANCH   9  21
ATOM     21  C   UNL     1       1.791   2.370  28.913  0.00  0.00    +0.068 C 
ATOM     23  C   UNL     1       3.191   2.967  28.998  0.00  0.00    +0.027 C 
ATOM     24  C   UNL     1       1.061   2.482  30.244  0.00  0.00    +0.027 C 
ENDBRANCH   9  21
ENDBRANCH  11   7
BRANCH  12  15
ATOM      2  O   UNL     1      -3.151   1.089  23.449  0.00  0.00    -0.273 OA
ATOM      8  N   UNL     1      -3.077  -0.449  25.192  0.00  0.00    -0.294 N 
ATOM     15  C   UNL     1      -2.586   0.621  24.441  0.00  0.00    +0.238 C 
ATOM     20  C   UNL     1      -2.377  -0.969  26.358  0.00  0.00    +0.132 C 
BRANCH   8  19
ATOM     19  C   UNL     1      -4.330  -1.124  24.862  0.00  0.00    +0.202 C 
BRANCH  19  22
ATOM      5  O   UNL     1      -4.881  -2.873  23.281  0.00  0.00    -0.274 OA
ATOM     10  N   UNL     1      -2.755  -2.792  24.154  0.00  0.00    -0.328 N 
ATOM     22  C   UNL     1      -4.046  -2.333  24.001  0.00  0.00    +0.228 C 
ATOM     28  H   UNL     1      -2.085  -2.344  24.769  0.00  0.00    +0.145 HD
ATOM     29  H   UNL     1      -2.430  -3.608  23.645  0.00  0.00    +0.145 HD
ENDBRANCH  19  22
ENDBRANCH   8  19
ENDBRANCH  12  15
BRANCH  16  18
ATOM     18  C   UNL     1       1.349   0.013  22.397  0.00  0.00    +0.164 C 
BRANCH  18   1
ATOM      1  S   UNL     1       2.919  -0.478  23.123  0.00  0.00    -0.155 S 
ATOM     25  C   UNL     1       3.905   0.968  22.660  0.00  0.00    +0.085 C 
ENDBRANCH  18   1
ENDBRANCH  16  18
TORSDOF 7
ENDMDL
MODEL 6
REMARK VINA RESULT:       0.2      2.573      3.678
REMARK  Name = 11865816
REMARK  11 active torsions:
REMARK  status: ('A' for Active; 'I' for Inactive)
REMARK    1  A    between atoms: S_1  and  C_18
REMARK    2  A    between atoms: S_1  and  C_25
REMARK    3  A    between atoms: N_7  and  C_11
REMARK    4  A    between atoms: N_8  and  C_19
REMARK    5  A    between atoms: N_8  and  C_20
REMARK    6  A    between atoms: N_9  and  C_21
REMARK    7  A    between atoms: C_12  and  C_15
REMARK    8  A    between atoms: C_16  and  C_18
REMARK    9  A    between atoms: C_19  and  C_22
REMARK   10  A    between atoms: C_21  and  C_23
REMARK   11  A    between atoms: C_21  and  C_24
REMARK                            x       y       z     vdW  Elec       q    Type
REMARK                         _______ _______ _______ _____ _____    ______ ____
ROOT
ATOM      3  O   UNL     1      -3.542  -0.783  26.138  0.00  0.00    -0.275 OA
ATOM      6  N   UNL     1      -2.934   0.015  24.052  0.00  0.00    -0.287 N 
ATOM     11  C   UNL     1      -1.125   1.333  23.271  0.00  0.00    +0.105 C 
ATOM     12  C   UNL     1      -1.916   0.949  24.522  0.00  0.00    +0.182 C 
ATOM     13  C   UNL     1      -2.142   1.163  22.139  0.00  0.00    +0.043 C 
ATOM     14  C   UNL     1      -2.997  -0.012  22.593  0.00  0.00    +0.110 C 
ATOM     16  C   UNL     1      -3.618  -0.834  24.909  0.00  0.00    +0.226 C 
ENDROOT
BRANCH  11   7
ATOM      4  O   UNL     1       1.632   1.928  23.879  0.00  0.00    -0.253 OA
ATOM      7  N   UNL     1       0.012   0.462  23.091  0.00  0.00    -0.294 N 
ATOM      9  N   UNL     1       2.216  -0.192  23.140  0.00  0.00    -0.297 N 
ATOM     17  C   UNL     1       1.316   0.834  23.412  0.00  0.00    +0.300 C 
ATOM     26  H   UNL     1      -0.132  -0.437  22.642  0.00  0.00    +0.151 HD
ATOM     27  H   UNL     1       1.849  -1.086  22.828  0.00  0.00    +0.150 HD
BRANCH   9  21
ATOM     21  C   UNL     1       3.635  -0.074  23.379  0.00  0.00    +0.068 C 
ATOM     23  C   UNL     1       4.234  -1.431  23.726  0.00  0.00    +0.027 C 
ATOM     24  C   UNL     1       4.327   0.544  22.171  0.00  0.00    +0.027 C 
ENDBRANCH   9  21
ENDBRANCH  11   7
BRANCH  12  15
ATOM      2  O   UNL     1      -3.857   2.247  24.876  0.00  0.00    -0.273 OA
ATOM      8  N   UNL     1      -1.893   3.027  25.846  0.00  0.00    -0.294 N 
ATOM     15  C   UNL     1      -2.648   2.126  25.092  0.00  0.00    +0.238 C 
ATOM     20  C   UNL     1      -0.465   2.846  26.075  0.00  0.00    +0.132 C 
BRANCH   8  19
ATOM     19  C   UNL     1      -2.479   4.216  26.458  0.00  0.00    +0.202 C 
BRANCH  19  22
ATOM      5  O   UNL     1      -1.828   6.210  25.248  0.00  0.00    -0.274 OA
ATOM     10  N   UNL     1      -3.814   5.184  24.713  0.00  0.00    -0.328 N 
ATOM     22  C   UNL     1      -2.635   5.301  25.418  0.00  0.00    +0.228 C 
ATOM     28  H   UNL     1      -4.479   4.437  24.882  0.00  0.00    +0.145 HD
ATOM     29  H   UNL     1      -4.057   5.854  23.991  0.00  0.00    +0.145 HD
ENDBRANCH  19  22
ENDBRANCH   8  19
ENDBRANCH  12  15
BRANCH  16  18
ATOM     18  C   UNL     1      -4.503  -1.858  24.243  0.00  0.00    +0.164 C 
BRANCH  18   1
ATOM      1  S   UNL     1      -3.654  -3.441  24.311  0.00  0.00    -0.155 S 
ATOM     25  C   UNL     1      -1.947  -2.842  24.366  0.00  0.00    +0.085 C 
ENDBRANCH  18   1
ENDBRANCH  16  18
TORSDOF 7
ENDMDL
