MODEL 1
REMARK VINA RESULT:       2.3      0.000      0.000
REMARK  Name = 25389060
REMARK  8 active torsions:
REMARK  status: ('A' for Active; 'I' for Inactive)
REMARK    1  A    between atoms: O_2  and  C_30
REMARK    2  A    between atoms: O_2  and  C_31
REMARK    3  A    between atoms: N_4  and  C_23
REMARK    4  A    between atoms: N_5  and  C_15
REMARK    5  A    between atoms: C_8  and  C_14
REMARK    6  A    between atoms: C_9  and  C_15
REMARK    7  A    between atoms: C_17  and  C_18
REMARK    8  A    between atoms: C_24  and  C_25
REMARK                            x       y       z     vdW  Elec       q    Type
REMARK                         _______ _______ _______ _____ _____    ______ ____
ROOT
ATOM      3  N   UNL     1      -2.960  -2.112  23.844  0.00  0.00    -0.297 NA
ATOM      7  C   UNL     1      -2.837  -0.988  26.191  0.00  0.00    +0.002 C 
ATOM      8  C   UNL     1      -3.926  -0.305  25.317  0.00  0.00    +0.055 C 
ATOM      9  C   UNL     1      -1.551  -1.771  24.170  0.00  0.00    +0.074 C 
ATOM     10  C   UNL     1      -1.480  -0.922  25.458  0.00  0.00    +0.024 C 
ATOM     11  C   UNL     1      -3.801  -0.889  23.881  0.00  0.00    +0.094 C 
ATOM     12  C   UNL     1      -3.223  -2.479  26.297  0.00  0.00    +0.019 C 
ATOM     13  C   UNL     1      -3.456  -3.044  24.884  0.00  0.00    +0.085 C 
ENDROOT
BRANCH   8  14
ATOM      4  N   UNL     1      -5.176   1.904  25.290  0.00  0.00    -0.271 N 
ATOM      6  N   UNL     1      -5.024   3.239  25.296  0.00  0.00    -0.176 NA
ATOM     14  C   UNL     1      -3.999   1.215  25.319  0.00  0.00    +0.044 A 
ATOM     16  C   UNL     1      -3.008   2.166  25.346  0.00  0.00    +0.048 A 
ATOM     18  C   UNL     1      -3.698   3.393  25.331  0.00  0.00    +0.066 A 
ATOM     23  C   UNL     1      -6.508   1.345  25.252  0.00  0.00    +0.172 C 
BRANCH  18  17
ATOM     17  C   UNL     1      -3.104   4.784  25.351  0.00  0.00    +0.040 C 
ATOM     19  C   UNL     1      -1.628   4.788  25.785  0.00  0.00    +0.010 C 
ATOM     20  C   UNL     1      -3.141   5.514  23.992  0.00  0.00    +0.010 C 
ATOM     21  C   UNL     1      -0.984   5.891  24.958  0.00  0.00    +0.001 C 
ATOM     22  C   UNL     1      -1.685   5.767  23.617  0.00  0.00    +0.001 C 
ENDBRANCH  18  17
ENDBRANCH   8  14
BRANCH   9  15
ATOM     15  C   UNL     1      -0.828  -1.096  23.003  0.00  0.00    +0.123 C 
BRANCH  15   5
ATOM      1  O   UNL     1       1.250  -0.364  21.163  0.00  0.00    -0.270 OA
ATOM      5  N   UNL     1       0.549  -0.873  23.316  0.00  0.00    -0.310 N 
ATOM     24  C   UNL     1       1.496  -0.518  22.357  0.00  0.00    +0.244 C 
ATOM     32  H   UNL     1       0.832  -1.043  24.274  0.00  0.00    +0.149 HD
BRANCH  24  25
ATOM     25  C   UNL     1       2.891  -0.346  22.838  0.00  0.00    +0.037 A 
ATOM     26  C   UNL     1       3.561   0.858  22.620  0.00  0.00    +0.016 A 
ATOM     27  C   UNL     1       3.532  -1.391  23.504  0.00  0.00    +0.016 A 
ATOM     28  C   UNL     1       4.872   1.018  23.069  0.00  0.00    +0.046 A 
ATOM     29  C   UNL     1       4.843  -1.230  23.954  0.00  0.00    +0.046 A 
ATOM     30  C   UNL     1       5.512  -0.026  23.736  0.00  0.00    +0.120 A 
BRANCH  30   2
ATOM      2  O   UNL     1       6.791   0.130  24.175  0.00  0.00    -0.495 OA
ATOM     31  C   UNL     1       7.835  -0.263  23.286  0.00  0.00    +0.277 C 
ENDBRANCH  30   2
ENDBRANCH  24  25
ENDBRANCH  15   5
ENDBRANCH   9  15
TORSDOF 6
ENDMDL
MODEL 2
REMARK VINA RESULT:       3.1      3.021      5.250
REMARK  Name = 25389060
REMARK  8 active torsions:
REMARK  status: ('A' for Active; 'I' for Inactive)
REMARK    1  A    between atoms: O_2  and  C_30
REMARK    2  A    between atoms: O_2  and  C_31
REMARK    3  A    between atoms: N_4  and  C_23
REMARK    4  A    between atoms: N_5  and  C_15
REMARK    5  A    between atoms: C_8  and  C_14
REMARK    6  A    between atoms: C_9  and  C_15
REMARK    7  A    between atoms: C_17  and  C_18
REMARK    8  A    between atoms: C_24  and  C_25
REMARK                            x       y       z     vdW  Elec       q    Type
REMARK                         _______ _______ _______ _____ _____    ______ ____
ROOT
ATOM      3  N   UNL     1      -5.035   2.722  24.027  0.00  0.00    -0.297 NA
ATOM      7  C   UNL     1      -4.301   3.849  26.257  0.00  0.00    +0.002 C 
ATOM      8  C   UNL     1      -3.142   3.884  25.223  0.00  0.00    +0.055 C 
ATOM      9  C   UNL     1      -5.354   1.833  25.173  0.00  0.00    +0.074 C 
ATOM     10  C   UNL     1      -4.743   2.387  26.479  0.00  0.00    +0.024 C 
ATOM     11  C   UNL     1      -3.581   3.023  24.005  0.00  0.00    +0.094 C 
ATOM     12  C   UNL     1      -5.494   4.590  25.615  0.00  0.00    +0.019 C 
ATOM     13  C   UNL     1      -5.768   3.996  24.221  0.00  0.00    +0.085 C 
ENDROOT
BRANCH   8  14
ATOM      4  N   UNL     1      -0.610   3.916  25.042  0.00  0.00    -0.271 N 
ATOM      6  N   UNL     1       0.527   3.505  25.629  0.00  0.00    -0.176 NA
ATOM     14  C   UNL     1      -1.741   3.533  25.703  0.00  0.00    +0.044 A 
ATOM     16  C   UNL     1      -1.313   2.823  26.798  0.00  0.00    +0.048 A 
ATOM     18  C   UNL     1       0.091   2.839  26.701  0.00  0.00    +0.066 A 
ATOM     23  C   UNL     1      -0.536   4.686  23.823  0.00  0.00    +0.172 C 
BRANCH  18  17
ATOM     17  C   UNL     1       1.087   2.206  27.648  0.00  0.00    +0.040 C 
ATOM     19  C   UNL     1       2.278   3.130  27.954  0.00  0.00    +0.010 C 
ATOM     20  C   UNL     1       0.502   1.810  29.020  0.00  0.00    +0.010 C 
ATOM     21  C   UNL     1       2.624   2.846  29.408  0.00  0.00    +0.001 C 
ATOM     22  C   UNL     1       1.264   2.637  30.049  0.00  0.00    +0.001 C 
ENDBRANCH  18  17
ENDBRANCH   8  14
BRANCH   9  15
ATOM     15  C   UNL     1      -4.937   0.382  24.920  0.00  0.00    +0.123 C 
BRANCH  15   5
ATOM      1  O   UNL     1      -2.724  -0.955  26.168  0.00  0.00    -0.270 OA
ATOM      5  N   UNL     1      -3.595   0.314  24.431  0.00  0.00    -0.310 N 
ATOM     24  C   UNL     1      -2.577  -0.360  25.103  0.00  0.00    +0.244 C 
ATOM     32  H   UNL     1      -3.391   0.836  23.586  0.00  0.00    +0.149 HD
BRANCH  24  25
ATOM     25  C   UNL     1      -1.231  -0.316  24.476  0.00  0.00    +0.037 A 
ATOM     26  C   UNL     1      -0.859   0.780  23.697  0.00  0.00    +0.016 A 
ATOM     27  C   UNL     1      -0.340  -1.373  24.664  0.00  0.00    +0.016 A 
ATOM     28  C   UNL     1       0.404   0.820  23.106  0.00  0.00    +0.046 A 
ATOM     29  C   UNL     1       0.923  -1.333  24.073  0.00  0.00    +0.046 A 
ATOM     30  C   UNL     1       1.295  -0.237  23.295  0.00  0.00    +0.120 A 
BRANCH  30   2
ATOM      2  O   UNL     1       2.527  -0.199  22.718  0.00  0.00    -0.495 OA
ATOM     31  C   UNL     1       3.223   1.046  22.755  0.00  0.00    +0.277 C 
ENDBRANCH  30   2
ENDBRANCH  24  25
ENDBRANCH  15   5
ENDBRANCH   9  15
TORSDOF 6
ENDMDL
MODEL 3
REMARK VINA RESULT:       3.7      3.064      4.591
REMARK  Name = 25389060
REMARK  8 active torsions:
REMARK  status: ('A' for Active; 'I' for Inactive)
REMARK    1  A    between atoms: O_2  and  C_30
REMARK    2  A    between atoms: O_2  and  C_31
REMARK    3  A    between atoms: N_4  and  C_23
REMARK    4  A    between atoms: N_5  and  C_15
REMARK    5  A    between atoms: C_8  and  C_14
REMARK    6  A    between atoms: C_9  and  C_15
REMARK    7  A    between atoms: C_17  and  C_18
REMARK    8  A    between atoms: C_24  and  C_25
REMARK                            x       y       z     vdW  Elec       q    Type
REMARK                         _______ _______ _______ _____ _____    ______ ____
ROOT
ATOM      3  N   UNL     1      -1.689  -2.842  23.805  0.00  0.00    -0.297 NA
ATOM      7  C   UNL     1      -3.960  -2.037  24.795  0.00  0.00    +0.002 C 
ATOM      8  C   UNL     1      -3.494  -1.086  23.658  0.00  0.00    +0.055 C 
ATOM      9  C   UNL     1      -1.603  -2.780  25.288  0.00  0.00    +0.074 C 
ATOM     10  C   UNL     1      -2.863  -2.111  25.879  0.00  0.00    +0.024 C 
ATOM     11  C   UNL     1      -2.052  -1.510  23.260  0.00  0.00    +0.094 C 
ATOM     12  C   UNL     1      -4.081  -3.446  24.176  0.00  0.00    +0.019 C 
ATOM     13  C   UNL     1      -2.768  -3.795  23.452  0.00  0.00    +0.085 C 
ENDROOT
BRANCH   8  14
ATOM      4  N   UNL     1      -3.144   1.339  22.997  0.00  0.00    -0.271 N 
ATOM      6  N   UNL     1      -3.347   2.611  23.380  0.00  0.00    -0.176 NA
ATOM     14  C   UNL     1      -3.614   0.415  23.882  0.00  0.00    +0.044 A 
ATOM     16  C   UNL     1      -4.164   1.131  24.917  0.00  0.00    +0.048 A 
ATOM     18  C   UNL     1      -3.972   2.477  24.554  0.00  0.00    +0.066 A 
ATOM     23  C   UNL     1      -2.476   1.079  21.743  0.00  0.00    +0.172 C 
BRANCH  18  17
ATOM     17  C   UNL     1      -4.385   3.709  25.329  0.00  0.00    +0.040 C 
ATOM     19  C   UNL     1      -4.986   4.800  24.426  0.00  0.00    +0.010 C 
ATOM     20  C   UNL     1      -5.438   3.449  26.427  0.00  0.00    +0.010 C 
ATOM     21  C   UNL     1      -6.073   5.446  25.271  0.00  0.00    +0.001 C 
ATOM     22  C   UNL     1      -6.660   4.271  26.031  0.00  0.00    +0.001 C 
ENDBRANCH  18  17
ENDBRANCH   8  14
BRANCH   9  15
ATOM     15  C   UNL     1      -0.319  -2.102  25.770  0.00  0.00    +0.123 C 
BRANCH  15   5
ATOM      1  O   UNL     1       0.625  -0.378  23.678  0.00  0.00    -0.270 OA
ATOM      5  N   UNL     1      -0.441  -0.679  25.717  0.00  0.00    -0.310 N 
ATOM     24  C   UNL     1       0.047   0.085  24.659  0.00  0.00    +0.244 C 
ATOM     32  H   UNL     1      -0.854  -0.227  26.525  0.00  0.00    +0.149 HD
BRANCH  24  25
ATOM     25  C   UNL     1      -0.137   1.555  24.765  0.00  0.00    +0.037 A 
ATOM     26  C   UNL     1      -0.673   2.109  25.928  0.00  0.00    +0.016 A 
ATOM     27  C   UNL     1       0.223   2.382  23.701  0.00  0.00    +0.016 A 
ATOM     28  C   UNL     1      -0.848   3.489  26.027  0.00  0.00    +0.046 A 
ATOM     29  C   UNL     1       0.048   3.762  23.800  0.00  0.00    +0.046 A 
ATOM     30  C   UNL     1      -0.488   4.315  24.963  0.00  0.00    +0.120 A 
BRANCH  30   2
ATOM      2  O   UNL     1      -0.658   5.663  25.059  0.00  0.00    -0.495 OA
ATOM     31  C   UNL     1      -2.000   6.149  25.054  0.00  0.00    +0.277 C 
ENDBRANCH  30   2
ENDBRANCH  24  25
ENDBRANCH  15   5
ENDBRANCH   9  15
TORSDOF 6
ENDMDL
MODEL 4
REMARK VINA RESULT:       4.2      2.588      6.129
REMARK  Name = 25389060
REMARK  8 active torsions:
REMARK  status: ('A' for Active; 'I' for Inactive)
REMARK    1  A    between atoms: O_2  and  C_30
REMARK    2  A    between atoms: O_2  and  C_31
REMARK    3  A    between atoms: N_4  and  C_23
REMARK    4  A    between atoms: N_5  and  C_15
REMARK    5  A    between atoms: C_8  and  C_14
REMARK    6  A    between atoms: C_9  and  C_15
REMARK    7  A    between atoms: C_17  and  C_18
REMARK    8  A    between atoms: C_24  and  C_25
REMARK                            x       y       z     vdW  Elec       q    Type
REMARK                         _______ _______ _______ _____ _____    ______ ____
ROOT
ATOM      3  N   UNL     1      -5.659   3.476  24.550  0.00  0.00    -0.297 NA
ATOM      7  C   UNL     1      -3.699   4.164  26.121  0.00  0.00    +0.002 C 
ATOM      8  C   UNL     1      -3.191   3.986  24.663  0.00  0.00    +0.055 C 
ATOM      9  C   UNL     1      -5.641   2.602  25.751  0.00  0.00    +0.074 C 
ATOM     10  C   UNL     1      -4.370   2.856  26.590  0.00  0.00    +0.024 C 
ATOM     11  C   UNL     1      -4.362   3.385  23.834  0.00  0.00    +0.094 C 
ATOM     12  C   UNL     1      -4.798   5.247  26.080  0.00  0.00    +0.019 C 
ATOM     13  C   UNL     1      -5.837   4.875  25.008  0.00  0.00    +0.085 C 
ENDROOT
BRANCH   8  14
ATOM      4  N   UNL     1      -0.661   3.838  24.518  0.00  0.00    -0.271 N 
ATOM      6  N   UNL     1       0.368   3.004  24.293  0.00  0.00    -0.176 NA
ATOM     14  C   UNL     1      -1.884   3.237  24.445  0.00  0.00    +0.044 A 
ATOM     16  C   UNL     1      -1.637   1.919  24.151  0.00  0.00    +0.048 A 
ATOM     18  C   UNL     1      -0.235   1.832  24.070  0.00  0.00    +0.066 A 
ATOM     23  C   UNL     1      -0.392   5.228  24.802  0.00  0.00    +0.172 C 
BRANCH  18  17
ATOM     17  C   UNL     1       0.597   0.605  23.771  0.00  0.00    +0.040 C 
ATOM     19  C   UNL     1       0.141  -0.118  22.492  0.00  0.00    +0.010 C 
ATOM     20  C   UNL     1       2.102   0.883  23.580  0.00  0.00    +0.010 C 
ATOM     21  C   UNL     1       1.425  -0.645  21.867  0.00  0.00    +0.001 C 
ATOM     22  C   UNL     1       2.423   0.463  22.149  0.00  0.00    +0.001 C 
ENDBRANCH  18  17
ENDBRANCH   8  14
BRANCH   9  15
ATOM     15  C   UNL     1      -5.805   1.122  25.399  0.00  0.00    +0.123 C 
BRANCH  15   5
ATOM      1  O   UNL     1      -4.972  -1.144  23.845  0.00  0.00    -0.270 OA
ATOM      5  N   UNL     1      -4.556   0.432  25.497  0.00  0.00    -0.310 N 
ATOM     24  C   UNL     1      -4.232  -0.664  24.700  0.00  0.00    +0.244 C 
ATOM     32  H   UNL     1      -3.922   0.739  26.226  0.00  0.00    +0.149 HD
BRANCH  24  25
ATOM     25  C   UNL     1      -2.904  -1.286  24.941  0.00  0.00    +0.037 A 
ATOM     26  C   UNL     1      -2.492  -2.372  24.169  0.00  0.00    +0.016 A 
ATOM     27  C   UNL     1      -2.072  -0.786  25.943  0.00  0.00    +0.016 A 
ATOM     28  C   UNL     1      -1.247  -2.958  24.397  0.00  0.00    +0.046 A 
ATOM     29  C   UNL     1      -0.827  -1.372  26.171  0.00  0.00    +0.046 A 
ATOM     30  C   UNL     1      -0.414  -2.457  25.399  0.00  0.00    +0.120 A 
BRANCH  30   2
ATOM      2  O   UNL     1       0.801  -3.029  25.622  0.00  0.00    -0.495 OA
ATOM     31  C   UNL     1       1.927  -2.432  24.981  0.00  0.00    +0.277 C 
ENDBRANCH  30   2
ENDBRANCH  24  25
ENDBRANCH  15   5
ENDBRANCH   9  15
TORSDOF 6
ENDMDL
MODEL 5
REMARK VINA RESULT:       5.0      2.661      6.689
REMARK  Name = 25389060
REMARK  8 active torsions:
REMARK  status: ('A' for Active; 'I' for Inactive)
REMARK    1  A    between atoms: O_2  and  C_30
REMARK    2  A    between atoms: O_2  and  C_31
REMARK    3  A    between atoms: N_4  and  C_23
REMARK    4  A    between atoms: N_5  and  C_15
REMARK    5  A    between atoms: C_8  and  C_14
REMARK    6  A    between atoms: C_9  and  C_15
REMARK    7  A    between atoms: C_17  and  C_18
REMARK    8  A    between atoms: C_24  and  C_25
REMARK                            x       y       z     vdW  Elec       q    Type
REMARK                         _______ _______ _______ _____ _____    ______ ____
ROOT
ATOM      3  N   UNL     1      -4.686   4.264  24.239  0.00  0.00    -0.297 NA
ATOM      7  C   UNL     1      -2.490   4.681  25.575  0.00  0.00    +0.002 C 
ATOM      8  C   UNL     1      -2.183   3.952  24.237  0.00  0.00    +0.055 C 
ATOM      9  C   UNL     1      -4.849   3.799  25.641  0.00  0.00    +0.074 C 
ATOM     10  C   UNL     1      -3.500   3.845  26.390  0.00  0.00    +0.024 C 
ATOM     11  C   UNL     1      -3.546   3.562  23.598  0.00  0.00    +0.094 C 
ATOM     12  C   UNL     1      -3.190   6.007  25.209  0.00  0.00    +0.019 C 
ATOM     13  C   UNL     1      -4.376   5.713  24.274  0.00  0.00    +0.085 C 
ENDROOT
BRANCH   8  14
ATOM      4  N   UNL     1      -0.457   2.467  25.358  0.00  0.00    -0.271 N 
ATOM      6  N   UNL     1       0.349   1.407  25.175  0.00  0.00    -0.176 NA
ATOM     14  C   UNL     1      -1.201   2.789  24.262  0.00  0.00    +0.044 A 
ATOM     16  C   UNL     1      -0.859   1.877  23.294  0.00  0.00    +0.048 A 
ATOM     18  C   UNL     1       0.098   1.051  23.912  0.00  0.00    +0.066 A 
ATOM     23  C   UNL     1      -0.460   3.137  26.638  0.00  0.00    +0.172 C 
BRANCH  18  17
ATOM     17  C   UNL     1       0.823  -0.132  23.307  0.00  0.00    +0.040 C 
ATOM     19  C   UNL     1       0.419  -0.385  21.844  0.00  0.00    +0.010 C 
ATOM     20  C   UNL     1       2.360  -0.004  23.300  0.00  0.00    +0.010 C 
ATOM     21  C   UNL     1       1.695  -0.866  21.169  0.00  0.00    +0.001 C 
ATOM     22  C   UNL     1       2.771  -0.025  21.832  0.00  0.00    +0.001 C 
ENDBRANCH  18  17
ENDBRANCH   8  14
BRANCH   9  15
ATOM     15  C   UNL     1      -5.500   2.416  25.725  0.00  0.00    +0.123 C 
BRANCH  15   5
ATOM      1  O   UNL     1      -5.655   0.003  24.178  0.00  0.00    -0.270 OA
ATOM      5  N   UNL     1      -4.515   1.383  25.655  0.00  0.00    -0.310 N 
ATOM     24  C   UNL     1      -4.671   0.239  24.875  0.00  0.00    +0.244 C 
ATOM     32  H   UNL     1      -3.704   1.485  26.255  0.00  0.00    +0.149 HD
BRANCH  24  25
ATOM     25  C   UNL     1      -3.567  -0.754  24.930  0.00  0.00    +0.037 A 
ATOM     26  C   UNL     1      -3.632  -1.913  24.157  0.00  0.00    +0.016 A 
ATOM     27  C   UNL     1      -2.468  -0.529  25.759  0.00  0.00    +0.016 A 
ATOM     28  C   UNL     1      -2.597  -2.847  24.211  0.00  0.00    +0.046 A 
ATOM     29  C   UNL     1      -1.433  -1.463  25.813  0.00  0.00    +0.046 A 
ATOM     30  C   UNL     1      -1.498  -2.621  25.039  0.00  0.00    +0.120 A 
BRANCH  30   2
ATOM      2  O   UNL     1      -0.487  -3.532  25.093  0.00  0.00    -0.495 OA
ATOM     31  C   UNL     1       0.797  -3.055  25.491  0.00  0.00    +0.277 C 
ENDBRANCH  30   2
ENDBRANCH  24  25
ENDBRANCH  15   5
ENDBRANCH   9  15
TORSDOF 6
ENDMDL
MODEL 6
REMARK VINA RESULT:       5.2      3.284      6.540
REMARK  Name = 25389060
REMARK  8 active torsions:
REMARK  status: ('A' for Active; 'I' for Inactive)
REMARK    1  A    between atoms: O_2  and  C_30
REMARK    2  A    between atoms: O_2  and  C_31
REMARK    3  A    between atoms: N_4  and  C_23
REMARK    4  A    between atoms: N_5  and  C_15
REMARK    5  A    between atoms: C_8  and  C_14
REMARK    6  A    between atoms: C_9  and  C_15
REMARK    7  A    between atoms: C_17  and  C_18
REMARK    8  A    between atoms: C_24  and  C_25
REMARK                            x       y       z     vdW  Elec       q    Type
REMARK                         _______ _______ _______ _____ _____    ______ ____
ROOT
ATOM      3  N   UNL     1      -3.380  -2.584  25.487  0.00  0.00    -0.297 NA
ATOM      7  C   UNL     1      -0.828  -2.306  25.048  0.00  0.00    +0.002 C 
ATOM      8  C   UNL     1      -1.375  -1.099  25.860  0.00  0.00    +0.055 C 
ATOM      9  C   UNL     1      -3.087  -2.795  24.046  0.00  0.00    +0.074 C 
ATOM     10  C   UNL     1      -1.620  -2.433  23.729  0.00  0.00    +0.024 C 
ATOM     11  C   UNL     1      -2.923  -1.235  25.907  0.00  0.00    +0.094 C 
ATOM     12  C   UNL     1      -1.124  -3.573  25.878  0.00  0.00    +0.019 C 
ATOM     13  C   UNL     1      -2.615  -3.592  26.259  0.00  0.00    +0.085 C 
ENDROOT
BRANCH   8  14
ATOM      4  N   UNL     1      -0.142   0.545  24.370  0.00  0.00    -0.271 N 
ATOM      6  N   UNL     1       0.140   1.846  24.187  0.00  0.00    -0.176 NA
ATOM     14  C   UNL     1      -0.929   0.299  25.457  0.00  0.00    +0.044 A 
ATOM     16  C   UNL     1      -1.180   1.525  26.024  0.00  0.00    +0.048 A 
ATOM     18  C   UNL     1      -0.498   2.440  25.200  0.00  0.00    +0.066 A 
ATOM     23  C   UNL     1       0.390  -0.429  23.446  0.00  0.00    +0.172 C 
BRANCH  18  17
ATOM     17  C   UNL     1      -0.429   3.943  25.353  0.00  0.00    +0.040 C 
ATOM     19  C   UNL     1      -0.365   4.671  24.000  0.00  0.00    +0.010 C 
ATOM     20  C   UNL     1      -1.624   4.564  26.106  0.00  0.00    +0.010 C 
ATOM     21  C   UNL     1      -1.161   5.950  24.210  0.00  0.00    +0.001 C 
ATOM     22  C   UNL     1      -2.298   5.502  25.110  0.00  0.00    +0.001 C 
ENDBRANCH  18  17
ENDBRANCH   8  14
BRANCH   9  15
ATOM     15  C   UNL     1      -4.067  -2.051  23.136  0.00  0.00    +0.123 C 
BRANCH  15   5
ATOM      1  O   UNL     1      -2.933   0.549  22.696  0.00  0.00    -0.270 OA
ATOM      5  N   UNL     1      -4.489  -0.823  23.735  0.00  0.00    -0.310 N 
ATOM     24  C   UNL     1      -3.880   0.400  23.464  0.00  0.00    +0.244 C 
ATOM     32  H   UNL     1      -5.227  -0.885  24.428  0.00  0.00    +0.149 HD
BRANCH  24  25
ATOM     25  C   UNL     1      -4.419   1.581  24.188  0.00  0.00    +0.037 A 
ATOM     26  C   UNL     1      -5.230   1.402  25.309  0.00  0.00    +0.016 A 
ATOM     27  C   UNL     1      -4.118   2.868  23.743  0.00  0.00    +0.016 A 
ATOM     28  C   UNL     1      -5.738   2.510  25.986  0.00  0.00    +0.046 A 
ATOM     29  C   UNL     1      -4.626   3.976  24.421  0.00  0.00    +0.046 A 
ATOM     30  C   UNL     1      -5.436   3.797  25.542  0.00  0.00    +0.120 A 
BRANCH  30   2
ATOM      2  O   UNL     1      -5.932   4.879  26.203  0.00  0.00    -0.495 OA
ATOM     31  C   UNL     1      -6.536   5.902  25.412  0.00  0.00    +0.277 C 
ENDBRANCH  30   2
ENDBRANCH  24  25
ENDBRANCH  15   5
ENDBRANCH   9  15
TORSDOF 6
ENDMDL
MODEL 7
REMARK VINA RESULT:       5.7      3.174      6.281
REMARK  Name = 25389060
REMARK  8 active torsions:
REMARK  status: ('A' for Active; 'I' for Inactive)
REMARK    1  A    between atoms: O_2  and  C_30
REMARK    2  A    between atoms: O_2  and  C_31
REMARK    3  A    between atoms: N_4  and  C_23
REMARK    4  A    between atoms: N_5  and  C_15
REMARK    5  A    between atoms: C_8  and  C_14
REMARK    6  A    between atoms: C_9  and  C_15
REMARK    7  A    between atoms: C_17  and  C_18
REMARK    8  A    between atoms: C_24  and  C_25
REMARK                            x       y       z     vdW  Elec       q    Type
REMARK                         _______ _______ _______ _____ _____    ______ ____
ROOT
ATOM      3  N   UNL     1      -3.623   2.449  25.519  0.00  0.00    -0.297 NA
ATOM      7  C   UNL     1      -3.433   1.060  23.324  0.00  0.00    +0.002 C 
ATOM      8  C   UNL     1      -2.526   0.455  24.431  0.00  0.00    +0.055 C 
ATOM      9  C   UNL     1      -3.364   3.352  24.367  0.00  0.00    +0.074 C 
ATOM     10  C   UNL     1      -3.044   2.536  23.096  0.00  0.00    +0.024 C 
ATOM     11  C   UNL     1      -2.537   1.444  25.631  0.00  0.00    +0.094 C 
ATOM     12  C   UNL     1      -4.875   1.051  23.876  0.00  0.00    +0.019 C 
ATOM     13  C   UNL     1      -4.893   1.731  25.257  0.00  0.00    +0.085 C 
ENDROOT
BRANCH   8  14
ATOM      4  N   UNL     1      -0.561  -1.151  24.461  0.00  0.00    -0.271 N 
ATOM      6  N   UNL     1       0.692  -1.344  24.017  0.00  0.00    -0.176 NA
ATOM     14  C   UNL     1      -1.117   0.024  24.049  0.00  0.00    +0.044 A 
ATOM     16  C   UNL     1      -0.161   0.643  23.282  0.00  0.00    +0.048 A 
ATOM     18  C   UNL     1       0.930  -0.245  23.296  0.00  0.00    +0.066 A 
ATOM     23  C   UNL     1      -1.175  -2.157  25.297  0.00  0.00    +0.172 C 
BRANCH  18  17
ATOM     17  C   UNL     1       2.267  -0.073  22.608  0.00  0.00    +0.040 C 
ATOM     19  C   UNL     1       2.896   1.304  22.880  0.00  0.00    +0.010 C 
ATOM     20  C   UNL     1       3.335  -1.108  23.019  0.00  0.00    +0.010 C 
ATOM     21  C   UNL     1       4.392   1.038  22.956  0.00  0.00    +0.001 C 
ATOM     22  C   UNL     1       4.465  -0.307  23.656  0.00  0.00    +0.001 C 
ENDBRANCH  18  17
ENDBRANCH   8  14
BRANCH   9  15
ATOM     15  C   UNL     1      -2.278   4.386  24.669  0.00  0.00    +0.123 C 
BRANCH  15   5
ATOM      1  O   UNL     1       0.303   3.130  24.632  0.00  0.00    -0.270 OA
ATOM      5  N   UNL     1      -1.502   3.996  25.805  0.00  0.00    -0.310 N 
ATOM     24  C   UNL     1      -0.253   3.389  25.697  0.00  0.00    +0.244 C 
ATOM     32  H   UNL     1      -1.930   4.126  26.715  0.00  0.00    +0.149 HD
BRANCH  24  25
ATOM     25  C   UNL     1       0.415   3.020  26.972  0.00  0.00    +0.037 A 
ATOM     26  C   UNL     1       1.792   3.196  27.115  0.00  0.00    +0.016 A 
ATOM     27  C   UNL     1      -0.334   2.495  28.025  0.00  0.00    +0.016 A 
ATOM     28  C   UNL     1       2.419   2.847  28.311  0.00  0.00    +0.046 A 
ATOM     29  C   UNL     1       0.293   2.146  29.221  0.00  0.00    +0.046 A 
ATOM     30  C   UNL     1       1.669   2.323  29.363  0.00  0.00    +0.120 A 
BRANCH  30   2
ATOM      2  O   UNL     1       2.281   1.982  30.531  0.00  0.00    -0.495 OA
ATOM     31  C   UNL     1       1.454   1.864  31.687  0.00  0.00    +0.277 C 
ENDBRANCH  30   2
ENDBRANCH  24  25
ENDBRANCH  15   5
ENDBRANCH   9  15
TORSDOF 6
ENDMDL
MODEL 8
REMARK VINA RESULT:       5.7      2.786      6.614
REMARK  Name = 25389060
REMARK  8 active torsions:
REMARK  status: ('A' for Active; 'I' for Inactive)
REMARK    1  A    between atoms: O_2  and  C_30
REMARK    2  A    between atoms: O_2  and  C_31
REMARK    3  A    between atoms: N_4  and  C_23
REMARK    4  A    between atoms: N_5  and  C_15
REMARK    5  A    between atoms: C_8  and  C_14
REMARK    6  A    between atoms: C_9  and  C_15
REMARK    7  A    between atoms: C_17  and  C_18
REMARK    8  A    between atoms: C_24  and  C_25
REMARK                            x       y       z     vdW  Elec       q    Type
REMARK                         _______ _______ _______ _____ _____    ______ ____
ROOT
ATOM      3  N   UNL     1      -3.852  -1.570  25.757  0.00  0.00    -0.297 NA
ATOM      7  C   UNL     1      -1.822  -2.913  24.829  0.00  0.00    +0.002 C 
ATOM      8  C   UNL     1      -1.344  -1.587  25.483  0.00  0.00    +0.055 C 
ATOM      9  C   UNL     1      -4.114  -1.980  24.353  0.00  0.00    +0.074 C 
ATOM     10  C   UNL     1      -2.846  -2.594  23.720  0.00  0.00    +0.024 C 
ATOM     11  C   UNL     1      -2.613  -0.756  25.827  0.00  0.00    +0.094 C 
ATOM     12  C   UNL     1      -2.571  -3.704  25.924  0.00  0.00    +0.019 C 
ATOM     13  C   UNL     1      -3.643  -2.800  26.558  0.00  0.00    +0.085 C 
ENDROOT
BRANCH   8  14
ATOM      4  N   UNL     1      -0.180   0.589  24.889  0.00  0.00    -0.271 N 
ATOM      6  N   UNL     1       0.809   1.128  24.157  0.00  0.00    -0.176 NA
ATOM     14  C   UNL     1      -0.294  -0.763  24.751  0.00  0.00    +0.044 A 
ATOM     16  C   UNL     1       0.689  -1.134  23.867  0.00  0.00    +0.048 A 
ATOM     18  C   UNL     1       1.337   0.070  23.536  0.00  0.00    +0.066 A 
ATOM     23  C   UNL     1      -0.996   1.449  25.715  0.00  0.00    +0.172 C 
BRANCH  18  17
ATOM     17  C   UNL     1       2.507   0.259  22.595  0.00  0.00    +0.040 C 
ATOM     19  C   UNL     1       3.189   1.626  22.769  0.00  0.00    +0.010 C 
ATOM     20  C   UNL     1       3.628  -0.790  22.751  0.00  0.00    +0.010 C 
ATOM     21  C   UNL     1       4.667   1.355  22.532  0.00  0.00    +0.001 C 
ATOM     22  C   UNL     1       4.870  -0.009  23.165  0.00  0.00    +0.001 C 
ENDBRANCH  18  17
ENDBRANCH   8  14
BRANCH   9  15
ATOM     15  C   UNL     1      -4.676  -0.837  23.506  0.00  0.00    +0.123 C 
BRANCH  15   5
ATOM      1  O   UNL     1      -5.819   1.437  24.836  0.00  0.00    -0.270 OA
ATOM      5  N   UNL     1      -4.017   0.395  23.808  0.00  0.00    -0.310 N 
ATOM     24  C   UNL     1      -4.649   1.453  24.460  0.00  0.00    +0.244 C 
ATOM     32  H   UNL     1      -3.066   0.498  23.470  0.00  0.00    +0.149 HD
BRANCH  24  25
ATOM     25  C   UNL     1      -3.834   2.676  24.678  0.00  0.00    +0.037 A 
ATOM     26  C   UNL     1      -2.938   3.101  23.697  0.00  0.00    +0.016 A 
ATOM     27  C   UNL     1      -3.962   3.396  25.865  0.00  0.00    +0.016 A 
ATOM     28  C   UNL     1      -2.171   4.248  23.903  0.00  0.00    +0.046 A 
ATOM     29  C   UNL     1      -3.195   4.543  26.071  0.00  0.00    +0.046 A 
ATOM     30  C   UNL     1      -2.300   4.968  25.090  0.00  0.00    +0.120 A 
BRANCH  30   2
ATOM      2  O   UNL     1      -1.551   6.087  25.292  0.00  0.00    -0.495 OA
ATOM     31  C   UNL     1      -0.233   6.094  24.746  0.00  0.00    +0.277 C 
ENDBRANCH  30   2
ENDBRANCH  24  25
ENDBRANCH  15   5
ENDBRANCH   9  15
TORSDOF 6
ENDMDL
MODEL 9
REMARK VINA RESULT:       6.0      2.228      5.943
REMARK  Name = 25389060
REMARK  8 active torsions:
REMARK  status: ('A' for Active; 'I' for Inactive)
REMARK    1  A    between atoms: O_2  and  C_30
REMARK    2  A    between atoms: O_2  and  C_31
REMARK    3  A    between atoms: N_4  and  C_23
REMARK    4  A    between atoms: N_5  and  C_15
REMARK    5  A    between atoms: C_8  and  C_14
REMARK    6  A    between atoms: C_9  and  C_15
REMARK    7  A    between atoms: C_17  and  C_18
REMARK    8  A    between atoms: C_24  and  C_25
REMARK                            x       y       z     vdW  Elec       q    Type
REMARK                         _______ _______ _______ _____ _____    ______ ____
ROOT
ATOM      3  N   UNL     1      -4.379   4.401  26.556  0.00  0.00    -0.297 NA
ATOM      7  C   UNL     1      -4.738   3.696  24.075  0.00  0.00    +0.002 C 
ATOM      8  C   UNL     1      -5.001   2.495  25.025  0.00  0.00    +0.055 C 
ATOM      9  C   UNL     1      -3.212   4.818  25.737  0.00  0.00    +0.074 C 
ATOM     10  C   UNL     1      -3.310   4.231  24.312  0.00  0.00    +0.024 C 
ATOM     11  C   UNL     1      -4.574   2.933  26.455  0.00  0.00    +0.094 C 
ATOM     12  C   UNL     1      -5.716   4.816  24.492  0.00  0.00    +0.019 C 
ATOM     13  C   UNL     1      -5.584   5.066  26.005  0.00  0.00    +0.085 C 
ENDROOT
BRANCH   8  14
ATOM      4  N   UNL     1      -3.646   0.944  23.541  0.00  0.00    -0.271 N 
ATOM      6  N   UNL     1      -3.244  -0.327  23.378  0.00  0.00    -0.176 NA
ATOM     14  C   UNL     1      -4.430   1.138  24.641  0.00  0.00    +0.044 A 
ATOM     16  C   UNL     1      -4.548  -0.093  25.239  0.00  0.00    +0.048 A 
ATOM     18  C   UNL     1      -3.797  -0.956  24.419  0.00  0.00    +0.066 A 
ATOM     23  C   UNL     1      -3.235   1.943  22.582  0.00  0.00    +0.172 C 
BRANCH  18  17
ATOM     17  C   UNL     1      -3.577  -2.441  24.603  0.00  0.00    +0.040 C 
ATOM     19  C   UNL     1      -4.220  -3.276  23.482  0.00  0.00    +0.010 C 
ATOM     20  C   UNL     1      -2.094  -2.868  24.642  0.00  0.00    +0.010 C 
ATOM     21  C   UNL     1      -3.265  -4.440  23.269  0.00  0.00    +0.001 C 
ATOM     22  C   UNL     1      -1.900  -3.801  23.452  0.00  0.00    +0.001 C 
ENDBRANCH  18  17
ENDBRANCH   8  14
BRANCH   9  15
ATOM     15  C   UNL     1      -1.878   4.476  26.404  0.00  0.00    +0.123 C 
BRANCH  15   5
ATOM      1  O   UNL     1      -1.616   1.617  26.451  0.00  0.00    -0.270 OA
ATOM      5  N   UNL     1      -1.064   3.679  25.539  0.00  0.00    -0.310 N 
ATOM     24  C   UNL     1      -0.996   2.290  25.631  0.00  0.00    +0.244 C 
ATOM     32  H   UNL     1      -0.478   4.177  24.878  0.00  0.00    +0.149 HD
BRANCH  24  25
ATOM     25  C   UNL     1      -0.083   1.610  24.676  0.00  0.00    +0.037 A 
ATOM     26  C   UNL     1      -0.304   0.276  24.330  0.00  0.00    +0.016 A 
ATOM     27  C   UNL     1       0.996   2.303  24.128  0.00  0.00    +0.016 A 
ATOM     28  C   UNL     1       0.554  -0.364  23.435  0.00  0.00    +0.046 A 
ATOM     29  C   UNL     1       1.854   1.663  23.233  0.00  0.00    +0.046 A 
ATOM     30  C   UNL     1       1.632   0.331  22.887  0.00  0.00    +0.120 A 
BRANCH  30   2
ATOM      2  O   UNL     1       2.470  -0.293  22.014  0.00  0.00    -0.495 OA
ATOM     31  C   UNL     1       3.804   0.206  21.924  0.00  0.00    +0.277 C 
ENDBRANCH  30   2
ENDBRANCH  24  25
ENDBRANCH  15   5
ENDBRANCH   9  15
TORSDOF 6
ENDMDL
