MODEL 1
REMARK VINA RESULT:      -4.0      0.000      0.000
REMARK  Name = 75536413
REMARK  8 active torsions:
REMARK  status: ('A' for Active; 'I' for Inactive)
REMARK    1  A    between atoms: O_2  and  C_11
REMARK    2  A    between atoms: N_6  and  C_15
REMARK    3  A    between atoms: N_7  and  C_18
REMARK    4  A    between atoms: C_9  and  C_14
REMARK    5  A    between atoms: C_10  and  C_15
REMARK    6  A    between atoms: C_14  and  C_16
REMARK    7  A    between atoms: C_18  and  C_19
REMARK    8  A    between atoms: C_24  and  C_25
REMARK                            x       y       z     vdW  Elec       q    Type
REMARK                         _______ _______ _______ _____ _____    ______ ____
ROOT
ATOM      1  O   UNL     1      -2.704   3.022  26.075  0.00  0.00    -0.369 OA
ATOM      9  C   UNL     1      -1.551   3.143  25.240  0.00  0.00    +0.125 C 
ATOM     10  C   UNL     1      -3.848   3.775  25.650  0.00  0.00    +0.164 C 
ATOM     11  C   UNL     1      -3.507   5.262  25.485  0.00  0.00    +0.145 C 
ATOM     12  C   UNL     1      -1.105   4.602  25.143  0.00  0.00    +0.034 C 
ATOM     13  C   UNL     1      -2.250   5.482  24.649  0.00  0.00    +0.036 C 
ENDROOT
BRANCH  11   2
ATOM      2  O   UNL     1      -3.276   5.827  26.778  0.00  0.00    -0.389 OA
ATOM     31  H   UNL     1      -2.388   6.224  26.771  0.00  0.00    +0.210 HD
ENDBRANCH  11   2
BRANCH   9  14
ATOM     14  C   UNL     1      -0.452   2.279  25.846  0.00  0.00    +0.090 C 
BRANCH  14  16
ATOM      3  O   UNL     1       0.316  -0.596  23.813  0.00  0.00    -0.358 OA
ATOM      8  N   UNL     1      -0.388   0.040  24.828  0.00  0.00    -0.083 NA
ATOM     16  C   UNL     1       0.091   1.288  24.853  0.00  0.00    +0.086 A 
ATOM     17  C   UNL     1       1.088   1.495  23.885  0.00  0.00    +0.072 A 
ATOM     19  C   UNL     1       1.192   0.282  23.259  0.00  0.00    +0.151 A 
BRANCH  19  18
ATOM     18  C   UNL     1       2.024  -0.228  22.162  0.00  0.00    +0.161 C 
BRANCH  18   7
ATOM      4  O   UNL     1       5.571  -0.312  24.403  0.00  0.00    -0.377 OA
ATOM      7  N   UNL     1       3.423  -0.416  22.539  0.00  0.00    -0.291 NA
ATOM     20  C   UNL     1       4.033   0.859  22.937  0.00  0.00    +0.113 C 
ATOM     21  C   UNL     1       3.543  -1.394  23.629  0.00  0.00    +0.113 C 
ATOM     22  C   UNL     1       5.489   0.635  23.337  0.00  0.00    +0.175 C 
ATOM     23  C   UNL     1       5.009  -1.565  24.013  0.00  0.00    +0.175 C 
ENDBRANCH  18   7
ENDBRANCH  19  18
ENDBRANCH  14  16
ENDBRANCH   9  14
BRANCH  10  15
ATOM     15  C   UNL     1      -4.473   3.165  24.398  0.00  0.00    +0.138 C 
BRANCH  15   6
ATOM      5  O   UNL     1      -5.512   1.030  26.012  0.00  0.00    -0.270 OA
ATOM      6  N   UNL     1      -4.150   1.774  24.287  0.00  0.00    -0.309 N 
ATOM     24  C   UNL     1      -4.703   0.801  25.117  0.00  0.00    +0.244 C 
ATOM     32  H   UNL     1      -3.518   1.512  23.540  0.00  0.00    +0.149 HD
BRANCH  24  25
ATOM     25  C   UNL     1      -4.244  -0.594  24.892  0.00  0.00    +0.037 A 
ATOM     26  C   UNL     1      -4.583  -1.260  23.715  0.00  0.00    +0.013 A 
ATOM     27  C   UNL     1      -3.472  -1.237  25.859  0.00  0.00    +0.013 A 
ATOM     28  C   UNL     1      -4.151  -2.569  23.504  0.00  0.00    +0.001 A 
ATOM     29  C   UNL     1      -3.038  -2.546  25.648  0.00  0.00    +0.001 A 
ATOM     30  C   UNL     1      -3.378  -3.212  24.471  0.00  0.00    +0.000 A 
ENDBRANCH  24  25
ENDBRANCH  15   6
ENDBRANCH  10  15
TORSDOF 8
ENDMDL
MODEL 2
REMARK VINA RESULT:      -3.7      1.863      7.019
REMARK  Name = 75536413
REMARK  8 active torsions:
REMARK  status: ('A' for Active; 'I' for Inactive)
REMARK    1  A    between atoms: O_2  and  C_11
REMARK    2  A    between atoms: N_6  and  C_15
REMARK    3  A    between atoms: N_7  and  C_18
REMARK    4  A    between atoms: C_9  and  C_14
REMARK    5  A    between atoms: C_10  and  C_15
REMARK    6  A    between atoms: C_14  and  C_16
REMARK    7  A    between atoms: C_18  and  C_19
REMARK    8  A    between atoms: C_24  and  C_25
REMARK                            x       y       z     vdW  Elec       q    Type
REMARK                         _______ _______ _______ _____ _____    ______ ____
ROOT
ATOM      1  O   UNL     1      -2.929  -0.406  25.001  0.00  0.00    -0.369 OA
ATOM      9  C   UNL     1      -3.966  -0.690  24.060  0.00  0.00    +0.125 C 
ATOM     10  C   UNL     1      -1.666  -1.026  24.724  0.00  0.00    +0.164 C 
ATOM     11  C   UNL     1      -1.810  -2.548  24.589  0.00  0.00    +0.145 C 
ATOM     12  C   UNL     1      -4.224  -2.195  23.980  0.00  0.00    +0.034 C 
ATOM     13  C   UNL     1      -2.939  -2.943  23.641  0.00  0.00    +0.036 C 
ENDROOT
BRANCH  11   2
ATOM      2  O   UNL     1      -2.107  -3.098  25.875  0.00  0.00    -0.389 OA
ATOM     31  H   UNL     1      -2.622  -2.436  26.367  0.00  0.00    +0.210 HD
ENDBRANCH  11   2
BRANCH   9  14
ATOM     14  C   UNL     1      -5.217   0.051  24.517  0.00  0.00    +0.090 C 
BRANCH  14  16
ATOM      3  O   UNL     1      -5.213   3.336  26.001  0.00  0.00    -0.358 OA
ATOM      8  N   UNL     1      -5.840   2.148  25.643  0.00  0.00    -0.083 NA
ATOM     16  C   UNL     1      -4.891   1.423  25.043  0.00  0.00    +0.086 A 
ATOM     17  C   UNL     1      -3.658   2.095  24.994  0.00  0.00    +0.072 A 
ATOM     19  C   UNL     1      -3.914   3.292  25.608  0.00  0.00    +0.151 A 
BRANCH  19  18
ATOM     18  C   UNL     1      -3.098   4.475  25.910  0.00  0.00    +0.161 C 
BRANCH  18   7
ATOM      4  O   UNL     1       0.550   2.774  24.721  0.00  0.00    -0.377 OA
ATOM      7  N   UNL     1      -1.665   4.248  25.731  0.00  0.00    -0.291 NA
ATOM     20  C   UNL     1      -1.261   2.966  26.324  0.00  0.00    +0.113 C 
ATOM     21  C   UNL     1      -1.306   4.280  24.306  0.00  0.00    +0.113 C 
ATOM     22  C   UNL     1       0.234   2.747  26.113  0.00  0.00    +0.175 C 
ATOM     23  C   UNL     1       0.190   4.029  24.144  0.00  0.00    +0.175 C 
ENDBRANCH  18   7
ENDBRANCH  19  18
ENDBRANCH  14  16
ENDBRANCH   9  14
BRANCH  10  15
ATOM     15  C   UNL     1      -0.990  -0.381  23.517  0.00  0.00    +0.138 C 
BRANCH  15   6
ATOM      5  O   UNL     1       1.021  -0.388  21.469  0.00  0.00    -0.270 OA
ATOM      6  N   UNL     1       0.426  -0.289  23.709  0.00  0.00    -0.309 N 
ATOM     24  C   UNL     1       1.335  -0.300  22.653  0.00  0.00    +0.244 C 
ATOM     32  H   UNL     1       0.750  -0.174  24.663  0.00  0.00    +0.149 HD
BRANCH  24  25
ATOM     25  C   UNL     1       2.772  -0.225  23.019  0.00  0.00    +0.037 A 
ATOM     26  C   UNL     1       3.495   0.942  22.774  0.00  0.00    +0.013 A 
ATOM     27  C   UNL     1       3.399  -1.321  23.612  0.00  0.00    +0.013 A 
ATOM     28  C   UNL     1       4.844   1.013  23.120  0.00  0.00    +0.001 A 
ATOM     29  C   UNL     1       4.748  -1.250  23.959  0.00  0.00    +0.001 A 
ATOM     30  C   UNL     1       5.471  -0.083  23.712  0.00  0.00    +0.000 A 
ENDBRANCH  24  25
ENDBRANCH  15   6
ENDBRANCH  10  15
TORSDOF 8
ENDMDL
MODEL 3
REMARK VINA RESULT:      -1.6      1.909      7.413
REMARK  Name = 75536413
REMARK  8 active torsions:
REMARK  status: ('A' for Active; 'I' for Inactive)
REMARK    1  A    between atoms: O_2  and  C_11
REMARK    2  A    between atoms: N_6  and  C_15
REMARK    3  A    between atoms: N_7  and  C_18
REMARK    4  A    between atoms: C_9  and  C_14
REMARK    5  A    between atoms: C_10  and  C_15
REMARK    6  A    between atoms: C_14  and  C_16
REMARK    7  A    between atoms: C_18  and  C_19
REMARK    8  A    between atoms: C_24  and  C_25
REMARK                            x       y       z     vdW  Elec       q    Type
REMARK                         _______ _______ _______ _____ _____    ______ ____
ROOT
ATOM      1  O   UNL     1      -2.542  -0.211  24.651  0.00  0.00    -0.369 OA
ATOM      9  C   UNL     1      -3.143  -1.394  24.117  0.00  0.00    +0.125 C 
ATOM     10  C   UNL     1      -1.124  -0.285  24.852  0.00  0.00    +0.164 C 
ATOM     11  C   UNL     1      -0.748  -1.478  25.741  0.00  0.00    +0.145 C 
ATOM     12  C   UNL     1      -2.890  -2.589  25.035  0.00  0.00    +0.034 C 
ATOM     13  C   UNL     1      -1.396  -2.778  25.273  0.00  0.00    +0.036 C 
ENDROOT
BRANCH  11   2
ATOM      2  O   UNL     1      -1.198  -1.220  27.073  0.00  0.00    -0.389 OA
ATOM     31  H   UNL     1      -1.915  -1.847  27.268  0.00  0.00    +0.210 HD
ENDBRANCH  11   2
BRANCH   9  14
ATOM     14  C   UNL     1      -4.636  -1.124  23.973  0.00  0.00    +0.090 C 
BRANCH  14  16
ATOM      3  O   UNL     1      -6.199   1.982  24.918  0.00  0.00    -0.358 OA
ATOM      8  N   UNL     1      -6.226   0.613  24.683  0.00  0.00    -0.083 NA
ATOM     16  C   UNL     1      -4.981   0.301  24.311  0.00  0.00    +0.086 A 
ATOM     17  C   UNL     1      -4.133   1.421  24.293  0.00  0.00    +0.072 A 
ATOM     19  C   UNL     1      -4.947   2.452  24.682  0.00  0.00    +0.151 A 
BRANCH  19  18
ATOM     18  C   UNL     1      -4.738   3.891  24.884  0.00  0.00    +0.161 C 
BRANCH  18   7
ATOM      4  O   UNL     1      -0.552   4.115  24.689  0.00  0.00    -0.377 OA
ATOM      7  N   UNL     1      -3.386   4.330  24.545  0.00  0.00    -0.291 NA
ATOM     20  C   UNL     1      -2.646   4.721  25.753  0.00  0.00    +0.113 C 
ATOM     21  C   UNL     1      -2.658   3.273  23.828  0.00  0.00    +0.113 C 
ATOM     22  C   UNL     1      -1.235   5.164  25.375  0.00  0.00    +0.175 C 
ATOM     23  C   UNL     1      -1.248   3.750  23.496  0.00  0.00    +0.175 C 
ENDBRANCH  18   7
ENDBRANCH  19  18
ENDBRANCH  14  16
ENDBRANCH   9  14
BRANCH  10  15
ATOM     15  C   UNL     1      -0.379  -0.274  23.520  0.00  0.00    +0.138 C 
BRANCH  15   6
ATOM      5  O   UNL     1       1.646  -0.276  21.485  0.00  0.00    -0.270 OA
ATOM      6  N   UNL     1       1.038  -0.246  23.724  0.00  0.00    -0.309 N 
ATOM     24  C   UNL     1       1.954  -0.249  22.673  0.00  0.00    +0.244 C 
ATOM     32  H   UNL     1       1.359  -0.182  24.683  0.00  0.00    +0.149 HD
BRANCH  24  25
ATOM     25  C   UNL     1       3.390  -0.245  23.051  0.00  0.00    +0.037 A 
ATOM     26  C   UNL     1       3.959  -1.371  23.646  0.00  0.00    +0.013 A 
ATOM     27  C   UNL     1       4.172   0.885  22.809  0.00  0.00    +0.013 A 
ATOM     28  C   UNL     1       5.308  -1.367  24.000  0.00  0.00    +0.001 A 
ATOM     29  C   UNL     1       5.521   0.889  23.161  0.00  0.00    +0.001 A 
ATOM     30  C   UNL     1       6.089  -0.237  23.757  0.00  0.00    +0.000 A 
ENDBRANCH  24  25
ENDBRANCH  15   6
ENDBRANCH  10  15
TORSDOF 8
ENDMDL
MODEL 4
REMARK VINA RESULT:      -1.4      1.774      4.717
REMARK  Name = 75536413
REMARK  8 active torsions:
REMARK  status: ('A' for Active; 'I' for Inactive)
REMARK    1  A    between atoms: O_2  and  C_11
REMARK    2  A    between atoms: N_6  and  C_15
REMARK    3  A    between atoms: N_7  and  C_18
REMARK    4  A    between atoms: C_9  and  C_14
REMARK    5  A    between atoms: C_10  and  C_15
REMARK    6  A    between atoms: C_14  and  C_16
REMARK    7  A    between atoms: C_18  and  C_19
REMARK    8  A    between atoms: C_24  and  C_25
REMARK                            x       y       z     vdW  Elec       q    Type
REMARK                         _______ _______ _______ _____ _____    ______ ____
ROOT
ATOM      1  O   UNL     1      -2.368  -0.729  24.188  0.00  0.00    -0.369 OA
ATOM      9  C   UNL     1      -2.397  -0.777  25.616  0.00  0.00    +0.125 C 
ATOM     10  C   UNL     1      -3.531  -1.257  23.536  0.00  0.00    +0.164 C 
ATOM     11  C   UNL     1      -3.813  -2.698  23.979  0.00  0.00    +0.145 C 
ATOM     12  C   UNL     1      -2.560  -2.216  26.104  0.00  0.00    +0.034 C 
ATOM     13  C   UNL     1      -3.806  -2.852  25.497  0.00  0.00    +0.036 C 
ENDROOT
BRANCH  11   2
ATOM      2  O   UNL     1      -2.794  -3.550  23.449  0.00  0.00    -0.389 OA
ATOM     31  H   UNL     1      -1.987  -3.017  23.348  0.00  0.00    +0.210 HD
ENDBRANCH  11   2
BRANCH   9  14
ATOM     14  C   UNL     1      -1.091  -0.176  26.122  0.00  0.00    +0.090 C 
BRANCH  14  16
ATOM      3  O   UNL     1       0.961   1.485  23.668  0.00  0.00    -0.358 OA
ATOM      8  N   UNL     1       0.104   1.490  24.762  0.00  0.00    -0.083 NA
ATOM     16  C   UNL     1      -0.176   0.203  24.989  0.00  0.00    +0.086 A 
ATOM     17  C   UNL     1       0.471  -0.651  24.080  0.00  0.00    +0.072 A 
ATOM     19  C   UNL     1       1.172   0.203  23.271  0.00  0.00    +0.151 A 
BRANCH  19  18
ATOM     18  C   UNL     1       2.061   0.012  22.119  0.00  0.00    +0.161 C 
BRANCH  18   7
ATOM      4  O   UNL     1       5.571  -0.384  24.385  0.00  0.00    -0.377 OA
ATOM      7  N   UNL     1       3.443  -0.272  22.498  0.00  0.00    -0.291 NA
ATOM     20  C   UNL     1       4.117   0.945  22.970  0.00  0.00    +0.113 C 
ATOM     21  C   UNL     1       3.496  -1.312  23.536  0.00  0.00    +0.113 C 
ATOM     22  C   UNL     1       5.553   0.620  23.371  0.00  0.00    +0.175 C 
ATOM     23  C   UNL     1       4.946  -1.583  23.924  0.00  0.00    +0.175 C 
ENDBRANCH  18   7
ENDBRANCH  19  18
ENDBRANCH  14  16
ENDBRANCH   9  14
BRANCH  10  15
ATOM     15  C   UNL     1      -4.731  -0.331  23.718  0.00  0.00    +0.138 C 
BRANCH  15   6
ATOM      5  O   UNL     1      -3.117   1.787  22.644  0.00  0.00    -0.270 OA
ATOM      6  N   UNL     1      -4.352   0.877  24.386  0.00  0.00    -0.309 N 
ATOM     24  C   UNL     1      -3.562   1.857  23.786  0.00  0.00    +0.244 C 
ATOM     32  H   UNL     1      -4.720   1.017  25.320  0.00  0.00    +0.149 HD
BRANCH  24  25
ATOM     25  C   UNL     1      -3.233   3.040  24.622  0.00  0.00    +0.037 A 
ATOM     26  C   UNL     1      -4.093   3.431  25.648  0.00  0.00    +0.013 A 
ATOM     27  C   UNL     1      -2.063   3.760  24.381  0.00  0.00    +0.013 A 
ATOM     28  C   UNL     1      -3.784   4.541  26.433  0.00  0.00    +0.001 A 
ATOM     29  C   UNL     1      -1.752   4.870  25.167  0.00  0.00    +0.001 A 
ATOM     30  C   UNL     1      -2.613   5.261  26.192  0.00  0.00    +0.000 A 
ENDBRANCH  24  25
ENDBRANCH  15   6
ENDBRANCH  10  15
TORSDOF 8
ENDMDL
MODEL 5
REMARK VINA RESULT:      -0.4      1.769      6.547
REMARK  Name = 75536413
REMARK  8 active torsions:
REMARK  status: ('A' for Active; 'I' for Inactive)
REMARK    1  A    between atoms: O_2  and  C_11
REMARK    2  A    between atoms: N_6  and  C_15
REMARK    3  A    between atoms: N_7  and  C_18
REMARK    4  A    between atoms: C_9  and  C_14
REMARK    5  A    between atoms: C_10  and  C_15
REMARK    6  A    between atoms: C_14  and  C_16
REMARK    7  A    between atoms: C_18  and  C_19
REMARK    8  A    between atoms: C_24  and  C_25
REMARK                            x       y       z     vdW  Elec       q    Type
REMARK                         _______ _______ _______ _____ _____    ______ ____
ROOT
ATOM      1  O   UNL     1      -2.024   3.279  23.975  0.00  0.00    -0.369 OA
ATOM      9  C   UNL     1      -2.358   4.016  25.153  0.00  0.00    +0.125 C 
ATOM     10  C   UNL     1      -0.631   2.985  23.813  0.00  0.00    +0.164 C 
ATOM     11  C   UNL     1       0.218   4.262  23.857  0.00  0.00    +0.145 C 
ATOM     12  C   UNL     1      -1.620   5.354  25.179  0.00  0.00    +0.034 C 
ATOM     13  C   UNL     1      -0.115   5.140  25.059  0.00  0.00    +0.036 C 
ENDROOT
BRANCH  11   2
ATOM      2  O   UNL     1      -0.037   5.025  22.674  0.00  0.00    -0.389 OA
ATOM     31  H   UNL     1      -0.068   5.963  22.930  0.00  0.00    +0.210 HD
ENDBRANCH  11   2
BRANCH   9  14
ATOM     14  C   UNL     1      -3.867   4.228  25.150  0.00  0.00    +0.090 C 
BRANCH  14  16
ATOM      3  O   UNL     1      -6.282   1.552  25.159  0.00  0.00    -0.358 OA
ATOM      8  N   UNL     1      -5.913   2.878  25.358  0.00  0.00    -0.083 NA
ATOM     16  C   UNL     1      -4.613   2.925  25.050  0.00  0.00    +0.086 A 
ATOM     17  C   UNL     1      -4.114   1.673  24.653  0.00  0.00    +0.072 A 
ATOM     19  C   UNL     1      -5.201   0.845  24.739  0.00  0.00    +0.151 A 
BRANCH  19  18
ATOM     18  C   UNL     1      -5.414  -0.583  24.479  0.00  0.00    +0.161 C 
BRANCH  18   7
ATOM      4  O   UNL     1      -1.702  -2.516  24.173  0.00  0.00    -0.377 OA
ATOM      7  N   UNL     1      -4.248  -1.407  24.792  0.00  0.00    -0.291 NA
ATOM     20  C   UNL     1      -4.102  -2.497  23.819  0.00  0.00    +0.113 C 
ATOM     21  C   UNL     1      -3.026  -0.590  24.822  0.00  0.00    +0.113 C 
ATOM     22  C   UNL     1      -2.872  -3.334  24.160  0.00  0.00    +0.175 C 
ATOM     23  C   UNL     1      -1.823  -1.472  25.139  0.00  0.00    +0.175 C 
ENDBRANCH  18   7
ENDBRANCH  19  18
ENDBRANCH  14  16
ENDBRANCH   9  14
BRANCH  10  15
ATOM     15  C   UNL     1      -0.172   1.929  24.816  0.00  0.00    +0.138 C 
BRANCH  15   6
ATOM      5  O   UNL     1       0.633  -0.034  22.882  0.00  0.00    -0.270 OA
ATOM      6  N   UNL     1       1.166   1.502  24.538  0.00  0.00    -0.309 N 
ATOM     24  C   UNL     1       1.468   0.538  23.577  0.00  0.00    +0.244 C 
ATOM     32  H   UNL     1       1.908   1.965  25.049  0.00  0.00    +0.149 HD
BRANCH  24  25
ATOM     25  C   UNL     1       2.903   0.185  23.427  0.00  0.00    +0.037 A 
ATOM     26  C   UNL     1       3.803   1.121  22.919  0.00  0.00    +0.013 A 
ATOM     27  C   UNL     1       3.350  -1.083  23.797  0.00  0.00    +0.013 A 
ATOM     28  C   UNL     1       5.150   0.789  22.779  0.00  0.00    +0.001 A 
ATOM     29  C   UNL     1       4.698  -1.416  23.659  0.00  0.00    +0.001 A 
ATOM     30  C   UNL     1       5.598  -0.479  23.149  0.00  0.00    +0.000 A 
ENDBRANCH  24  25
ENDBRANCH  15   6
ENDBRANCH  10  15
TORSDOF 8
ENDMDL
