MODEL 1
REMARK VINA RESULT:       3.9      0.000      0.000
REMARK  Name = 11912971
REMARK  5 active torsions:
REMARK  status: ('A' for Active; 'I' for Inactive)
REMARK    1  A    between atoms: N_8  and  C_14
REMARK    2  A    between atoms: N_9  and  C_15
REMARK    3  A    between atoms: C_18  and  C_20
REMARK    4  A    between atoms: C_23  and  C_29
REMARK    5  A    between atoms: C_28  and  C_30
REMARK                            x       y       z     vdW  Elec       q    Type
REMARK                         _______ _______ _______ _____ _____    ______ ____
ROOT
ATOM      4  O   UNL     1      -2.826  -1.131  26.136  0.00  0.00    -0.370 OA
ATOM      5  O   UNL     1      -4.259  -1.081  23.387  0.00  0.00    -0.370 OA
ATOM     12  C   UNL     1      -2.927  -0.724  23.798  0.00  0.00    +0.171 C 
ATOM     13  C   UNL     1      -3.038  -0.086  25.170  0.00  0.00    +0.171 C 
ATOM     14  C   UNL     1      -2.098  -1.967  24.033  0.00  0.00    +0.130 C 
ATOM     15  C   UNL     1      -4.466   0.402  25.234  0.00  0.00    +0.130 C 
ATOM     16  C   UNL     1      -2.499  -2.348  25.449  0.00  0.00    +0.185 C 
ATOM     17  C   UNL     1      -5.199  -0.600  24.360  0.00  0.00    +0.185 C 
ENDROOT
BRANCH  15   9
ATOM      9  N   UNL     1      -4.562   1.728  24.666  0.00  0.00    -0.306 N 
ATOM     10  N   UNL     1      -2.505   2.390  25.584  0.00  0.00    -0.211 NA
ATOM     11  N   UNL     1      -3.811   3.911  24.247  0.00  0.00    -0.223 NA
ATOM     19  C   UNL     1      -3.597   2.706  24.837  0.00  0.00    +0.216 A 
ATOM     23  C   UNL     1      -1.586   3.366  25.730  0.00  0.00    +0.111 A 
ATOM     24  C   UNL     1      -2.851   4.841  24.434  0.00  0.00    +0.116 A 
ATOM     25  C   UNL     1      -1.707   4.622  25.172  0.00  0.00    +0.051 A 
ATOM     35  H   UNL     1      -5.345   1.958  24.065  0.00  0.00    +0.149 HD
BRANCH  23  29
ATOM      7  O   UNL     1      -0.697   2.793  27.842  0.00  0.00    -0.461 OA
ATOM     29  C   UNL     1      -0.444   3.003  26.525  0.00  0.00    +0.153 A 
ATOM     31  C   UNL     1       0.889   2.815  26.249  0.00  0.00    +0.051 A 
ATOM     32  C   UNL     1       1.496   2.465  27.479  0.00  0.00    +0.042 A 
ATOM     33  C   UNL     1       0.490   2.465  28.417  0.00  0.00    +0.196 A 
ENDBRANCH  23  29
ENDBRANCH  15   9
BRANCH  14   8
ATOM      6  O   UNL     1      -0.880   0.402  22.929  0.00  0.00    -0.270 OA
ATOM      8  N   UNL     1      -0.672  -1.649  23.992  0.00  0.00    -0.304 N 
ATOM     18  C   UNL     1      -0.184  -0.475  23.435  0.00  0.00    +0.244 C 
ATOM     34  H   UNL     1      -0.033  -2.379  24.289  0.00  0.00    +0.149 HD
BRANCH  18  20
ATOM     20  C   UNL     1       1.293  -0.314  23.448  0.00  0.00    +0.037 A 
ATOM     21  C   UNL     1       2.078  -1.397  23.784  0.00  0.00    +0.013 A 
ATOM     22  C   UNL     1       1.832   0.914  23.123  0.00  0.00    +0.013 A 
ATOM     26  C   UNL     1       3.464  -1.245  23.796  0.00  0.00    +0.013 A 
ATOM     27  C   UNL     1       3.218   1.065  23.135  0.00  0.00    +0.013 A 
ATOM     28  C   UNL     1       4.034  -0.014  23.471  0.00  0.00    +0.055 A 
BRANCH  28  30
ATOM      1  F   UNL     1       5.924   1.424  23.752  0.00  0.00    -0.166 F 
ATOM      2  F   UNL     1       6.115  -0.175  22.300  0.00  0.00    -0.166 F 
ATOM      3  F   UNL     1       6.122  -0.634  24.426  0.00  0.00    -0.166 F 
ATOM     30  C   UNL     1       5.517   0.148  23.485  0.00  0.00    +0.417 C 
ENDBRANCH  28  30
ENDBRANCH  18  20
ENDBRANCH  14   8
TORSDOF 5
ENDMDL
