MODEL 1
REMARK VINA RESULT:       4.6      0.000      0.000
REMARK  Name = 11886038
REMARK  8 active torsions:
REMARK  status: ('A' for Active; 'I' for Inactive)
REMARK    1  A    between atoms: S_1  and  C_18
REMARK    2  A    between atoms: S_1  and  C_19
REMARK    3  A    between atoms: O_4  and  C_15
REMARK    4  A    between atoms: O_4  and  C_24
REMARK    5  A    between atoms: O_6  and  C_30
REMARK    6  A    between atoms: O_6  and  C_31
REMARK    7  A    between atoms: N_7  and  C_14
REMARK    8  A    between atoms: N_11  and  C_25
REMARK                            x       y       z     vdW  Elec       q    Type
REMARK                         _______ _______ _______ _____ _____    ______ ____
ROOT
ATOM      2  O   UNL     1      -2.736  -0.008  25.221  0.00  0.00    -0.368 OA
ATOM      3  O   UNL     1      -5.089  -1.145  23.569  0.00  0.00    -0.368 OA
ATOM     12  C   UNL     1      -5.040  -0.222  24.680  0.00  0.00    +0.177 C 
ATOM     13  C   UNL     1      -3.936  -0.703  25.600  0.00  0.00    +0.192 C 
ATOM     14  C   UNL     1      -4.568   1.133  24.193  0.00  0.00    +0.168 C 
ATOM     15  C   UNL     1      -3.852  -2.177  25.279  0.00  0.00    +0.235 C 
ATOM     16  C   UNL     1      -3.050   1.000  24.248  0.00  0.00    +0.190 C 
ATOM     17  C   UNL     1      -4.137  -2.194  23.794  0.00  0.00    +0.207 C 
ENDROOT
BRANCH  14   7
ATOM      7  N   UNL     1      -5.130   2.237  24.974  0.00  0.00    -0.212 N 
ATOM      8  N   UNL     1      -6.167   2.026  25.797  0.00  0.00    -0.043 NA
ATOM      9  N   UNL     1      -5.555   4.169  25.863  0.00  0.00    -0.101 NA
ATOM     10  N   UNL     1      -6.422   3.210  26.338  0.00  0.00    -0.022 NA
ATOM     19  C   UNL     1      -4.763   3.545  25.022  0.00  0.00    +0.210 A 
BRANCH  19   1
ATOM      1  S   UNL     1      -3.469   4.212  24.109  0.00  0.00    -0.081 S 
BRANCH   1  18
ATOM     18  C   UNL     1      -2.369   4.829  25.429  0.00  0.00    +0.054 C 
ATOM     20  C   UNL     1      -1.001   5.218  24.880  0.00  0.00    +0.014 C 
ATOM     21  C   UNL     1      -2.023   3.731  26.430  0.00  0.00    +0.014 C 
ATOM     22  C   UNL     1      -0.211   3.912  24.802  0.00  0.00    +0.001 C 
ATOM     23  C   UNL     1      -0.871   2.956  25.794  0.00  0.00    +0.001 C 
ENDBRANCH   1  18
ENDBRANCH  19   1
ENDBRANCH  14   7
BRANCH  15   4
ATOM      4  O   UNL     1      -2.602  -2.750  25.586  0.00  0.00    -0.442 OA
BRANCH   4  24
ATOM      5  O   UNL     1      -1.418  -3.371  23.730  0.00  0.00    -0.226 OA
ATOM     11  N   UNL     1      -0.876  -1.446  24.947  0.00  0.00    -0.251 N 
ATOM     24  C   UNL     1      -1.596  -2.588  24.655  0.00  0.00    +0.405 C 
ATOM     37  H   UNL     1      -1.177  -0.920  25.764  0.00  0.00    +0.158 HD
BRANCH  11  25
ATOM     25  C   UNL     1       0.233  -0.914  24.250  0.00  0.00    +0.037 A 
ATOM     26  C   UNL     1       0.143   0.343  23.654  0.00  0.00    +0.027 A 
ATOM     27  C   UNL     1       1.417  -1.647  24.159  0.00  0.00    +0.027 A 
ATOM     28  C   UNL     1       1.237   0.869  22.967  0.00  0.00    +0.048 A 
ATOM     29  C   UNL     1       2.511  -1.121  23.472  0.00  0.00    +0.048 A 
ATOM     30  C   UNL     1       2.421   0.137  22.876  0.00  0.00    +0.129 A 
BRANCH  30   6
ATOM      6  O   UNL     1       3.490   0.650  22.208  0.00  0.00    -0.456 OA
BRANCH   6  31
ATOM     31  C   UNL     1       4.751   0.408  22.726  0.00  0.00    +0.128 A 
ATOM     32  C   UNL     1       5.639  -0.422  22.043  0.00  0.00    +0.046 A 
ATOM     33  C   UNL     1       5.134   0.996  23.932  0.00  0.00    +0.046 A 
ATOM     34  C   UNL     1       6.909  -0.667  22.564  0.00  0.00    +0.004 A 
ATOM     35  C   UNL     1       6.404   0.752  24.454  0.00  0.00    +0.004 A 
ATOM     36  C   UNL     1       7.292  -0.079  23.770  0.00  0.00    +0.000 A 
ENDBRANCH   6  31
ENDBRANCH  30   6
ENDBRANCH  11  25
ENDBRANCH   4  24
ENDBRANCH  15   4
TORSDOF 8
ENDMDL
MODEL 2
REMARK VINA RESULT:       7.3      2.113      3.119
REMARK  Name = 11886038
REMARK  8 active torsions:
REMARK  status: ('A' for Active; 'I' for Inactive)
REMARK    1  A    between atoms: S_1  and  C_18
REMARK    2  A    between atoms: S_1  and  C_19
REMARK    3  A    between atoms: O_4  and  C_15
REMARK    4  A    between atoms: O_4  and  C_24
REMARK    5  A    between atoms: O_6  and  C_30
REMARK    6  A    between atoms: O_6  and  C_31
REMARK    7  A    between atoms: N_7  and  C_14
REMARK    8  A    between atoms: N_11  and  C_25
REMARK                            x       y       z     vdW  Elec       q    Type
REMARK                         _______ _______ _______ _____ _____    ______ ____
ROOT
ATOM      2  O   UNL     1      -4.010   1.655  23.850  0.00  0.00    -0.368 OA
ATOM      3  O   UNL     1      -6.003   2.749  25.945  0.00  0.00    -0.368 OA
ATOM     12  C   UNL     1      -4.611   3.037  25.687  0.00  0.00    +0.177 C 
ATOM     13  C   UNL     1      -3.960   1.728  25.284  0.00  0.00    +0.192 C 
ATOM     14  C   UNL     1      -4.493   3.915  24.458  0.00  0.00    +0.168 C 
ATOM     15  C   UNL     1      -4.858   0.698  25.927  0.00  0.00    +0.235 C 
ATOM     16  C   UNL     1      -4.485   2.901  23.319  0.00  0.00    +0.190 C 
ATOM     17  C   UNL     1      -6.221   1.339  25.796  0.00  0.00    +0.207 C 
ENDROOT
BRANCH  14   7
ATOM      7  N   UNL     1      -3.331   4.806  24.513  0.00  0.00    -0.212 N 
ATOM      8  N   UNL     1      -3.194   5.795  23.618  0.00  0.00    -0.043 NA
ATOM      9  N   UNL     1      -1.475   5.795  25.039  0.00  0.00    -0.101 NA
ATOM     10  N   UNL     1      -2.057   6.397  23.945  0.00  0.00    -0.022 NA
ATOM     19  C   UNL     1      -2.281   4.814  25.374  0.00  0.00    +0.210 A 
BRANCH  19   1
ATOM      1  S   UNL     1      -2.094   3.700  26.670  0.00  0.00    -0.081 S 
BRANCH   1  18
ATOM     18  C   UNL     1      -0.888   2.522  25.969  0.00  0.00    +0.054 C 
ATOM     20  C   UNL     1      -0.570   1.398  26.949  0.00  0.00    +0.014 C 
ATOM     21  C   UNL     1       0.476   3.173  25.759  0.00  0.00    +0.014 C 
ATOM     22  C   UNL     1       0.496   1.967  27.884  0.00  0.00    +0.001 C 
ATOM     23  C   UNL     1       1.165   3.110  27.121  0.00  0.00    +0.001 C 
ENDBRANCH   1  18
ENDBRANCH  19   1
ENDBRANCH  14   7
BRANCH  15   4
ATOM      4  O   UNL     1      -4.804  -0.565  25.303  0.00  0.00    -0.442 OA
BRANCH   4  24
ATOM      5  O   UNL     1      -4.110  -1.225  23.226  0.00  0.00    -0.226 OA
ATOM     11  N   UNL     1      -2.633  -0.268  24.771  0.00  0.00    -0.251 N 
ATOM     24  C   UNL     1      -3.852  -0.732  24.318  0.00  0.00    +0.405 C 
ATOM     37  H   UNL     1      -2.617   0.110  25.715  0.00  0.00    +0.158 HD
BRANCH  11  25
ATOM     25  C   UNL     1      -1.398  -0.251  24.082  0.00  0.00    +0.037 A 
ATOM     26  C   UNL     1      -0.507  -1.315  24.223  0.00  0.00    +0.027 A 
ATOM     27  C   UNL     1      -1.072   0.828  23.260  0.00  0.00    +0.027 A 
ATOM     28  C   UNL     1       0.710  -1.299  23.542  0.00  0.00    +0.048 A 
ATOM     29  C   UNL     1       0.145   0.843  22.579  0.00  0.00    +0.048 A 
ATOM     30  C   UNL     1       1.036  -0.221  22.720  0.00  0.00    +0.129 A 
BRANCH  30   6
ATOM      6  O   UNL     1       2.223  -0.206  22.054  0.00  0.00    -0.456 OA
BRANCH   6  31
ATOM     31  C   UNL     1       3.385  -0.212  22.807  0.00  0.00    +0.128 A 
ATOM     32  C   UNL     1       3.804  -1.387  23.433  0.00  0.00    +0.046 A 
ATOM     33  C   UNL     1       4.137   0.955  22.939  0.00  0.00    +0.046 A 
ATOM     34  C   UNL     1       4.973  -1.394  24.192  0.00  0.00    +0.004 A 
ATOM     35  C   UNL     1       5.307   0.947  23.698  0.00  0.00    +0.004 A 
ATOM     36  C   UNL     1       5.726  -0.227  24.324  0.00  0.00    +0.000 A 
ENDBRANCH   6  31
ENDBRANCH  30   6
ENDBRANCH  11  25
ENDBRANCH   4  24
ENDBRANCH  15   4
TORSDOF 8
ENDMDL
MODEL 3
REMARK VINA RESULT:       7.6      2.538      4.557
REMARK  Name = 11886038
REMARK  8 active torsions:
REMARK  status: ('A' for Active; 'I' for Inactive)
REMARK    1  A    between atoms: S_1  and  C_18
REMARK    2  A    between atoms: S_1  and  C_19
REMARK    3  A    between atoms: O_4  and  C_15
REMARK    4  A    between atoms: O_4  and  C_24
REMARK    5  A    between atoms: O_6  and  C_30
REMARK    6  A    between atoms: O_6  and  C_31
REMARK    7  A    between atoms: N_7  and  C_14
REMARK    8  A    between atoms: N_11  and  C_25
REMARK                            x       y       z     vdW  Elec       q    Type
REMARK                         _______ _______ _______ _____ _____    ______ ____
ROOT
ATOM      2  O   UNL     1      -2.992   1.936  25.611  0.00  0.00    -0.368 OA
ATOM      3  O   UNL     1      -5.956   2.685  25.155  0.00  0.00    -0.368 OA
ATOM     12  C   UNL     1      -5.105   1.683  24.555  0.00  0.00    +0.177 C 
ATOM     13  C   UNL     1      -3.725   2.298  24.430  0.00  0.00    +0.192 C 
ATOM     14  C   UNL     1      -4.921   0.529  25.521  0.00  0.00    +0.168 C 
ATOM     15  C   UNL     1      -4.023   3.779  24.389  0.00  0.00    +0.235 C 
ATOM     16  C   UNL     1      -3.752   0.995  26.382  0.00  0.00    +0.190 C 
ATOM     17  C   UNL     1      -5.200   3.891  25.332  0.00  0.00    +0.207 C 
ENDROOT
BRANCH  14   7
ATOM      7  N   UNL     1      -4.726  -0.751  24.836  0.00  0.00    -0.212 N 
ATOM      8  N   UNL     1      -5.436  -1.046  23.737  0.00  0.00    -0.043 NA
ATOM      9  N   UNL     1      -4.059  -2.726  24.241  0.00  0.00    -0.101 NA
ATOM     10  N   UNL     1      -5.022  -2.255  23.378  0.00  0.00    -0.022 NA
ATOM     19  C   UNL     1      -3.890  -1.779  25.135  0.00  0.00    +0.210 A 
BRANCH  19   1
ATOM      1  S   UNL     1      -2.812  -1.781  26.474  0.00  0.00    -0.081 S 
BRANCH   1  18
ATOM     18  C   UNL     1      -1.315  -1.038  25.740  0.00  0.00    +0.054 C 
ATOM     20  C   UNL     1      -1.252  -1.279  24.236  0.00  0.00    +0.014 C 
ATOM     21  C   UNL     1      -0.046  -1.723  26.238  0.00  0.00    +0.014 C 
ATOM     22  C   UNL     1      -0.662  -2.680  24.076  0.00  0.00    +0.001 C 
ATOM     23  C   UNL     1       0.109  -2.967  25.364  0.00  0.00    +0.001 C 
ENDBRANCH   1  18
ENDBRANCH  19   1
ENDBRANCH  14   7
BRANCH  15   4
ATOM      4  O   UNL     1      -2.939   4.583  24.796  0.00  0.00    -0.442 OA
BRANCH   4  24
ATOM      5  O   UNL     1      -0.658   4.659  24.944  0.00  0.00    -0.226 OA
ATOM     11  N   UNL     1      -1.767   2.851  23.951  0.00  0.00    -0.251 N 
ATOM     24  C   UNL     1      -1.674   4.072  24.591  0.00  0.00    +0.405 C 
ATOM     37  H   UNL     1      -2.706   2.525  23.737  0.00  0.00    +0.158 HD
BRANCH  11  25
ATOM     25  C   UNL     1      -0.714   1.994  23.557  0.00  0.00    +0.037 A 
ATOM     26  C   UNL     1       0.498   2.016  24.246  0.00  0.00    +0.027 A 
ATOM     27  C   UNL     1      -0.889   1.125  22.479  0.00  0.00    +0.027 A 
ATOM     28  C   UNL     1       1.536   1.169  23.857  0.00  0.00    +0.048 A 
ATOM     29  C   UNL     1       0.149   0.278  22.091  0.00  0.00    +0.048 A 
ATOM     30  C   UNL     1       1.362   0.300  22.780  0.00  0.00    +0.129 A 
BRANCH  30   6
ATOM      6  O   UNL     1       2.373  -0.528  22.402  0.00  0.00    -0.456 OA
BRANCH   6  31
ATOM     31  C   UNL     1       3.609  -0.351  23.000  0.00  0.00    +0.128 A 
ATOM     32  C   UNL     1       4.182  -1.387  23.738  0.00  0.00    +0.046 A 
ATOM     33  C   UNL     1       4.282   0.864  22.866  0.00  0.00    +0.046 A 
ATOM     34  C   UNL     1       5.426  -1.210  24.341  0.00  0.00    +0.004 A 
ATOM     35  C   UNL     1       5.526   1.042  23.470  0.00  0.00    +0.004 A 
ATOM     36  C   UNL     1       6.099   0.005  24.207  0.00  0.00    +0.000 A 
ENDBRANCH   6  31
ENDBRANCH  30   6
ENDBRANCH  11  25
ENDBRANCH   4  24
ENDBRANCH  15   4
TORSDOF 8
ENDMDL
