MODEL 1
REMARK VINA RESULT:       1.0      0.000      0.000
REMARK  Name = 11883387
REMARK  7 active torsions:
REMARK  status: ('A' for Active; 'I' for Inactive)
REMARK    1  A    between atoms: O_9  and  C_17
REMARK    2  A    between atoms: O_9  and  C_21
REMARK    3  A    between atoms: N_12  and  C_16
REMARK    4  A    between atoms: N_13  and  C_25
REMARK    5  A    between atoms: C_20  and  C_22
REMARK    6  A    between atoms: C_28  and  C_32
REMARK    7  A    between atoms: C_31  and  C_35
REMARK                            x       y       z     vdW  Elec       q    Type
REMARK                         _______ _______ _______ _____ _____    ______ ____
ROOT
ATOM      7  O   UNL     1      -4.216   2.512  23.851  0.00  0.00    -0.368 OA
ATOM      8  O   UNL     1      -4.042   5.035  25.584  0.00  0.00    -0.368 OA
ATOM     14  C   UNL     1      -3.088   3.984  25.328  0.00  0.00    +0.173 C 
ATOM     15  C   UNL     1      -3.873   2.691  25.235  0.00  0.00    +0.192 C 
ATOM     16  C   UNL     1      -2.493   4.147  23.949  0.00  0.00    +0.130 C 
ATOM     17  C   UNL     1      -5.089   2.986  26.080  0.00  0.00    +0.235 C 
ATOM     18  C   UNL     1      -3.553   3.514  23.064  0.00  0.00    +0.185 C 
ATOM     19  C   UNL     1      -5.337   4.448  25.782  0.00  0.00    +0.207 C 
ENDROOT
BRANCH  16  12
ATOM     10  O   UNL     1      -2.079   1.503  22.909  0.00  0.00    -0.270 OA
ATOM     12  N   UNL     1      -1.234   3.453  23.837  0.00  0.00    -0.304 N 
ATOM     20  C   UNL     1      -1.132   2.170  23.317  0.00  0.00    +0.244 C 
ATOM     36  H   UNL     1      -0.423   3.900  24.252  0.00  0.00    +0.149 HD
BRANCH  20  22
ATOM     22  C   UNL     1       0.234   1.584  23.294  0.00  0.00    +0.037 A 
ATOM     23  C   UNL     1       1.295   2.261  23.894  0.00  0.00    +0.013 A 
ATOM     24  C   UNL     1       0.454   0.355  22.670  0.00  0.00    +0.013 A 
ATOM     26  C   UNL     1       2.576   1.711  23.872  0.00  0.00    +0.013 A 
ATOM     27  C   UNL     1       1.736  -0.194  22.646  0.00  0.00    +0.013 A 
ATOM     28  C   UNL     1       2.796   0.483  23.247  0.00  0.00    +0.055 A 
BRANCH  28  32
ATOM      1  F   UNL     1       4.994   0.397  24.189  0.00  0.00    -0.166 F 
ATOM      2  F   UNL     1       4.829   0.098  22.046  0.00  0.00    -0.166 F 
ATOM      3  F   UNL     1       4.161  -1.456  23.413  0.00  0.00    -0.166 F 
ATOM     32  C   UNL     1       4.167  -0.105  23.224  0.00  0.00    +0.417 C 
ENDBRANCH  28  32
ENDBRANCH  20  22
ENDBRANCH  16  12
BRANCH  17   9
ATOM      9  O   UNL     1      -6.203   2.184  25.761  0.00  0.00    -0.442 OA
BRANCH   9  21
ATOM     11  O   UNL     1      -6.761   0.466  24.358  0.00  0.00    -0.226 OA
ATOM     13  N   UNL     1      -4.689   0.542  25.445  0.00  0.00    -0.251 N 
ATOM     21  C   UNL     1      -5.950   0.994  25.110  0.00  0.00    +0.405 C 
ATOM     37  H   UNL     1      -4.160   1.124  26.089  0.00  0.00    +0.158 HD
BRANCH  13  25
ATOM     25  C   UNL     1      -4.040  -0.633  25.002  0.00  0.00    +0.037 A 
ATOM     29  C   UNL     1      -2.701  -0.854  25.325  0.00  0.00    +0.035 A 
ATOM     30  C   UNL     1      -4.737  -1.571  24.242  0.00  0.00    +0.023 A 
ATOM     31  C   UNL     1      -2.060  -2.013  24.887  0.00  0.00    +0.057 A 
ATOM     33  C   UNL     1      -4.096  -2.730  23.803  0.00  0.00    +0.002 A 
ATOM     34  C   UNL     1      -2.757  -2.951  24.127  0.00  0.00    +0.012 A 
BRANCH  31  35
ATOM      4  F   UNL     1      -0.337  -3.557  25.498  0.00  0.00    -0.166 F 
ATOM      5  F   UNL     1       0.240  -1.887  24.239  0.00  0.00    -0.166 F 
ATOM      6  F   UNL     1      -0.231  -1.553  26.336  0.00  0.00    -0.166 F 
ATOM     35  C   UNL     1      -0.628  -2.249  25.231  0.00  0.00    +0.417 C 
ENDBRANCH  31  35
ENDBRANCH  13  25
ENDBRANCH   9  21
ENDBRANCH  17   9
TORSDOF 7
ENDMDL
MODEL 2
REMARK VINA RESULT:       2.4      2.665      4.974
REMARK  Name = 11883387
REMARK  7 active torsions:
REMARK  status: ('A' for Active; 'I' for Inactive)
REMARK    1  A    between atoms: O_9  and  C_17
REMARK    2  A    between atoms: O_9  and  C_21
REMARK    3  A    between atoms: N_12  and  C_16
REMARK    4  A    between atoms: N_13  and  C_25
REMARK    5  A    between atoms: C_20  and  C_22
REMARK    6  A    between atoms: C_28  and  C_32
REMARK    7  A    between atoms: C_31  and  C_35
REMARK                            x       y       z     vdW  Elec       q    Type
REMARK                         _______ _______ _______ _____ _____    ______ ____
ROOT
ATOM      7  O   UNL     1      -2.970  -0.572  25.410  0.00  0.00    -0.368 OA
ATOM      8  O   UNL     1      -3.466  -3.436  24.436  0.00  0.00    -0.368 OA
ATOM     14  C   UNL     1      -2.369  -2.526  24.210  0.00  0.00    +0.173 C 
ATOM     15  C   UNL     1      -2.967  -1.139  24.090  0.00  0.00    +0.192 C 
ATOM     16  C   UNL     1      -1.502  -2.441  25.444  0.00  0.00    +0.130 C 
ATOM     17  C   UNL     1      -4.367  -1.428  23.602  0.00  0.00    +0.235 C 
ATOM     18  C   UNL     1      -2.261  -1.445  26.303  0.00  0.00    +0.185 C 
ATOM     19  C   UNL     1      -4.700  -2.711  24.330  0.00  0.00    +0.207 C 
ENDROOT
BRANCH  16  12
ATOM     10  O   UNL     1      -0.756  -0.885  23.150  0.00  0.00    -0.270 OA
ATOM     12  N   UNL     1      -0.181  -1.958  25.124  0.00  0.00    -0.304 N 
ATOM     20  C   UNL     1       0.084  -1.209  23.986  0.00  0.00    +0.244 C 
ATOM     36  H   UNL     1       0.582  -2.277  25.712  0.00  0.00    +0.149 HD
BRANCH  20  22
ATOM     22  C   UNL     1       1.501  -0.809  23.785  0.00  0.00    +0.037 A 
ATOM     23  C   UNL     1       2.527  -1.705  24.083  0.00  0.00    +0.013 A 
ATOM     24  C   UNL     1       1.804   0.463  23.298  0.00  0.00    +0.013 A 
ATOM     26  C   UNL     1       3.857  -1.329  23.894  0.00  0.00    +0.013 A 
ATOM     27  C   UNL     1       3.134   0.839  23.111  0.00  0.00    +0.013 A 
ATOM     28  C   UNL     1       4.160  -0.058  23.409  0.00  0.00    +0.055 A 
BRANCH  28  32
ATOM      1  F   UNL     1       6.455  -0.295  24.042  0.00  0.00    -0.166 F 
ATOM      2  F   UNL     1       5.810   1.676  23.406  0.00  0.00    -0.166 F 
ATOM      3  F   UNL     1       6.027   0.082  21.943  0.00  0.00    -0.166 F 
ATOM     32  C   UNL     1       5.583   0.343  23.206  0.00  0.00    +0.417 C 
ENDBRANCH  28  32
ENDBRANCH  20  22
ENDBRANCH  16  12
BRANCH  17   9
ATOM      9  O   UNL     1      -5.287  -0.400  23.891  0.00  0.00    -0.442 OA
BRANCH   9  21
ATOM     11  O   UNL     1      -5.105   0.458  26.003  0.00  0.00    -0.226 OA
ATOM     13  N   UNL     1      -4.238   1.581  24.140  0.00  0.00    -0.251 N 
ATOM     21  C   UNL     1      -4.888   0.557  24.801  0.00  0.00    +0.405 C 
ATOM     37  H   UNL     1      -4.153   1.483  23.132  0.00  0.00    +0.158 HD
BRANCH  13  25
ATOM     25  C   UNL     1      -3.673   2.753  24.694  0.00  0.00    +0.037 A 
ATOM     29  C   UNL     1      -2.327   3.049  24.476  0.00  0.00    +0.035 A 
ATOM     30  C   UNL     1      -4.461   3.613  25.458  0.00  0.00    +0.023 A 
ATOM     31  C   UNL     1      -1.770   4.205  25.024  0.00  0.00    +0.057 A 
ATOM     33  C   UNL     1      -3.904   4.768  26.006  0.00  0.00    +0.002 A 
ATOM     34  C   UNL     1      -2.558   5.064  25.788  0.00  0.00    +0.012 A 
BRANCH  31  35
ATOM      4  F   UNL     1       0.517   3.865  25.639  0.00  0.00    -0.166 F 
ATOM      5  F   UNL     1       0.103   4.204  23.536  0.00  0.00    -0.166 F 
ATOM      6  F   UNL     1      -0.052   5.847  24.951  0.00  0.00    -0.166 F 
ATOM     35  C   UNL     1      -0.331   4.521  24.792  0.00  0.00    +0.417 C 
ENDBRANCH  31  35
ENDBRANCH  13  25
ENDBRANCH   9  21
ENDBRANCH  17   9
TORSDOF 7
ENDMDL
MODEL 3
REMARK VINA RESULT:       2.8      1.870      2.512
REMARK  Name = 11883387
REMARK  7 active torsions:
REMARK  status: ('A' for Active; 'I' for Inactive)
REMARK    1  A    between atoms: O_9  and  C_17
REMARK    2  A    between atoms: O_9  and  C_21
REMARK    3  A    between atoms: N_12  and  C_16
REMARK    4  A    between atoms: N_13  and  C_25
REMARK    5  A    between atoms: C_20  and  C_22
REMARK    6  A    between atoms: C_28  and  C_32
REMARK    7  A    between atoms: C_31  and  C_35
REMARK                            x       y       z     vdW  Elec       q    Type
REMARK                         _______ _______ _______ _____ _____    ______ ____
ROOT
ATOM      7  O   UNL     1      -2.506   2.658  23.992  0.00  0.00    -0.368 OA
ATOM      8  O   UNL     1      -1.944   5.441  25.150  0.00  0.00    -0.368 OA
ATOM     14  C   UNL     1      -1.131   4.250  25.086  0.00  0.00    +0.173 C 
ATOM     15  C   UNL     1      -2.061   3.072  25.294  0.00  0.00    +0.192 C 
ATOM     16  C   UNL     1      -0.607   4.054  23.682  0.00  0.00    +0.130 C 
ATOM     17  C   UNL     1      -3.182   3.680  26.102  0.00  0.00    +0.235 C 
ATOM     18  C   UNL     1      -1.783   3.389  22.989  0.00  0.00    +0.185 C 
ATOM     19  C   UNL     1      -3.282   5.069  25.514  0.00  0.00    +0.207 C 
ENDROOT
BRANCH  16  12
ATOM     10  O   UNL     1      -0.513   1.288  22.921  0.00  0.00    -0.270 OA
ATOM     12  N   UNL     1       0.557   3.203  23.672  0.00  0.00    -0.304 N 
ATOM     20  C   UNL     1       0.504   1.871  23.286  0.00  0.00    +0.244 C 
ATOM     36  H   UNL     1       1.412   3.587  24.062  0.00  0.00    +0.149 HD
BRANCH  20  22
ATOM     22  C   UNL     1       1.786   1.122  23.356  0.00  0.00    +0.037 A 
ATOM     23  C   UNL     1       1.778  -0.253  23.589  0.00  0.00    +0.013 A 
ATOM     24  C   UNL     1       2.997   1.794  23.188  0.00  0.00    +0.013 A 
ATOM     26  C   UNL     1       2.981  -0.956  23.655  0.00  0.00    +0.013 A 
ATOM     27  C   UNL     1       4.200   1.091  23.255  0.00  0.00    +0.013 A 
ATOM     28  C   UNL     1       4.191  -0.284  23.488  0.00  0.00    +0.055 A 
BRANCH  28  32
ATOM      1  F   UNL     1       6.145  -0.871  24.739  0.00  0.00    -0.166 F 
ATOM      2  F   UNL     1       6.373  -0.679  22.590  0.00  0.00    -0.166 F 
ATOM      3  F   UNL     1       5.306  -2.383  23.419  0.00  0.00    -0.166 F 
ATOM     32  C   UNL     1       5.477  -1.036  23.558  0.00  0.00    +0.417 C 
ENDBRANCH  28  32
ENDBRANCH  20  22
ENDBRANCH  16  12
BRANCH  17   9
ATOM      9  O   UNL     1      -4.397   2.972  25.999  0.00  0.00    -0.442 OA
BRANCH   9  21
ATOM     11  O   UNL     1      -5.275   1.101  25.022  0.00  0.00    -0.226 OA
ATOM     13  N   UNL     1      -3.060   1.169  25.775  0.00  0.00    -0.251 N 
ATOM     21  C   UNL     1      -4.325   1.672  25.545  0.00  0.00    +0.405 C 
ATOM     37  H   UNL     1      -2.401   1.801  26.223  0.00  0.00    +0.158 HD
BRANCH  13  25
ATOM     25  C   UNL     1      -2.565  -0.118  25.465  0.00  0.00    +0.037 A 
ATOM     29  C   UNL     1      -3.398  -1.057  24.857  0.00  0.00    +0.035 A 
ATOM     30  C   UNL     1      -1.245  -0.449  25.766  0.00  0.00    +0.023 A 
ATOM     31  C   UNL     1      -2.910  -2.328  24.552  0.00  0.00    +0.057 A 
ATOM     33  C   UNL     1      -0.756  -1.720  25.462  0.00  0.00    +0.002 A 
ATOM     34  C   UNL     1      -1.590  -2.659  24.854  0.00  0.00    +0.012 A 
BRANCH  31  35
ATOM      4  F   UNL     1      -4.857  -2.780  23.237  0.00  0.00    -0.166 F 
ATOM      5  F   UNL     1      -3.165  -4.113  22.980  0.00  0.00    -0.166 F 
ATOM      6  F   UNL     1      -4.351  -4.204  24.800  0.00  0.00    -0.166 F 
ATOM     35  C   UNL     1      -3.801  -3.333  23.905  0.00  0.00    +0.417 C 
ENDBRANCH  31  35
ENDBRANCH  13  25
ENDBRANCH   9  21
ENDBRANCH  17   9
TORSDOF 7
ENDMDL
