MODEL 1
REMARK VINA RESULT:      -4.7      0.000      0.000
REMARK  Name = 51137094
REMARK  4 active torsions:
REMARK  status: ('A' for Active; 'I' for Inactive)
REMARK    1  A    between atoms: N_2  and  C_10
REMARK    2  A    between atoms: C_5  and  C_9
REMARK    3  A    between atoms: C_10  and  C_11
REMARK    4  A    between atoms: C_18  and  C_23
REMARK                            x       y       z     vdW  Elec       q    Type
REMARK                         _______ _______ _______ _____ _____    ______ ____
ROOT
ATOM      2  N   UNL     1      -8.762  -9.986   9.499  0.00  0.00    -0.297 NA
ATOM      5  C   UNL     1      -9.259 -10.437  11.746  0.00  0.00    +0.070 C 
ATOM      6  C   UNL     1     -10.186  -9.326  11.227  0.00  0.00    +0.028 C 
ATOM      7  C   UNL     1      -8.131 -10.517  10.709  0.00  0.00    +0.096 C 
ATOM      8  C   UNL     1      -9.525  -8.822   9.952  0.00  0.00    +0.085 C 
ENDROOT
BRANCH   5   9
ATOM      3  N   UNL     1      -7.567 -10.781  13.569  0.00  0.00    -0.342 N 
ATOM      4  N   UNL     1      -9.336  -9.549  14.111  0.00  0.00    -0.232 NA
ATOM      9  C   UNL     1      -8.751 -10.235  13.155  0.00  0.00    +0.113 A 
ATOM     12  C   UNL     1      -7.378 -10.425  14.879  0.00  0.00    +0.066 A 
ATOM     13  C   UNL     1      -8.496  -9.657  15.195  0.00  0.00    +0.089 A 
ATOM     14  C   UNL     1      -6.356 -10.701  15.789  0.00  0.00    +0.031 A 
ATOM     15  C   UNL     1      -8.617  -9.125  16.489  0.00  0.00    +0.030 A 
ATOM     18  C   UNL     1      -6.493 -10.163  17.073  0.00  0.00    -0.048 A 
ATOM     19  C   UNL     1      -7.603  -9.389  17.418  0.00  0.00    +0.005 A 
ATOM     23  C   UNL     1      -5.432 -10.423  18.091  0.00  0.00    +0.044 C 
ATOM     24  H   UNL     1      -6.941 -11.348  13.011  0.00  0.00    +0.167 HD
ENDBRANCH   5   9
BRANCH   2  10
ATOM     10  C   UNL     1      -7.792  -9.647   8.469  0.00  0.00    +0.119 C 
BRANCH  10  11
ATOM      1 CL   UNL     1      -2.200  -9.333  10.665  0.00  0.00    -0.084 Cl
ATOM     11  C   UNL     1      -6.393  -9.568   9.020  0.00  0.00    -0.033 A 
ATOM     16  C   UNL     1      -5.506 -10.628   8.825  0.00  0.00    +0.006 A 
ATOM     17  C   UNL     1      -5.983  -8.437   9.724  0.00  0.00    +0.006 A 
ATOM     20  C   UNL     1      -4.210 -10.556   9.335  0.00  0.00    +0.020 A 
ATOM     21  C   UNL     1      -4.686  -8.364  10.235  0.00  0.00    +0.020 A 
ATOM     22  C   UNL     1      -3.800  -9.424  10.039  0.00  0.00    +0.041 A 
ENDBRANCH  10  11
ENDBRANCH   2  10
TORSDOF 3
ENDMDL
MODEL 2
REMARK VINA RESULT:      -4.1      2.300      3.347
REMARK  Name = 51137094
REMARK  4 active torsions:
REMARK  status: ('A' for Active; 'I' for Inactive)
REMARK    1  A    between atoms: N_2  and  C_10
REMARK    2  A    between atoms: C_5  and  C_9
REMARK    3  A    between atoms: C_10  and  C_11
REMARK    4  A    between atoms: C_18  and  C_23
REMARK                            x       y       z     vdW  Elec       q    Type
REMARK                         _______ _______ _______ _____ _____    ______ ____
ROOT
ATOM      2  N   UNL     1      -4.990  -9.953   9.772  0.00  0.00    -0.297 NA
ATOM      5  C   UNL     1      -7.069  -9.721  10.833  0.00  0.00    +0.070 C 
ATOM      6  C   UNL     1      -6.552  -8.337  10.405  0.00  0.00    +0.028 C 
ATOM      7  C   UNL     1      -5.840 -10.636  10.750  0.00  0.00    +0.096 C 
ATOM      8  C   UNL     1      -5.068  -8.537  10.131  0.00  0.00    +0.085 C 
ENDROOT
BRANCH   5   9
ATOM      3  N   UNL     1      -7.011  -9.893  13.337  0.00  0.00    -0.342 N 
ATOM      4  N   UNL     1      -9.027  -9.667  12.430  0.00  0.00    -0.232 NA
ATOM      9  C   UNL     1      -7.738  -9.757  12.187  0.00  0.00    +0.113 A 
ATOM     12  C   UNL     1      -7.888  -9.891  14.390  0.00  0.00    +0.066 A 
ATOM     13  C   UNL     1      -9.140  -9.751  13.798  0.00  0.00    +0.089 A 
ATOM     14  C   UNL     1      -7.701  -9.999  15.769  0.00  0.00    +0.031 A 
ATOM     15  C   UNL     1     -10.283  -9.712  14.615  0.00  0.00    +0.030 A 
ATOM     18  C   UNL     1      -8.849  -9.958  16.567  0.00  0.00    -0.048 A 
ATOM     19  C   UNL     1     -10.118  -9.818  16.002  0.00  0.00    +0.005 A 
ATOM     23  C   UNL     1      -8.713 -10.069  18.050  0.00  0.00    +0.044 C 
ATOM     24  H   UNL     1      -6.005  -9.979  13.403  0.00  0.00    +0.167 HD
ENDBRANCH   5   9
BRANCH   2  10
ATOM     10  C   UNL     1      -3.623 -10.453   9.779  0.00  0.00    +0.119 C 
BRANCH  10  11
ATOM      1 CL   UNL     1      -1.039  -9.835  15.176  0.00  0.00    -0.084 Cl
ATOM     11  C   UNL     1      -2.977 -10.299  11.130  0.00  0.00    -0.033 A 
ATOM     16  C   UNL     1      -1.733  -9.677  11.241  0.00  0.00    +0.006 A 
ATOM     17  C   UNL     1      -3.620 -10.778  12.271  0.00  0.00    +0.006 A 
ATOM     20  C   UNL     1      -1.133  -9.535  12.492  0.00  0.00    +0.020 A 
ATOM     21  C   UNL     1      -3.022 -10.636  13.522  0.00  0.00    +0.020 A 
ATOM     22  C   UNL     1      -1.777 -10.014  13.632  0.00  0.00    +0.041 A 
ENDBRANCH  10  11
ENDBRANCH   2  10
TORSDOF 3
ENDMDL
MODEL 3
REMARK VINA RESULT:      -2.3     16.189     18.232
REMARK  Name = 51137094
REMARK  4 active torsions:
REMARK  status: ('A' for Active; 'I' for Inactive)
REMARK    1  A    between atoms: N_2  and  C_10
REMARK    2  A    between atoms: C_5  and  C_9
REMARK    3  A    between atoms: C_10  and  C_11
REMARK    4  A    between atoms: C_18  and  C_23
REMARK                            x       y       z     vdW  Elec       q    Type
REMARK                         _______ _______ _______ _____ _____    ______ ____
ROOT
ATOM      2  N   UNL     1      -3.209  -0.541  24.611  0.00  0.00    -0.297 NA
ATOM      5  C   UNL     1      -1.118  -1.190  23.769  0.00  0.00    +0.070 C 
ATOM      6  C   UNL     1      -1.376  -1.899  25.108  0.00  0.00    +0.028 C 
ATOM      7  C   UNL     1      -2.148  -0.052  23.728  0.00  0.00    +0.096 C 
ATOM      8  C   UNL     1      -2.508  -1.116  25.759  0.00  0.00    +0.085 C 
ENDROOT
BRANCH   5   9
ATOM      3  N   UNL     1       1.370  -1.496  23.887  0.00  0.00    -0.342 N 
ATOM      4  N   UNL     1       0.673   0.457  23.089  0.00  0.00    -0.232 NA
ATOM      9  C   UNL     1       0.300  -0.708  23.568  0.00  0.00    +0.113 A 
ATOM     12  C   UNL     1       2.510  -0.792  23.596  0.00  0.00    +0.066 A 
ATOM     13  C   UNL     1       2.049   0.424  23.100  0.00  0.00    +0.089 A 
ATOM     14  C   UNL     1       3.864  -1.105  23.720  0.00  0.00    +0.031 A 
ATOM     15  C   UNL     1       2.980   1.398  22.699  0.00  0.00    +0.030 A 
ATOM     18  C   UNL     1       4.777  -0.124  23.316  0.00  0.00    -0.048 A 
ATOM     19  C   UNL     1       4.345   1.105  22.815  0.00  0.00    +0.005 A 
ATOM     23  C   UNL     1       6.241  -0.400  23.425  0.00  0.00    +0.044 C 
ATOM     24  H   UNL     1       1.332  -2.432  24.271  0.00  0.00    +0.167 HD
ENDBRANCH   5   9
BRANCH   2  10
ATOM     10  C   UNL     1      -4.138   0.510  24.998  0.00  0.00    +0.119 C 
BRANCH  10  11
ATOM      1 CL   UNL     1      -1.505   5.919  25.039  0.00  0.00    -0.084 Cl
ATOM     11  C   UNL     1      -3.480   1.864  25.009  0.00  0.00    -0.033 A 
ATOM     16  C   UNL     1      -2.234   2.030  25.614  0.00  0.00    +0.006 A 
ATOM     17  C   UNL     1      -4.115   2.954  24.413  0.00  0.00    +0.006 A 
ATOM     20  C   UNL     1      -1.624   3.283  25.625  0.00  0.00    +0.020 A 
ATOM     21  C   UNL     1      -3.505   4.208  24.423  0.00  0.00    +0.020 A 
ATOM     22  C   UNL     1      -2.259   4.373  25.030  0.00  0.00    +0.041 A 
ENDBRANCH  10  11
ENDBRANCH   2  10
TORSDOF 3
ENDMDL
MODEL 4
REMARK VINA RESULT:      -2.3     15.923     17.818
REMARK  Name = 51137094
REMARK  4 active torsions:
REMARK  status: ('A' for Active; 'I' for Inactive)
REMARK    1  A    between atoms: N_2  and  C_10
REMARK    2  A    between atoms: C_5  and  C_9
REMARK    3  A    between atoms: C_10  and  C_11
REMARK    4  A    between atoms: C_18  and  C_23
REMARK                            x       y       z     vdW  Elec       q    Type
REMARK                         _______ _______ _______ _____ _____    ______ ____
ROOT
ATOM      2  N   UNL     1       0.505  -0.700  23.677  0.00  0.00    -0.297 NA
ATOM      5  C   UNL     1      -1.256  -0.123  25.115  0.00  0.00    +0.070 C 
ATOM      6  C   UNL     1      -1.467  -1.554  24.591  0.00  0.00    +0.028 C 
ATOM      7  C   UNL     1      -0.200   0.481  24.179  0.00  0.00    +0.096 C 
ATOM      8  C   UNL     1      -0.549  -1.672  23.382  0.00  0.00    +0.085 C 
ENDROOT
BRANCH   5   9
ATOM      3  N   UNL     1      -2.457   2.078  25.220  0.00  0.00    -0.342 N 
ATOM      4  N   UNL     1      -3.747   0.270  25.269  0.00  0.00    -0.232 NA
ATOM      9  C   UNL     1      -2.512   0.712  25.203  0.00  0.00    +0.113 A 
ATOM     12  C   UNL     1      -3.742   2.547  25.304  0.00  0.00    +0.066 A 
ATOM     13  C   UNL     1      -4.529   1.400  25.334  0.00  0.00    +0.089 A 
ATOM     14  C   UNL     1      -4.269   3.839  25.356  0.00  0.00    +0.031 A 
ATOM     15  C   UNL     1      -5.926   1.529  25.419  0.00  0.00    +0.030 A 
ATOM     18  C   UNL     1      -5.661   3.949  25.440  0.00  0.00    -0.048 A 
ATOM     19  C   UNL     1      -6.476   2.816  25.472  0.00  0.00    +0.005 A 
ATOM     23  C   UNL     1      -6.284   5.306  25.498  0.00  0.00    +0.044 C 
ATOM     24  H   UNL     1      -1.619   2.645  25.180  0.00  0.00    +0.167 HD
ENDBRANCH   5   9
BRANCH   2  10
ATOM     10  C   UNL     1       1.328  -0.404  22.514  0.00  0.00    +0.119 C 
BRANCH  10  11
ATOM      1 CL   UNL     1       7.151   0.073  23.948  0.00  0.00    -0.084 Cl
ATOM     11  C   UNL     1       2.785  -0.284  22.874  0.00  0.00    -0.033 A 
ATOM     16  C   UNL     1       3.439  -1.345  23.502  0.00  0.00    +0.006 A 
ATOM     17  C   UNL     1       3.482   0.887  22.579  0.00  0.00    +0.006 A 
ATOM     20  C   UNL     1       4.788  -1.234  23.835  0.00  0.00    +0.020 A 
ATOM     21  C   UNL     1       4.832   0.999  22.911  0.00  0.00    +0.020 A 
ATOM     22  C   UNL     1       5.485  -0.063  23.540  0.00  0.00    +0.041 A 
ENDBRANCH  10  11
ENDBRANCH   2  10
TORSDOF 3
ENDMDL
MODEL 5
REMARK VINA RESULT:      -1.4     26.337     27.555
REMARK  Name = 51137094
REMARK  4 active torsions:
REMARK  status: ('A' for Active; 'I' for Inactive)
REMARK    1  A    between atoms: N_2  and  C_10
REMARK    2  A    between atoms: C_5  and  C_9
REMARK    3  A    between atoms: C_10  and  C_11
REMARK    4  A    between atoms: C_18  and  C_23
REMARK                            x       y       z     vdW  Elec       q    Type
REMARK                         _______ _______ _______ _____ _____    ______ ____
ROOT
ATOM      2  N   UNL     1      17.048  -6.512  26.212  0.00  0.00    -0.297 NA
ATOM      5  C   UNL     1      16.414  -8.510  27.264  0.00  0.00    +0.070 C 
ATOM      6  C   UNL     1      15.418  -8.182  26.138  0.00  0.00    +0.028 C 
ATOM      7  C   UNL     1      17.180  -7.201  27.497  0.00  0.00    +0.096 C 
ATOM      8  C   UNL     1      15.653  -6.712  25.818  0.00  0.00    +0.085 C 
ENDROOT
BRANCH   5   9
ATOM      3  N   UNL     1      14.432  -9.074  28.697  0.00  0.00    -0.342 N 
ATOM      4  N   UNL     1      16.420  -9.567  29.559  0.00  0.00    -0.232 NA
ATOM      9  C   UNL     1      15.788  -9.059  28.525  0.00  0.00    +0.113 A 
ATOM     12  C   UNL     1      14.173  -9.626  29.925  0.00  0.00    +0.066 A 
ATOM     13  C   UNL     1      15.430  -9.925  30.444  0.00  0.00    +0.089 A 
ATOM     14  C   UNL     1      12.982  -9.882  30.607  0.00  0.00    +0.031 A 
ATOM     15  C   UNL     1      15.523 -10.514  31.716  0.00  0.00    +0.030 A 
ATOM     18  C   UNL     1      13.094 -10.470  31.871  0.00  0.00    -0.048 A 
ATOM     19  C   UNL     1      14.341 -10.781  32.417  0.00  0.00    +0.005 A 
ATOM     23  C   UNL     1      11.854 -10.768  32.650  0.00  0.00    +0.044 C 
ATOM     24  H   UNL     1      13.741  -8.737  28.040  0.00  0.00    +0.167 HD
ENDBRANCH   5   9
BRANCH   2  10
ATOM     10  C   UNL     1      17.404  -5.104  26.298  0.00  0.00    +0.119 C 
BRANCH  10  11
ATOM      1 CL   UNL     1      14.999  -1.904  21.806  0.00  0.00    -0.084 Cl
ATOM     11  C   UNL     1      16.801  -4.304  25.173  0.00  0.00    -0.033 A 
ATOM     16  C   UNL     1      15.972  -3.218  25.456  0.00  0.00    +0.006 A 
ATOM     17  C   UNL     1      17.072  -4.647  23.849  0.00  0.00    +0.006 A 
ATOM     20  C   UNL     1      15.413  -2.477  24.415  0.00  0.00    +0.020 A 
ATOM     21  C   UNL     1      16.515  -3.906  22.807  0.00  0.00    +0.020 A 
ATOM     22  C   UNL     1      15.685  -2.820  23.091  0.00  0.00    +0.041 A 
ENDBRANCH  10  11
ENDBRANCH   2  10
TORSDOF 3
ENDMDL
