MODEL 1
REMARK VINA RESULT:      -5.8      0.000      0.000
REMARK  Name = 56775612
REMARK  8 active torsions:
REMARK  status: ('A' for Active; 'I' for Inactive)
REMARK    1  A    between atoms: O_2  and  C_17
REMARK    2  A    between atoms: O_4  and  C_21
REMARK    3  A    between atoms: N_5  and  C_7
REMARK    4  A    between atoms: N_5  and  C_8
REMARK    5  A    between atoms: C_7  and  C_16
REMARK    6  A    between atoms: C_11  and  C_17
REMARK    7  A    between atoms: C_16  and  C_18
REMARK    8  A    between atoms: C_20  and  C_21
REMARK                            x       y       z     vdW  Elec       q    Type
REMARK                         _______ _______ _______ _____ _____    ______ ____
ROOT
ATOM      1  O   UNL     1      -3.233  -3.264  24.871  0.00  0.00    -0.376 OA
ATOM      7  C   UNL     1      -2.604  -1.225  24.913  0.00  0.00    +0.072 C 
ATOM     14  C   UNL     1      -3.601  -2.108  25.657  0.00  0.00    +0.184 C 
ATOM     15  C   UNL     1      -2.203  -2.507  24.193  0.00  0.00    +0.184 C 
ENDROOT
BRANCH   7   5
ATOM      5  N   UNL     1      -3.339  -0.368  23.979  0.00  0.00    -0.304 NA
ATOM     22  H   UNL     1      -4.213  -0.760  23.629  0.00  0.00    +0.123 HD
BRANCH   5   8
ATOM      8  C   UNL     1      -3.584   0.930  24.607  0.00  0.00    +0.054 C 
ATOM      9  C   UNL     1      -5.024   0.990  25.126  0.00  0.00    +0.019 C 
ATOM     10  C   UNL     1      -3.307   2.067  23.618  0.00  0.00    +0.019 C 
ATOM     11  C   UNL     1      -5.061   3.498  24.760  0.00  0.00    +0.015 C 
ATOM     12  C   UNL     1      -5.338   2.353  25.743  0.00  0.00    +0.007 C 
ATOM     13  C   UNL     1      -3.621   3.430  24.235  0.00  0.00    +0.007 C 
BRANCH  11  17
ATOM     17  C   UNL     1      -5.332   4.850  25.417  0.00  0.00    +0.159 C 
BRANCH  17   2
ATOM      2  O   UNL     1      -6.652   4.843  25.928  0.00  0.00    -0.395 OA
ATOM     23  H   UNL     1      -6.813   5.719  26.319  0.00  0.00    +0.209 HD
ENDBRANCH  17   2
ENDBRANCH  11  17
ENDBRANCH   5   8
ENDBRANCH   7   5
BRANCH   7  16
ATOM     16  C   UNL     1      -1.568  -0.479  25.697  0.00  0.00    +0.085 C 
BRANCH  16  18
ATOM      3  O   UNL     1       0.919   1.412  23.881  0.00  0.00    -0.357 OA
ATOM      6  N   UNL     1      -0.107   1.304  24.812  0.00  0.00    -0.083 NA
ATOM     18  C   UNL     1      -0.460   0.015  24.790  0.00  0.00    +0.086 A 
ATOM     19  C   UNL     1       0.301  -0.730  23.873  0.00  0.00    +0.073 A 
ATOM     20  C   UNL     1       1.153   0.194  23.328  0.00  0.00    +0.163 A 
BRANCH  20  21
ATOM     21  C   UNL     1       2.213   0.127  22.317  0.00  0.00    +0.232 C 
BRANCH  21   4
ATOM      4  O   UNL     1       3.329   0.930  22.713  0.00  0.00    -0.387 OA
ATOM     24  H   UNL     1       3.514   1.538  21.978  0.00  0.00    +0.210 HD
ENDBRANCH  21   4
ENDBRANCH  20  21
ENDBRANCH  16  18
ENDBRANCH   7  16
TORSDOF 8
ENDMDL
MODEL 2
REMARK VINA RESULT:      -5.6      1.573      4.147
REMARK  Name = 56775612
REMARK  8 active torsions:
REMARK  status: ('A' for Active; 'I' for Inactive)
REMARK    1  A    between atoms: O_2  and  C_17
REMARK    2  A    between atoms: O_4  and  C_21
REMARK    3  A    between atoms: N_5  and  C_7
REMARK    4  A    between atoms: N_5  and  C_8
REMARK    5  A    between atoms: C_7  and  C_16
REMARK    6  A    between atoms: C_11  and  C_17
REMARK    7  A    between atoms: C_16  and  C_18
REMARK    8  A    between atoms: C_20  and  C_21
REMARK                            x       y       z     vdW  Elec       q    Type
REMARK                         _______ _______ _______ _____ _____    ______ ____
ROOT
ATOM      1  O   UNL     1       1.665   0.764  22.930  0.00  0.00    -0.376 OA
ATOM      7  C   UNL     1       0.022   1.287  24.189  0.00  0.00    +0.072 C 
ATOM     14  C   UNL     1       0.284   0.346  23.017  0.00  0.00    +0.184 C 
ATOM     15  C   UNL     1       1.510   1.605  24.097  0.00  0.00    +0.184 C 
ENDROOT
BRANCH   7   5
ATOM      5  N   UNL     1      -0.740   2.441  23.706  0.00  0.00    -0.304 NA
ATOM     22  H   UNL     1      -0.920   2.450  22.702  0.00  0.00    +0.123 HD
BRANCH   5   8
ATOM      8  C   UNL     1      -1.997   2.533  24.446  0.00  0.00    +0.054 C 
ATOM      9  C   UNL     1      -3.178   2.377  23.481  0.00  0.00    +0.019 C 
ATOM     10  C   UNL     1      -2.079   3.860  25.207  0.00  0.00    +0.019 C 
ATOM     11  C   UNL     1      -4.603   3.847  24.976  0.00  0.00    +0.015 C 
ATOM     12  C   UNL     1      -4.515   2.521  24.209  0.00  0.00    +0.007 C 
ATOM     13  C   UNL     1      -3.415   4.004  25.934  0.00  0.00    +0.007 C 
BRANCH  11  17
ATOM     17  C   UNL     1      -5.925   3.943  25.736  0.00  0.00    +0.159 C 
BRANCH  17   2
ATOM      2  O   UNL     1      -6.139   2.721  26.418  0.00  0.00    -0.395 OA
ATOM     23  H   UNL     1      -6.469   2.943  27.306  0.00  0.00    +0.209 HD
ENDBRANCH  17   2
ENDBRANCH  11  17
ENDBRANCH   5   8
ENDBRANCH   7   5
BRANCH   7  16
ATOM     16  C   UNL     1      -0.522   0.723  25.466  0.00  0.00    +0.085 C 
BRANCH  16  18
ATOM      3  O   UNL     1      -1.434  -2.748  25.039  0.00  0.00    -0.357 OA
ATOM      6  N   UNL     1      -0.517  -1.742  25.321  0.00  0.00    -0.083 NA
ATOM     18  C   UNL     1      -1.210  -0.604  25.218  0.00  0.00    +0.086 A 
ATOM     19  C   UNL     1      -2.555  -0.828  24.877  0.00  0.00    +0.073 A 
ATOM     20  C   UNL     1      -2.644  -2.191  24.775  0.00  0.00    +0.163 A 
BRANCH  20  21
ATOM     21  C   UNL     1      -3.735  -3.117  24.455  0.00  0.00    +0.232 C 
BRANCH  21   4
ATOM      4  O   UNL     1      -4.712  -2.470  23.635  0.00  0.00    -0.387 OA
ATOM     24  H   UNL     1      -4.228  -1.889  23.025  0.00  0.00    +0.210 HD
ENDBRANCH  21   4
ENDBRANCH  20  21
ENDBRANCH  16  18
ENDBRANCH   7  16
TORSDOF 8
ENDMDL
MODEL 3
REMARK VINA RESULT:      -4.6      1.829      5.910
REMARK  Name = 56775612
REMARK  8 active torsions:
REMARK  status: ('A' for Active; 'I' for Inactive)
REMARK    1  A    between atoms: O_2  and  C_17
REMARK    2  A    between atoms: O_4  and  C_21
REMARK    3  A    between atoms: N_5  and  C_7
REMARK    4  A    between atoms: N_5  and  C_8
REMARK    5  A    between atoms: C_7  and  C_16
REMARK    6  A    between atoms: C_11  and  C_17
REMARK    7  A    between atoms: C_16  and  C_18
REMARK    8  A    between atoms: C_20  and  C_21
REMARK                            x       y       z     vdW  Elec       q    Type
REMARK                         _______ _______ _______ _____ _____    ______ ____
ROOT
ATOM      1  O   UNL     1       1.047   0.883  23.088  0.00  0.00    -0.376 OA
ATOM      7  C   UNL     1      -0.271   2.006  24.336  0.00  0.00    +0.072 C 
ATOM     14  C   UNL     1       1.217   1.678  24.284  0.00  0.00    +0.184 C 
ATOM     15  C   UNL     1      -0.354   1.233  23.024  0.00  0.00    +0.184 C 
ENDROOT
BRANCH   7   5
ATOM      5  N   UNL     1      -0.893   1.208  25.395  0.00  0.00    -0.304 NA
ATOM     22  H   UNL     1      -1.491   1.731  26.036  0.00  0.00    +0.123 HD
BRANCH   5   8
ATOM      8  C   UNL     1      -1.642   0.107  24.793  0.00  0.00    +0.054 C 
ATOM      9  C   UNL     1      -3.094   0.138  25.283  0.00  0.00    +0.019 C 
ATOM     10  C   UNL     1      -0.980  -1.236  25.118  0.00  0.00    +0.019 C 
ATOM     11  C   UNL     1      -3.240  -2.381  25.036  0.00  0.00    +0.015 C 
ATOM     12  C   UNL     1      -3.899  -1.032  24.717  0.00  0.00    +0.007 C 
ATOM     13  C   UNL     1      -1.784  -2.406  24.552  0.00  0.00    +0.007 C 
BRANCH  11  17
ATOM     17  C   UNL     1      -4.035  -3.528  24.415  0.00  0.00    +0.159 C 
BRANCH  17   2
ATOM      2  O   UNL     1      -4.793  -3.016  23.335  0.00  0.00    -0.395 OA
ATOM     23  H   UNL     1      -5.198  -2.185  23.638  0.00  0.00    +0.209 HD
ENDBRANCH  17   2
ENDBRANCH  11  17
ENDBRANCH   5   8
ENDBRANCH   7   5
BRANCH   7  16
ATOM     16  C   UNL     1      -0.699   3.442  24.360  0.00  0.00    +0.085 C 
BRANCH  16  18
ATOM      3  O   UNL     1      -3.543   3.944  26.531  0.00  0.00    -0.357 OA
ATOM      6  N   UNL     1      -2.176   3.889  26.287  0.00  0.00    -0.083 NA
ATOM     18  C   UNL     1      -2.069   3.585  24.990  0.00  0.00    +0.086 A 
ATOM     19  C   UNL     1      -3.322   3.437  24.372  0.00  0.00    +0.073 A 
ATOM     20  C   UNL     1      -4.216   3.673  25.383  0.00  0.00    +0.163 A 
BRANCH  20  21
ATOM     21  C   UNL     1      -5.680   3.689  25.463  0.00  0.00    +0.232 C 
BRANCH  21   4
ATOM      4  O   UNL     1      -6.134   2.760  26.452  0.00  0.00    -0.387 OA
ATOM     24  H   UNL     1      -5.342   2.362  26.851  0.00  0.00    +0.210 HD
ENDBRANCH  21   4
ENDBRANCH  20  21
ENDBRANCH  16  18
ENDBRANCH   7  16
TORSDOF 8
ENDMDL
MODEL 4
REMARK VINA RESULT:      -4.6      2.106      4.298
REMARK  Name = 56775612
REMARK  8 active torsions:
REMARK  status: ('A' for Active; 'I' for Inactive)
REMARK    1  A    between atoms: O_2  and  C_17
REMARK    2  A    between atoms: O_4  and  C_21
REMARK    3  A    between atoms: N_5  and  C_7
REMARK    4  A    between atoms: N_5  and  C_8
REMARK    5  A    between atoms: C_7  and  C_16
REMARK    6  A    between atoms: C_11  and  C_17
REMARK    7  A    between atoms: C_16  and  C_18
REMARK    8  A    between atoms: C_20  and  C_21
REMARK                            x       y       z     vdW  Elec       q    Type
REMARK                         _______ _______ _______ _____ _____    ______ ____
ROOT
ATOM      1  O   UNL     1      -0.462   5.487  24.479  0.00  0.00    -0.376 OA
ATOM      7  C   UNL     1      -0.661   3.371  24.667  0.00  0.00    +0.072 C 
ATOM     14  C   UNL     1       0.170   4.352  23.846  0.00  0.00    +0.184 C 
ATOM     15  C   UNL     1      -1.211   4.615  25.355  0.00  0.00    +0.184 C 
ENDROOT
BRANCH   7   5
ATOM      5  N   UNL     1      -1.704   2.803  23.809  0.00  0.00    -0.304 NA
ATOM     22  H   UNL     1      -1.411   2.010  23.239  0.00  0.00    +0.123 HD
BRANCH   5   8
ATOM      8  C   UNL     1      -2.856   2.436  24.631  0.00  0.00    +0.054 C 
ATOM      9  C   UNL     1      -3.567   1.226  24.016  0.00  0.00    +0.019 C 
ATOM     10  C   UNL     1      -3.816   3.622  24.776  0.00  0.00    +0.019 C 
ATOM     11  C   UNL     1      -5.775   2.025  24.969  0.00  0.00    +0.015 C 
ATOM     12  C   UNL     1      -4.810   0.841  24.817  0.00  0.00    +0.007 C 
ATOM     13  C   UNL     1      -5.059   3.238  25.577  0.00  0.00    +0.007 C 
BRANCH  11  17
ATOM     17  C   UNL     1      -6.983   1.631  25.817  0.00  0.00    +0.159 C 
BRANCH  17   2
ATOM      2  O   UNL     1      -6.694   1.923  27.171  0.00  0.00    -0.395 OA
ATOM     23  H   UNL     1      -7.157   2.749  27.392  0.00  0.00    +0.209 HD
ENDBRANCH  17   2
ENDBRANCH  11  17
ENDBRANCH   5   8
ENDBRANCH   7   5
BRANCH   7  16
ATOM     16  C   UNL     1       0.042   2.336  25.492  0.00  0.00    +0.085 C 
BRANCH  16  18
ATOM      3  O   UNL     1      -0.192  -0.714  23.569  0.00  0.00    -0.357 OA
ATOM      6  N   UNL     1       0.220   0.601  23.744  0.00  0.00    -0.083 NA
ATOM     18  C   UNL     1      -0.228   0.945  24.955  0.00  0.00    +0.086 A 
ATOM     19  C   UNL     1      -0.923  -0.102  25.584  0.00  0.00    +0.073 A 
ATOM     20  C   UNL     1      -0.871  -1.122  24.671  0.00  0.00    +0.163 A 
BRANCH  20  21
ATOM     21  C   UNL     1      -1.381  -2.498  24.654  0.00  0.00    +0.232 C 
BRANCH  21   4
ATOM      4  O   UNL     1      -2.811  -2.498  24.628  0.00  0.00    -0.387 OA
ATOM     24  H   UNL     1      -3.110  -2.471  25.552  0.00  0.00    +0.210 HD
ENDBRANCH  21   4
ENDBRANCH  20  21
ENDBRANCH  16  18
ENDBRANCH   7  16
TORSDOF 8
ENDMDL
MODEL 5
REMARK VINA RESULT:      -4.6      2.127      4.633
REMARK  Name = 56775612
REMARK  8 active torsions:
REMARK  status: ('A' for Active; 'I' for Inactive)
REMARK    1  A    between atoms: O_2  and  C_17
REMARK    2  A    between atoms: O_4  and  C_21
REMARK    3  A    between atoms: N_5  and  C_7
REMARK    4  A    between atoms: N_5  and  C_8
REMARK    5  A    between atoms: C_7  and  C_16
REMARK    6  A    between atoms: C_11  and  C_17
REMARK    7  A    between atoms: C_16  and  C_18
REMARK    8  A    between atoms: C_20  and  C_21
REMARK                            x       y       z     vdW  Elec       q    Type
REMARK                         _______ _______ _______ _____ _____    ______ ____
ROOT
ATOM      1  O   UNL     1      -1.328   5.649  24.875  0.00  0.00    -0.376 OA
ATOM      7  C   UNL     1      -1.774   3.590  25.214  0.00  0.00    +0.072 C 
ATOM     14  C   UNL     1      -0.902   4.408  24.267  0.00  0.00    +0.184 C 
ATOM     15  C   UNL     1      -2.100   4.930  25.864  0.00  0.00    +0.184 C 
ENDROOT
BRANCH   7   5
ATOM      5  N   UNL     1      -2.953   3.119  24.483  0.00  0.00    -0.304 NA
ATOM     22  H   UNL     1      -3.030   3.458  23.524  0.00  0.00    +0.123 HD
BRANCH   5   8
ATOM      8  C   UNL     1      -2.983   1.658  24.506  0.00  0.00    +0.054 C 
ATOM      9  C   UNL     1      -3.088   1.119  23.076  0.00  0.00    +0.019 C 
ATOM     10  C   UNL     1      -4.145   1.157  25.370  0.00  0.00    +0.019 C 
ATOM     11  C   UNL     1      -4.337  -0.917  23.925  0.00  0.00    +0.015 C 
ATOM     12  C   UNL     1      -3.177  -0.407  23.060  0.00  0.00    +0.007 C 
ATOM     13  C   UNL     1      -4.234  -0.369  25.354  0.00  0.00    +0.007 C 
BRANCH  11  17
ATOM     17  C   UNL     1      -4.372  -2.444  23.934  0.00  0.00    +0.159 C 
BRANCH  17   2
ATOM      2  O   UNL     1      -3.544  -2.904  24.986  0.00  0.00    -0.395 OA
ATOM     23  H   UNL     1      -4.024  -2.751  25.817  0.00  0.00    +0.209 HD
ENDBRANCH  17   2
ENDBRANCH  11  17
ENDBRANCH   5   8
ENDBRANCH   7   5
BRANCH   7  16
ATOM     16  C   UNL     1      -1.136   2.517  26.044  0.00  0.00    +0.085 C 
BRANCH  16  18
ATOM      3  O   UNL     1       0.151  -0.419  24.377  0.00  0.00    -0.357 OA
ATOM      6  N   UNL     1      -0.650   0.206  25.325  0.00  0.00    -0.083 NA
ATOM     18  C   UNL     1      -0.420   1.512  25.166  0.00  0.00    +0.086 A 
ATOM     19  C   UNL     1       0.509   1.769  24.142  0.00  0.00    +0.073 A 
ATOM     20  C   UNL     1       0.837   0.522  23.679  0.00  0.00    +0.163 A 
BRANCH  20  21
ATOM     21  C   UNL     1       1.738   0.032  22.630  0.00  0.00    +0.232 C 
BRANCH  21   4
ATOM      4  O   UNL     1       2.994   0.714  22.695  0.00  0.00    -0.387 OA
ATOM     24  H   UNL     1       3.438   0.569  21.843  0.00  0.00    +0.210 HD
ENDBRANCH  21   4
ENDBRANCH  20  21
ENDBRANCH  16  18
ENDBRANCH   7  16
TORSDOF 8
ENDMDL
MODEL 6
REMARK VINA RESULT:      -4.1      1.849      4.948
REMARK  Name = 56775612
REMARK  8 active torsions:
REMARK  status: ('A' for Active; 'I' for Inactive)
REMARK    1  A    between atoms: O_2  and  C_17
REMARK    2  A    between atoms: O_4  and  C_21
REMARK    3  A    between atoms: N_5  and  C_7
REMARK    4  A    between atoms: N_5  and  C_8
REMARK    5  A    between atoms: C_7  and  C_16
REMARK    6  A    between atoms: C_11  and  C_17
REMARK    7  A    between atoms: C_16  and  C_18
REMARK    8  A    between atoms: C_20  and  C_21
REMARK                            x       y       z     vdW  Elec       q    Type
REMARK                         _______ _______ _______ _____ _____    ______ ____
ROOT
ATOM      1  O   UNL     1      -6.234   4.287  25.774  0.00  0.00    -0.376 OA
ATOM      7  C   UNL     1      -4.221   3.643  25.472  0.00  0.00    +0.072 C 
ATOM     14  C   UNL     1      -5.056   4.888  25.189  0.00  0.00    +0.184 C 
ATOM     15  C   UNL     1      -5.477   3.116  26.156  0.00  0.00    +0.184 C 
ENDROOT
BRANCH   7   5
ATOM      5  N   UNL     1      -4.024   2.913  24.218  0.00  0.00    -0.304 NA
ATOM     22  H   UNL     1      -3.381   3.352  23.559  0.00  0.00    +0.123 HD
BRANCH   5   8
ATOM      8  C   UNL     1      -3.587   1.550  24.517  0.00  0.00    +0.054 C 
ATOM      9  C   UNL     1      -3.132   0.857  23.228  0.00  0.00    +0.019 C 
ATOM     10  C   UNL     1      -4.711   0.762  25.198  0.00  0.00    +0.019 C 
ATOM     11  C   UNL     1      -3.836  -1.386  24.175  0.00  0.00    +0.015 C 
ATOM     12  C   UNL     1      -2.717  -0.591  23.490  0.00  0.00    +0.007 C 
ATOM     13  C   UNL     1      -4.296  -0.686  25.460  0.00  0.00    +0.007 C 
BRANCH  11  17
ATOM     17  C   UNL     1      -3.379  -2.813  24.472  0.00  0.00    +0.159 C 
BRANCH  17   2
ATOM      2  O   UNL     1      -1.966  -2.855  24.396  0.00  0.00    -0.395 OA
ATOM     23  H   UNL     1      -1.674  -2.010  24.015  0.00  0.00    +0.209 HD
ENDBRANCH  17   2
ENDBRANCH  11  17
ENDBRANCH   5   8
ENDBRANCH   7   5
BRANCH   7  16
ATOM     16  C   UNL     1      -2.962   3.779  26.272  0.00  0.00    +0.085 C 
BRANCH  16  18
ATOM      3  O   UNL     1      -0.218   3.565  23.930  0.00  0.00    -0.357 OA
ATOM      6  N   UNL     1      -1.321   4.210  24.478  0.00  0.00    -0.083 NA
ATOM     18  C   UNL     1      -1.754   3.393  25.443  0.00  0.00    +0.086 A 
ATOM     19  C   UNL     1      -0.972   2.230  25.549  0.00  0.00    +0.073 A 
ATOM     20  C   UNL     1      -0.020   2.387  24.576  0.00  0.00    +0.163 A 
BRANCH  20  21
ATOM     21  C   UNL     1       1.111   1.573  24.119  0.00  0.00    +0.232 C 
BRANCH  21   4
ATOM      4  O   UNL     1       0.663   0.272  23.731  0.00  0.00    -0.387 OA
ATOM     24  H   UNL     1       1.455  -0.282  23.632  0.00  0.00    +0.210 HD
ENDBRANCH  21   4
ENDBRANCH  20  21
ENDBRANCH  16  18
ENDBRANCH   7  16
TORSDOF 8
ENDMDL
MODEL 7
REMARK VINA RESULT:      -4.0      2.148      6.270
REMARK  Name = 56775612
REMARK  8 active torsions:
REMARK  status: ('A' for Active; 'I' for Inactive)
REMARK    1  A    between atoms: O_2  and  C_17
REMARK    2  A    between atoms: O_4  and  C_21
REMARK    3  A    between atoms: N_5  and  C_7
REMARK    4  A    between atoms: N_5  and  C_8
REMARK    5  A    between atoms: C_7  and  C_16
REMARK    6  A    between atoms: C_11  and  C_17
REMARK    7  A    between atoms: C_16  and  C_18
REMARK    8  A    between atoms: C_20  and  C_21
REMARK                            x       y       z     vdW  Elec       q    Type
REMARK                         _______ _______ _______ _____ _____    ______ ____
ROOT
ATOM      1  O   UNL     1       0.750   2.679  26.387  0.00  0.00    -0.376 OA
ATOM      7  C   UNL     1      -0.936   3.162  25.171  0.00  0.00    +0.072 C 
ATOM     14  C   UNL     1      -0.660   2.367  26.443  0.00  0.00    +0.184 C 
ATOM     15  C   UNL     1       0.543   3.526  25.233  0.00  0.00    +0.184 C 
ENDROOT
BRANCH   7   5
ATOM      5  N   UNL     1      -1.147   2.224  24.065  0.00  0.00    -0.304 NA
ATOM     22  H   UNL     1      -0.309   1.985  23.535  0.00  0.00    +0.123 HD
BRANCH   5   8
ATOM      8  C   UNL     1      -1.783   1.011  24.577  0.00  0.00    +0.054 C 
ATOM      9  C   UNL     1      -0.754  -0.123  24.647  0.00  0.00    +0.019 C 
ATOM     10  C   UNL     1      -2.976   0.617  23.700  0.00  0.00    +0.019 C 
ATOM     11  C   UNL     1      -2.591  -1.825  24.256  0.00  0.00    +0.015 C 
ATOM     12  C   UNL     1      -1.393  -1.426  25.128  0.00  0.00    +0.007 C 
ATOM     13  C   UNL     1      -3.615  -0.686  24.179  0.00  0.00    +0.007 C 
BRANCH  11  17
ATOM     17  C   UNL     1      -3.242  -3.101  24.787  0.00  0.00    +0.159 C 
BRANCH  17   2
ATOM      2  O   UNL     1      -4.336  -3.427  23.949  0.00  0.00    -0.395 OA
ATOM     23  H   UNL     1      -3.988  -3.974  23.224  0.00  0.00    +0.209 HD
ENDBRANCH  17   2
ENDBRANCH  11  17
ENDBRANCH   5   8
ENDBRANCH   7   5
BRANCH   7  16
ATOM     16  C   UNL     1      -1.956   4.259  25.207  0.00  0.00    +0.085 C 
BRANCH  16  18
ATOM      3  O   UNL     1      -5.172   3.138  23.999  0.00  0.00    -0.357 OA
ATOM      6  N   UNL     1      -3.920   3.713  23.814  0.00  0.00    -0.083 NA
ATOM     18  C   UNL     1      -3.353   3.702  25.024  0.00  0.00    +0.086 A 
ATOM     19  C   UNL     1      -4.191   3.139  26.001  0.00  0.00    +0.073 A 
ATOM     20  C   UNL     1      -5.322   2.801  25.306  0.00  0.00    +0.163 A 
BRANCH  20  21
ATOM     21  C   UNL     1      -6.596   2.177  25.679  0.00  0.00    +0.232 C 
BRANCH  21   4
ATOM      4  O   UNL     1      -6.646   1.954  27.091  0.00  0.00    -0.387 OA
ATOM     24  H   UNL     1      -6.832   1.009  27.221  0.00  0.00    +0.210 HD
ENDBRANCH  21   4
ENDBRANCH  20  21
ENDBRANCH  16  18
ENDBRANCH   7  16
TORSDOF 8
ENDMDL
MODEL 8
REMARK VINA RESULT:      -4.0      2.225      6.489
REMARK  Name = 56775612
REMARK  8 active torsions:
REMARK  status: ('A' for Active; 'I' for Inactive)
REMARK    1  A    between atoms: O_2  and  C_17
REMARK    2  A    between atoms: O_4  and  C_21
REMARK    3  A    between atoms: N_5  and  C_7
REMARK    4  A    between atoms: N_5  and  C_8
REMARK    5  A    between atoms: C_7  and  C_16
REMARK    6  A    between atoms: C_11  and  C_17
REMARK    7  A    between atoms: C_16  and  C_18
REMARK    8  A    between atoms: C_20  and  C_21
REMARK                            x       y       z     vdW  Elec       q    Type
REMARK                         _______ _______ _______ _____ _____    ______ ____
ROOT
ATOM      1  O   UNL     1      -0.334   5.145  24.995  0.00  0.00    -0.376 OA
ATOM      7  C   UNL     1      -1.039   3.273  24.252  0.00  0.00    +0.072 C 
ATOM     14  C   UNL     1      -1.341   4.200  25.424  0.00  0.00    +0.184 C 
ATOM     15  C   UNL     1      -0.065   4.360  23.811  0.00  0.00    +0.184 C 
ENDROOT
BRANCH   7   5
ATOM      5  N   UNL     1      -0.274   2.124  24.744  0.00  0.00    -0.304 NA
ATOM     22  H   UNL     1      -0.001   2.175  25.726  0.00  0.00    +0.123 HD
BRANCH   5   8
ATOM      8  C   UNL     1      -1.031   0.898  24.494  0.00  0.00    +0.054 C 
ATOM      9  C   UNL     1      -1.557   0.335  25.819  0.00  0.00    +0.019 C 
ATOM     10  C   UNL     1      -0.162  -0.132  23.765  0.00  0.00    +0.019 C 
ATOM     11  C   UNL     1      -1.447  -2.014  24.874  0.00  0.00    +0.015 C 
ATOM     12  C   UNL     1      -2.310  -0.978  25.606  0.00  0.00    +0.007 C 
ATOM     13  C   UNL     1      -0.914  -1.445  23.552  0.00  0.00    +0.007 C 
BRANCH  11  17
ATOM     17  C   UNL     1      -2.239  -3.297  24.628  0.00  0.00    +0.159 C 
BRANCH  17   2
ATOM      2  O   UNL     1      -3.561  -2.945  24.265  0.00  0.00    -0.395 OA
ATOM     23  H   UNL     1      -3.498  -2.320  23.523  0.00  0.00    +0.209 HD
ENDBRANCH  17   2
ENDBRANCH  11  17
ENDBRANCH   5   8
ENDBRANCH   7   5
BRANCH   7  16
ATOM     16  C   UNL     1      -2.152   2.880  23.330  0.00  0.00    +0.085 C 
BRANCH  16  18
ATOM      3  O   UNL     1      -5.194   3.718  25.093  0.00  0.00    -0.357 OA
ATOM      6  N   UNL     1      -3.990   4.056  24.486  0.00  0.00    -0.083 NA
ATOM     18  C   UNL     1      -3.482   2.897  24.056  0.00  0.00    +0.086 A 
ATOM     19  C   UNL     1      -4.314   1.806  24.360  0.00  0.00    +0.073 A 
ATOM     20  C   UNL     1      -5.375   2.375  25.011  0.00  0.00    +0.163 A 
BRANCH  20  21
ATOM     21  C   UNL     1      -6.606   1.844  25.607  0.00  0.00    +0.232 C 
BRANCH  21   4
ATOM      4  O   UNL     1      -6.590   2.025  27.026  0.00  0.00    -0.387 OA
ATOM     24  H   UNL     1      -5.666   2.189  27.279  0.00  0.00    +0.210 HD
ENDBRANCH  21   4
ENDBRANCH  20  21
ENDBRANCH  16  18
ENDBRANCH   7  16
TORSDOF 8
ENDMDL
MODEL 9
REMARK VINA RESULT:      -4.0     14.829     18.266
REMARK  Name = 56775612
REMARK  8 active torsions:
REMARK  status: ('A' for Active; 'I' for Inactive)
REMARK    1  A    between atoms: O_2  and  C_17
REMARK    2  A    between atoms: O_4  and  C_21
REMARK    3  A    between atoms: N_5  and  C_7
REMARK    4  A    between atoms: N_5  and  C_8
REMARK    5  A    between atoms: C_7  and  C_16
REMARK    6  A    between atoms: C_11  and  C_17
REMARK    7  A    between atoms: C_16  and  C_18
REMARK    8  A    between atoms: C_20  and  C_21
REMARK                            x       y       z     vdW  Elec       q    Type
REMARK                         _______ _______ _______ _____ _____    ______ ____
ROOT
ATOM      1  O   UNL     1      17.200   6.222  19.477  0.00  0.00    -0.376 OA
ATOM      7  C   UNL     1      15.873   7.826  19.948  0.00  0.00    +0.072 C 
ATOM     14  C   UNL     1      17.368   7.541  20.045  0.00  0.00    +0.184 C 
ATOM     15  C   UNL     1      15.790   6.464  19.269  0.00  0.00    +0.184 C 
ENDROOT
BRANCH   7   5
ATOM      5  N   UNL     1      15.285   7.724  21.286  0.00  0.00    -0.304 NA
ATOM     22  H   UNL     1      15.687   8.350  21.984  0.00  0.00    +0.123 HD
BRANCH   5   8
ATOM      8  C   UNL     1      13.841   7.930  21.195  0.00  0.00    +0.054 C 
ATOM      9  C   UNL     1      13.385   8.893  22.296  0.00  0.00    +0.019 C 
ATOM     10  C   UNL     1      13.099   6.592  21.292  0.00  0.00    +0.019 C 
ATOM     11  C   UNL     1      11.119   7.758  22.363  0.00  0.00    +0.015 C 
ATOM     12  C   UNL     1      11.869   9.094  22.269  0.00  0.00    +0.007 C 
ATOM     13  C   UNL     1      11.584   6.792  21.265  0.00  0.00    +0.007 C 
BRANCH  11  17
ATOM     17  C   UNL     1       9.610   7.981  22.281  0.00  0.00    +0.159 C 
BRANCH  17   2
ATOM      2  O   UNL     1       8.968   6.720  22.317  0.00  0.00    -0.395 OA
ATOM     23  H   UNL     1       9.407   6.156  21.657  0.00  0.00    +0.209 HD
ENDBRANCH  17   2
ENDBRANCH  11  17
ENDBRANCH   5   8
ENDBRANCH   7   5
BRANCH   7  16
ATOM     16  C   UNL     1      15.412   9.040  19.200  0.00  0.00    +0.085 C 
BRANCH  16  18
ATOM      3  O   UNL     1      13.093   7.882  16.682  0.00  0.00    -0.357 OA
ATOM      6  N   UNL     1      14.369   7.995  17.221  0.00  0.00    -0.083 NA
ATOM     18  C   UNL     1      14.211   8.715  18.336  0.00  0.00    +0.086 A 
ATOM     19  C   UNL     1      12.871   9.080  18.549  0.00  0.00    +0.073 A 
ATOM     20  C   UNL     1      12.209   8.533  17.482  0.00  0.00    +0.163 A 
BRANCH  20  21
ATOM     21  C   UNL     1      10.805   8.513  17.057  0.00  0.00    +0.232 C 
BRANCH  21   4
ATOM      4  O   UNL     1      10.716   8.303  15.645  0.00  0.00    -0.387 OA
ATOM     24  H   UNL     1      10.177   9.027  15.285  0.00  0.00    +0.210 HD
ENDBRANCH  21   4
ENDBRANCH  20  21
ENDBRANCH  16  18
ENDBRANCH   7  16
TORSDOF 8
ENDMDL
MODEL 10
REMARK VINA RESULT:      -3.5      2.352      3.947
REMARK  Name = 56775612
REMARK  8 active torsions:
REMARK  status: ('A' for Active; 'I' for Inactive)
REMARK    1  A    between atoms: O_2  and  C_17
REMARK    2  A    between atoms: O_4  and  C_21
REMARK    3  A    between atoms: N_5  and  C_7
REMARK    4  A    between atoms: N_5  and  C_8
REMARK    5  A    between atoms: C_7  and  C_16
REMARK    6  A    between atoms: C_11  and  C_17
REMARK    7  A    between atoms: C_16  and  C_18
REMARK    8  A    between atoms: C_20  and  C_21
REMARK                            x       y       z     vdW  Elec       q    Type
REMARK                         _______ _______ _______ _____ _____    ______ ____
ROOT
ATOM      1  O   UNL     1      -0.906   5.714  24.865  0.00  0.00    -0.376 OA
ATOM      7  C   UNL     1      -0.788   3.584  24.795  0.00  0.00    +0.072 C 
ATOM     14  C   UNL     1      -0.170   4.768  24.057  0.00  0.00    +0.184 C 
ATOM     15  C   UNL     1      -1.454   4.643  25.667  0.00  0.00    +0.184 C 
ENDROOT
BRANCH   7   5
ATOM      5  N   UNL     1      -1.804   2.971  23.936  0.00  0.00    -0.304 NA
ATOM     22  H   UNL     1      -1.475   2.194  23.363  0.00  0.00    +0.123 HD
BRANCH   5   8
ATOM      8  C   UNL     1      -2.937   2.548  24.757  0.00  0.00    +0.054 C 
ATOM      9  C   UNL     1      -3.523   1.246  24.200  0.00  0.00    +0.019 C 
ATOM     10  C   UNL     1      -4.002   3.649  24.816  0.00  0.00    +0.019 C 
ATOM     11  C   UNL     1      -5.814   1.895  25.066  0.00  0.00    +0.015 C 
ATOM     12  C   UNL     1      -4.746   0.797  25.000  0.00  0.00    +0.007 C 
ATOM     13  C   UNL     1      -5.224   3.200  25.616  0.00  0.00    +0.007 C 
BRANCH  11  17
ATOM     17  C   UNL     1      -7.002   1.442  25.914  0.00  0.00    +0.159 C 
BRANCH  17   2
ATOM      2  O   UNL     1      -6.785   1.859  27.249  0.00  0.00    -0.395 OA
ATOM     23  H   UNL     1      -6.647   2.822  27.230  0.00  0.00    +0.209 HD
ENDBRANCH  17   2
ENDBRANCH  11  17
ENDBRANCH   5   8
ENDBRANCH   7   5
BRANCH   7  16
ATOM     16  C   UNL     1       0.115   2.577  25.439  0.00  0.00    +0.085 C 
BRANCH  16  18
ATOM      3  O   UNL     1       0.373  -0.441  23.469  0.00  0.00    -0.357 OA
ATOM      6  N   UNL     1      -0.205   0.328  24.471  0.00  0.00    -0.083 NA
ATOM     18  C   UNL     1       0.477   1.477  24.462  0.00  0.00    +0.086 A 
ATOM     19  C   UNL     1       1.488   1.489  23.485  0.00  0.00    +0.073 A 
ATOM     20  C   UNL     1       1.381   0.260  22.889  0.00  0.00    +0.163 A 
BRANCH  20  21
ATOM     21  C   UNL     1       2.104  -0.410  21.803  0.00  0.00    +0.232 C 
BRANCH  21   4
ATOM      4  O   UNL     1       1.216  -0.698  20.719  0.00  0.00    -0.387 OA
ATOM     24  H   UNL     1       1.753  -0.706  19.909  0.00  0.00    +0.210 HD
ENDBRANCH  21   4
ENDBRANCH  20  21
ENDBRANCH  16  18
ENDBRANCH   7  16
TORSDOF 8
ENDMDL
