MODEL 1
REMARK VINA RESULT:       1.7      0.000      0.000
REMARK  Name = 28962208
REMARK  15 active torsions:
REMARK  status: ('A' for Active; 'I' for Inactive)
REMARK    1  A    between atoms: O_2  and  C_12
REMARK    2  A    between atoms: O_3  and  C_15
REMARK    3  A    between atoms: O_5  and  C_29
REMARK    4  A    between atoms: O_5  and  C_32
REMARK    5  A    between atoms: O_6  and  C_30
REMARK    6  A    between atoms: O_6  and  C_33
REMARK    7  A    between atoms: N_7  and  C_10
REMARK    8  A    between atoms: N_7  and  C_16
REMARK    9  A    between atoms: N_7  and  C_17
REMARK   10  A    between atoms: N_8  and  C_14
REMARK   11  A    between atoms: N_9  and  C_25
REMARK   12  A    between atoms: C_11  and  C_14
REMARK   13  A    between atoms: C_13  and  C_15
REMARK   14  A    between atoms: C_16  and  C_18
REMARK   15  A    between atoms: C_18  and  C_19
REMARK                            x       y       z     vdW  Elec       q    Type
REMARK                         _______ _______ _______ _____ _____    ______ ____
ROOT
ATOM      1  O   UNL     1      -1.977   4.501  26.128  0.00  0.00    -0.365 OA
ATOM     10  C   UNL     1      -4.160   4.015  25.314  0.00  0.00    +0.118 C 
ATOM     11  C   UNL     1      -3.111   3.637  26.366  0.00  0.00    +0.155 C 
ATOM     12  C   UNL     1      -3.319   4.583  24.181  0.00  0.00    +0.165 C 
ATOM     13  C   UNL     1      -2.242   5.316  24.970  0.00  0.00    +0.174 C 
ENDROOT
BRANCH  12   2
ATOM      2  O   UNL     1      -2.742   3.552  23.393  0.00  0.00    -0.388 OA
ATOM     34  H   UNL     1      -2.642   2.768  23.959  0.00  0.00    +0.210 HD
ENDBRANCH  12   2
BRANCH  10   7
ATOM      7  N   UNL     1      -5.091   2.967  24.930  0.00  0.00    -0.297 NA
ATOM     17  C   UNL     1      -5.918   2.559  26.070  0.00  0.00    +0.105 C 
BRANCH   7  16
ATOM     16  C   UNL     1      -4.376   1.808  24.387  0.00  0.00    +0.089 C 
BRANCH  16  18
ATOM     18  C   UNL     1      -5.247   0.553  24.441  0.00  0.00    +0.050 C 
BRANCH  18  19
ATOM     19  C   UNL     1      -4.420  -0.686  24.675  0.00  0.00    -0.046 A 
ATOM     21  C   UNL     1      -4.397  -1.700  23.717  0.00  0.00    +0.003 A 
ATOM     22  C   UNL     1      -3.678  -0.818  25.848  0.00  0.00    +0.003 A 
ATOM     23  C   UNL     1      -3.632  -2.847  23.934  0.00  0.00    +0.000 A 
ATOM     24  C   UNL     1      -2.912  -1.963  26.065  0.00  0.00    +0.000 A 
ATOM     26  C   UNL     1      -2.889  -2.979  25.108  0.00  0.00    +0.000 A 
ENDBRANCH  18  19
ENDBRANCH  16  18
ENDBRANCH   7  16
ENDBRANCH  10   7
BRANCH  11  14
ATOM     14  C   UNL     1      -2.598   2.202  26.337  0.00  0.00    +0.139 C 
BRANCH  14   8
ATOM      4  O   UNL     1      -1.457   0.809  24.110  0.00  0.00    -0.253 OA
ATOM      8  N   UNL     1      -1.213   2.155  25.975  0.00  0.00    -0.297 N 
ATOM      9  N   UNL     1       0.663   1.582  24.762  0.00  0.00    -0.269 N 
ATOM     20  C   UNL     1      -0.725   1.446  24.863  0.00  0.00    +0.304 C 
ATOM     35  H   UNL     1      -0.547   2.648  26.562  0.00  0.00    +0.150 HD
ATOM     37  H   UNL     1       1.118   2.148  25.472  0.00  0.00    +0.156 HD
BRANCH   9  25
ATOM     25  C   UNL     1       1.519   1.024  23.785  0.00  0.00    +0.042 A 
ATOM     27  C   UNL     1       0.986   0.302  22.718  0.00  0.00    +0.069 A 
ATOM     28  C   UNL     1       2.900   1.199  23.886  0.00  0.00    +0.069 A 
ATOM     29  C   UNL     1       3.745   0.650  22.921  0.00  0.00    +0.125 A 
ATOM     30  C   UNL     1       1.830  -0.247  21.754  0.00  0.00    +0.125 A 
ATOM     31  C   UNL     1       3.211  -0.073  21.856  0.00  0.00    +0.091 A 
BRANCH  29   5
ATOM      5  O   UNL     1       5.092   0.821  23.021  0.00  0.00    -0.495 OA
ATOM     32  C   UNL     1       5.805  -0.101  23.844  0.00  0.00    +0.277 C 
ENDBRANCH  29   5
BRANCH  30   6
ATOM      6  O   UNL     1       1.309  -0.953  20.714  0.00  0.00    -0.495 OA
ATOM     33  C   UNL     1       0.009  -0.575  20.260  0.00  0.00    +0.277 C 
ENDBRANCH  30   6
ENDBRANCH   9  25
ENDBRANCH  14   8
ENDBRANCH  11  14
BRANCH  13  15
ATOM     15  C   UNL     1      -0.944   5.568  24.226  0.00  0.00    +0.190 C 
BRANCH  15   3
ATOM      3  O   UNL     1      -0.209   4.357  24.161  0.00  0.00    -0.392 OA
ATOM     36  H   UNL     1      -0.644   3.793  23.500  0.00  0.00    +0.210 HD
ENDBRANCH  15   3
ENDBRANCH  13  15
TORSDOF 12
ENDMDL
MODEL 2
REMARK VINA RESULT:       1.8      0.080      2.376
REMARK  Name = 28962208
REMARK  15 active torsions:
REMARK  status: ('A' for Active; 'I' for Inactive)
REMARK    1  A    between atoms: O_2  and  C_12
REMARK    2  A    between atoms: O_3  and  C_15
REMARK    3  A    between atoms: O_5  and  C_29
REMARK    4  A    between atoms: O_5  and  C_32
REMARK    5  A    between atoms: O_6  and  C_30
REMARK    6  A    between atoms: O_6  and  C_33
REMARK    7  A    between atoms: N_7  and  C_10
REMARK    8  A    between atoms: N_7  and  C_16
REMARK    9  A    between atoms: N_7  and  C_17
REMARK   10  A    between atoms: N_8  and  C_14
REMARK   11  A    between atoms: N_9  and  C_25
REMARK   12  A    between atoms: C_11  and  C_14
REMARK   13  A    between atoms: C_13  and  C_15
REMARK   14  A    between atoms: C_16  and  C_18
REMARK   15  A    between atoms: C_18  and  C_19
REMARK                            x       y       z     vdW  Elec       q    Type
REMARK                         _______ _______ _______ _____ _____    ______ ____
ROOT
ATOM      1  O   UNL     1      -2.022   4.497  26.138  0.00  0.00    -0.365 OA
ATOM     10  C   UNL     1      -4.202   3.980  25.338  0.00  0.00    +0.118 C 
ATOM     11  C   UNL     1      -3.142   3.618  26.385  0.00  0.00    +0.155 C 
ATOM     12  C   UNL     1      -3.377   4.558  24.199  0.00  0.00    +0.165 C 
ATOM     13  C   UNL     1      -2.305   5.307  24.981  0.00  0.00    +0.174 C 
ENDROOT
BRANCH  12   2
ATOM      2  O   UNL     1      -2.789   3.534  23.409  0.00  0.00    -0.388 OA
ATOM     34  H   UNL     1      -3.323   2.730  23.523  0.00  0.00    +0.210 HD
ENDBRANCH  12   2
BRANCH  10   7
ATOM      7  N   UNL     1      -5.120   2.918  24.961  0.00  0.00    -0.297 NA
ATOM     17  C   UNL     1      -5.978   2.544  26.089  0.00  0.00    +0.105 C 
BRANCH   7  16
ATOM     16  C   UNL     1      -4.390   1.744  24.473  0.00  0.00    +0.089 C 
BRANCH  16  18
ATOM     18  C   UNL     1      -5.252   0.486  24.561  0.00  0.00    +0.050 C 
BRANCH  18  19
ATOM     19  C   UNL     1      -4.409  -0.756  24.700  0.00  0.00    -0.046 A 
ATOM     21  C   UNL     1      -3.640  -0.951  25.847  0.00  0.00    +0.003 A 
ATOM     22  C   UNL     1      -4.398  -1.710  23.682  0.00  0.00    +0.003 A 
ATOM     23  C   UNL     1      -2.859  -2.101  25.976  0.00  0.00    +0.000 A 
ATOM     24  C   UNL     1      -3.618  -2.859  23.811  0.00  0.00    +0.000 A 
ATOM     26  C   UNL     1      -2.848  -3.055  24.958  0.00  0.00    +0.000 A 
ENDBRANCH  18  19
ENDBRANCH  16  18
ENDBRANCH   7  16
ENDBRANCH  10   7
BRANCH  11  14
ATOM     14  C   UNL     1      -2.609   2.190  26.354  0.00  0.00    +0.139 C 
BRANCH  14   8
ATOM      4  O   UNL     1      -1.475   0.778  24.135  0.00  0.00    -0.253 OA
ATOM      8  N   UNL     1      -1.228   2.161  25.973  0.00  0.00    -0.297 N 
ATOM      9  N   UNL     1       0.640   1.599  24.742  0.00  0.00    -0.269 N 
ATOM     20  C   UNL     1      -0.744   1.441  24.867  0.00  0.00    +0.304 C 
ATOM     35  H   UNL     1      -0.564   2.677  26.541  0.00  0.00    +0.150 HD
ATOM     37  H   UNL     1       1.095   2.187  25.436  0.00  0.00    +0.156 HD
BRANCH   9  25
ATOM     25  C   UNL     1       1.492   1.040  23.763  0.00  0.00    +0.042 A 
ATOM     27  C   UNL     1       2.873   1.208  23.861  0.00  0.00    +0.069 A 
ATOM     28  C   UNL     1       0.953   0.317  22.699  0.00  0.00    +0.069 A 
ATOM     29  C   UNL     1       1.794  -0.236  21.734  0.00  0.00    +0.125 A 
ATOM     30  C   UNL     1       3.715   0.656  22.896  0.00  0.00    +0.125 A 
ATOM     31  C   UNL     1       3.174  -0.067  21.832  0.00  0.00    +0.091 A 
BRANCH  29   5
ATOM      5  O   UNL     1       1.267  -0.941  20.695  0.00  0.00    -0.495 OA
ATOM     32  C   UNL     1      -0.015  -0.534  20.218  0.00  0.00    +0.277 C 
ENDBRANCH  29   5
BRANCH  30   6
ATOM      6  O   UNL     1       5.062   0.821  22.992  0.00  0.00    -0.495 OA
ATOM     33  C   UNL     1       5.756  -0.026  23.906  0.00  0.00    +0.277 C 
ENDBRANCH  30   6
ENDBRANCH   9  25
ENDBRANCH  14   8
ENDBRANCH  11  14
BRANCH  13  15
ATOM     15  C   UNL     1      -1.015   5.576  24.229  0.00  0.00    +0.190 C 
BRANCH  15   3
ATOM      3  O   UNL     1      -0.212   4.408  24.262  0.00  0.00    -0.392 OA
ATOM     36  H   UNL     1       0.366   4.478  25.040  0.00  0.00    +0.210 HD
ENDBRANCH  15   3
ENDBRANCH  13  15
TORSDOF 12
ENDMDL
MODEL 3
REMARK VINA RESULT:       2.8      1.900      7.097
REMARK  Name = 28962208
REMARK  15 active torsions:
REMARK  status: ('A' for Active; 'I' for Inactive)
REMARK    1  A    between atoms: O_2  and  C_12
REMARK    2  A    between atoms: O_3  and  C_15
REMARK    3  A    between atoms: O_5  and  C_29
REMARK    4  A    between atoms: O_5  and  C_32
REMARK    5  A    between atoms: O_6  and  C_30
REMARK    6  A    between atoms: O_6  and  C_33
REMARK    7  A    between atoms: N_7  and  C_10
REMARK    8  A    between atoms: N_7  and  C_16
REMARK    9  A    between atoms: N_7  and  C_17
REMARK   10  A    between atoms: N_8  and  C_14
REMARK   11  A    between atoms: N_9  and  C_25
REMARK   12  A    between atoms: C_11  and  C_14
REMARK   13  A    between atoms: C_13  and  C_15
REMARK   14  A    between atoms: C_16  and  C_18
REMARK   15  A    between atoms: C_18  and  C_19
REMARK                            x       y       z     vdW  Elec       q    Type
REMARK                         _______ _______ _______ _____ _____    ______ ____
ROOT
ATOM      1  O   UNL     1       4.037   1.508  23.131  0.00  0.00    -0.365 OA
ATOM     10  C   UNL     1       2.632  -0.129  22.127  0.00  0.00    +0.118 C 
ATOM     11  C   UNL     1       2.667   1.279  22.732  0.00  0.00    +0.155 C 
ATOM     12  C   UNL     1       3.800  -0.824  22.810  0.00  0.00    +0.165 C 
ATOM     13  C   UNL     1       4.806   0.317  22.876  0.00  0.00    +0.174 C 
ENDROOT
BRANCH  12   2
ATOM      2  O   UNL     1       3.456  -1.258  24.118  0.00  0.00    -0.388 OA
ATOM     34  H   UNL     1       2.595  -0.867  24.342  0.00  0.00    +0.210 HD
ENDBRANCH  12   2
BRANCH  10   7
ATOM      7  N   UNL     1       1.361  -0.831  22.207  0.00  0.00    -0.297 NA
ATOM     17  C   UNL     1       0.559  -0.596  21.003  0.00  0.00    +0.105 C 
BRANCH   7  16
ATOM     16  C   UNL     1       0.612  -0.420  23.398  0.00  0.00    +0.089 C 
BRANCH  16  18
ATOM     18  C   UNL     1       0.378  -1.605  24.335  0.00  0.00    +0.050 C 
BRANCH  18  19
ATOM     19  C   UNL     1      -1.072  -1.724  24.728  0.00  0.00    -0.046 A 
ATOM     21  C   UNL     1      -1.938  -2.512  23.968  0.00  0.00    +0.003 A 
ATOM     22  C   UNL     1      -1.549  -1.048  25.851  0.00  0.00    +0.003 A 
ATOM     23  C   UNL     1      -3.281  -2.622  24.332  0.00  0.00    +0.000 A 
ATOM     24  C   UNL     1      -2.891  -1.159  26.214  0.00  0.00    +0.000 A 
ATOM     26  C   UNL     1      -3.757  -1.946  25.455  0.00  0.00    +0.000 A 
ENDBRANCH  18  19
ENDBRANCH  16  18
ENDBRANCH   7  16
ENDBRANCH  10   7
BRANCH  11  14
ATOM     14  C   UNL     1       1.793   1.520  23.957  0.00  0.00    +0.139 C 
BRANCH  14   8
ATOM      4  O   UNL     1      -0.426   1.955  25.716  0.00  0.00    -0.253 OA
ATOM      8  N   UNL     1       0.455   1.864  23.579  0.00  0.00    -0.297 N 
ATOM      9  N   UNL     1      -1.776   2.385  23.843  0.00  0.00    -0.269 N 
ATOM     20  C   UNL     1      -0.586   2.061  24.502  0.00  0.00    +0.304 C 
ATOM     35  H   UNL     1       0.245   1.956  22.589  0.00  0.00    +0.150 HD
ATOM     37  H   UNL     1      -1.736   2.433  22.829  0.00  0.00    +0.156 HD
BRANCH   9  25
ATOM     25  C   UNL     1      -3.039   2.657  24.417  0.00  0.00    +0.042 A 
ATOM     27  C   UNL     1      -3.829   1.611  24.895  0.00  0.00    +0.069 A 
ATOM     28  C   UNL     1      -3.497   3.972  24.508  0.00  0.00    +0.069 A 
ATOM     29  C   UNL     1      -4.742   4.240  25.075  0.00  0.00    +0.125 A 
ATOM     30  C   UNL     1      -5.074   1.879  25.463  0.00  0.00    +0.125 A 
ATOM     31  C   UNL     1      -5.531   3.194  25.552  0.00  0.00    +0.091 A 
BRANCH  29   5
ATOM      5  O   UNL     1      -5.188   5.524  25.162  0.00  0.00    -0.495 OA
ATOM     32  C   UNL     1      -6.585   5.713  25.380  0.00  0.00    +0.277 C 
ENDBRANCH  29   5
BRANCH  30   6
ATOM      6  O   UNL     1      -5.845   0.858  25.928  0.00  0.00    -0.495 OA
ATOM     33  C   UNL     1      -6.684   1.137  27.048  0.00  0.00    +0.277 C 
ENDBRANCH  30   6
ENDBRANCH   9  25
ENDBRANCH  14   8
ENDBRANCH  11  14
BRANCH  13  15
ATOM     15  C   UNL     1       5.883   0.179  23.937  0.00  0.00    +0.190 C 
BRANCH  15   3
ATOM      3  O   UNL     1       5.361   0.617  25.181  0.00  0.00    -0.392 OA
ATOM     36  H   UNL     1       5.633   1.542  25.296  0.00  0.00    +0.210 HD
ENDBRANCH  15   3
ENDBRANCH  13  15
TORSDOF 12
ENDMDL
MODEL 4
REMARK VINA RESULT:       2.8      1.897      7.191
REMARK  Name = 28962208
REMARK  15 active torsions:
REMARK  status: ('A' for Active; 'I' for Inactive)
REMARK    1  A    between atoms: O_2  and  C_12
REMARK    2  A    between atoms: O_3  and  C_15
REMARK    3  A    between atoms: O_5  and  C_29
REMARK    4  A    between atoms: O_5  and  C_32
REMARK    5  A    between atoms: O_6  and  C_30
REMARK    6  A    between atoms: O_6  and  C_33
REMARK    7  A    between atoms: N_7  and  C_10
REMARK    8  A    between atoms: N_7  and  C_16
REMARK    9  A    between atoms: N_7  and  C_17
REMARK   10  A    between atoms: N_8  and  C_14
REMARK   11  A    between atoms: N_9  and  C_25
REMARK   12  A    between atoms: C_11  and  C_14
REMARK   13  A    between atoms: C_13  and  C_15
REMARK   14  A    between atoms: C_16  and  C_18
REMARK   15  A    between atoms: C_18  and  C_19
REMARK                            x       y       z     vdW  Elec       q    Type
REMARK                         _______ _______ _______ _____ _____    ______ ____
ROOT
ATOM      1  O   UNL     1       4.027   1.485  23.130  0.00  0.00    -0.365 OA
ATOM     10  C   UNL     1       2.618  -0.150  22.128  0.00  0.00    +0.118 C 
ATOM     11  C   UNL     1       2.655   1.257  22.737  0.00  0.00    +0.155 C 
ATOM     12  C   UNL     1       3.791  -0.846  22.801  0.00  0.00    +0.165 C 
ATOM     13  C   UNL     1       4.797   0.296  22.865  0.00  0.00    +0.174 C 
ENDROOT
BRANCH  12   2
ATOM      2  O   UNL     1       3.455  -1.286  24.109  0.00  0.00    -0.388 OA
ATOM     34  H   UNL     1       2.567  -1.679  24.069  0.00  0.00    +0.210 HD
ENDBRANCH  12   2
BRANCH  10   7
ATOM      7  N   UNL     1       1.349  -0.853  22.212  0.00  0.00    -0.297 NA
ATOM     17  C   UNL     1       0.539  -0.615  21.013  0.00  0.00    +0.105 C 
BRANCH   7  16
ATOM     16  C   UNL     1       0.605  -0.447  23.409  0.00  0.00    +0.089 C 
BRANCH  16  18
ATOM     18  C   UNL     1       0.360  -1.640  24.332  0.00  0.00    +0.050 C 
BRANCH  18  19
ATOM     19  C   UNL     1      -1.088  -1.736  24.741  0.00  0.00    -0.046 A 
ATOM     21  C   UNL     1      -1.540  -1.057  25.873  0.00  0.00    +0.003 A 
ATOM     22  C   UNL     1      -1.976  -2.503  23.987  0.00  0.00    +0.003 A 
ATOM     23  C   UNL     1      -2.880  -1.146  26.250  0.00  0.00    +0.000 A 
ATOM     24  C   UNL     1      -3.316  -2.592  24.365  0.00  0.00    +0.000 A 
ATOM     26  C   UNL     1      -3.768  -1.913  25.497  0.00  0.00    +0.000 A 
ENDBRANCH  18  19
ENDBRANCH  16  18
ENDBRANCH   7  16
ENDBRANCH  10   7
BRANCH  11  14
ATOM     14  C   UNL     1       1.788   1.492  23.969  0.00  0.00    +0.139 C 
BRANCH  14   8
ATOM      4  O   UNL     1      -0.464   1.795  25.712  0.00  0.00    -0.253 OA
ATOM      8  N   UNL     1       0.472   1.920  23.600  0.00  0.00    -0.297 N 
ATOM      9  N   UNL     1      -1.750   2.479  23.869  0.00  0.00    -0.269 N 
ATOM     20  C   UNL     1      -0.588   2.045  24.515  0.00  0.00    +0.304 C 
ATOM     35  H   UNL     1       0.292   2.131  22.623  0.00  0.00    +0.150 HD
ATOM     37  H   UNL     1      -1.680   2.641  22.868  0.00  0.00    +0.156 HD
BRANCH   9  25
ATOM     25  C   UNL     1      -3.019   2.725  24.440  0.00  0.00    +0.042 A 
ATOM     27  C   UNL     1      -3.498   4.031  24.543  0.00  0.00    +0.069 A 
ATOM     28  C   UNL     1      -3.796   1.660  24.899  0.00  0.00    +0.069 A 
ATOM     29  C   UNL     1      -5.049   1.903  25.461  0.00  0.00    +0.125 A 
ATOM     30  C   UNL     1      -4.751   4.274  25.105  0.00  0.00    +0.125 A 
ATOM     31  C   UNL     1      -5.527   3.209  25.564  0.00  0.00    +0.091 A 
BRANCH  29   5
ATOM      5  O   UNL     1      -5.806   0.864  25.909  0.00  0.00    -0.495 OA
ATOM     32  C   UNL     1      -6.684   1.124  27.004  0.00  0.00    +0.277 C 
ENDBRANCH  29   5
BRANCH  30   6
ATOM      6  O   UNL     1      -5.217   5.548  25.206  0.00  0.00    -0.495 OA
ATOM     33  C   UNL     1      -6.625   5.713  25.368  0.00  0.00    +0.277 C 
ENDBRANCH  30   6
ENDBRANCH   9  25
ENDBRANCH  14   8
ENDBRANCH  11  14
BRANCH  13  15
ATOM     15  C   UNL     1       5.879   0.155  23.919  0.00  0.00    +0.190 C 
BRANCH  15   3
ATOM      3  O   UNL     1       5.369   0.601  25.165  0.00  0.00    -0.392 OA
ATOM     36  H   UNL     1       5.273   1.566  25.107  0.00  0.00    +0.210 HD
ENDBRANCH  15   3
ENDBRANCH  13  15
TORSDOF 12
ENDMDL
MODEL 5
REMARK VINA RESULT:       4.0      1.909      2.564
REMARK  Name = 28962208
REMARK  15 active torsions:
REMARK  status: ('A' for Active; 'I' for Inactive)
REMARK    1  A    between atoms: O_2  and  C_12
REMARK    2  A    between atoms: O_3  and  C_15
REMARK    3  A    between atoms: O_5  and  C_29
REMARK    4  A    between atoms: O_5  and  C_32
REMARK    5  A    between atoms: O_6  and  C_30
REMARK    6  A    between atoms: O_6  and  C_33
REMARK    7  A    between atoms: N_7  and  C_10
REMARK    8  A    between atoms: N_7  and  C_16
REMARK    9  A    between atoms: N_7  and  C_17
REMARK   10  A    between atoms: N_8  and  C_14
REMARK   11  A    between atoms: N_9  and  C_25
REMARK   12  A    between atoms: C_11  and  C_14
REMARK   13  A    between atoms: C_13  and  C_15
REMARK   14  A    between atoms: C_16  and  C_18
REMARK   15  A    between atoms: C_18  and  C_19
REMARK                            x       y       z     vdW  Elec       q    Type
REMARK                         _______ _______ _______ _____ _____    ______ ____
ROOT
ATOM      1  O   UNL     1      -3.624   4.264  26.499  0.00  0.00    -0.365 OA
ATOM     10  C   UNL     1      -3.485   2.849  24.590  0.00  0.00    +0.118 C 
ATOM     11  C   UNL     1      -2.667   3.565  25.672  0.00  0.00    +0.155 C 
ATOM     12  C   UNL     1      -4.741   3.702  24.490  0.00  0.00    +0.165 C 
ATOM     13  C   UNL     1      -4.944   4.077  25.953  0.00  0.00    +0.174 C 
ENDROOT
BRANCH  12   2
ATOM      2  O   UNL     1      -4.519   4.866  23.706  0.00  0.00    -0.388 OA
ATOM     34  H   UNL     1      -4.738   5.638  24.255  0.00  0.00    +0.210 HD
ENDBRANCH  12   2
BRANCH  10   7
ATOM      7  N   UNL     1      -2.805   2.597  23.331  0.00  0.00    -0.297 NA
ATOM     17  C   UNL     1      -3.530   3.210  22.214  0.00  0.00    +0.105 C 
BRANCH   7  16
ATOM     16  C   UNL     1      -2.650   1.158  23.100  0.00  0.00    +0.089 C 
BRANCH  16  18
ATOM     18  C   UNL     1      -3.947   0.410  23.408  0.00  0.00    +0.050 C 
BRANCH  18  19
ATOM     19  C   UNL     1      -3.695  -0.808  24.260  0.00  0.00    -0.046 A 
ATOM     21  C   UNL     1      -3.859  -2.083  23.718  0.00  0.00    +0.003 A 
ATOM     22  C   UNL     1      -3.299  -0.660  25.589  0.00  0.00    +0.003 A 
ATOM     23  C   UNL     1      -3.626  -3.211  24.507  0.00  0.00    +0.000 A 
ATOM     24  C   UNL     1      -3.066  -1.787  26.377  0.00  0.00    +0.000 A 
ATOM     26  C   UNL     1      -3.229  -3.063  25.836  0.00  0.00    +0.000 A 
ENDBRANCH  18  19
ENDBRANCH  16  18
ENDBRANCH   7  16
ENDBRANCH  10   7
BRANCH  11  14
ATOM     14  C   UNL     1      -1.649   4.593  25.191  0.00  0.00    +0.139 C 
BRANCH  14   8
ATOM      4  O   UNL     1      -0.347   2.080  25.627  0.00  0.00    -0.253 OA
ATOM      8  N   UNL     1      -0.657   3.987  24.355  0.00  0.00    -0.297 N 
ATOM      9  N   UNL     1       0.870   2.410  23.647  0.00  0.00    -0.269 N 
ATOM     20  C   UNL     1      -0.060   2.746  24.636  0.00  0.00    +0.304 C 
ATOM     35  H   UNL     1      -0.360   4.488  23.523  0.00  0.00    +0.150 HD
ATOM     37  H   UNL     1       0.988   3.076  22.888  0.00  0.00    +0.156 HD
BRANCH   9  25
ATOM     25  C   UNL     1       1.673   1.249  23.568  0.00  0.00    +0.042 A 
ATOM     27  C   UNL     1       1.167   0.020  23.992  0.00  0.00    +0.069 A 
ATOM     28  C   UNL     1       2.972   1.331  23.065  0.00  0.00    +0.069 A 
ATOM     29  C   UNL     1       3.763   0.185  22.987  0.00  0.00    +0.125 A 
ATOM     30  C   UNL     1       1.958  -1.125  23.914  0.00  0.00    +0.125 A 
ATOM     31  C   UNL     1       3.257  -1.042  23.412  0.00  0.00    +0.091 A 
BRANCH  29   5
ATOM      5  O   UNL     1       5.030   0.266  22.496  0.00  0.00    -0.495 OA
ATOM     32  C   UNL     1       6.094  -0.072  23.385  0.00  0.00    +0.277 C 
ENDBRANCH  29   5
BRANCH  30   6
ATOM      6  O   UNL     1       1.464  -2.324  24.329  0.00  0.00    -0.495 OA
ATOM     33  C   UNL     1       0.310  -2.294  25.169  0.00  0.00    +0.277 C 
ENDBRANCH  30   6
ENDBRANCH   9  25
ENDBRANCH  14   8
ENDBRANCH  11  14
BRANCH  13  15
ATOM     15  C   UNL     1      -5.769   5.326  26.199  0.00  0.00    +0.190 C 
BRANCH  15   3
ATOM      3  O   UNL     1      -6.999   5.209  25.502  0.00  0.00    -0.392 OA
ATOM     36  H   UNL     1      -7.417   4.383  25.796  0.00  0.00    +0.210 HD
ENDBRANCH  15   3
ENDBRANCH  13  15
TORSDOF 12
ENDMDL
MODEL 6
REMARK VINA RESULT:       4.0      1.880      3.189
REMARK  Name = 28962208
REMARK  15 active torsions:
REMARK  status: ('A' for Active; 'I' for Inactive)
REMARK    1  A    between atoms: O_2  and  C_12
REMARK    2  A    between atoms: O_3  and  C_15
REMARK    3  A    between atoms: O_5  and  C_29
REMARK    4  A    between atoms: O_5  and  C_32
REMARK    5  A    between atoms: O_6  and  C_30
REMARK    6  A    between atoms: O_6  and  C_33
REMARK    7  A    between atoms: N_7  and  C_10
REMARK    8  A    between atoms: N_7  and  C_16
REMARK    9  A    between atoms: N_7  and  C_17
REMARK   10  A    between atoms: N_8  and  C_14
REMARK   11  A    between atoms: N_9  and  C_25
REMARK   12  A    between atoms: C_11  and  C_14
REMARK   13  A    between atoms: C_13  and  C_15
REMARK   14  A    between atoms: C_16  and  C_18
REMARK   15  A    between atoms: C_18  and  C_19
REMARK                            x       y       z     vdW  Elec       q    Type
REMARK                         _______ _______ _______ _____ _____    ______ ____
ROOT
ATOM      1  O   UNL     1      -3.709   4.228  26.562  0.00  0.00    -0.365 OA
ATOM     10  C   UNL     1      -3.542   2.835  24.640  0.00  0.00    +0.118 C 
ATOM     11  C   UNL     1      -2.738   3.551  25.732  0.00  0.00    +0.155 C 
ATOM     12  C   UNL     1      -4.808   3.671  24.542  0.00  0.00    +0.165 C 
ATOM     13  C   UNL     1      -5.023   4.029  26.008  0.00  0.00    +0.174 C 
ENDROOT
BRANCH  12   2
ATOM      2  O   UNL     1      -4.599   4.846  23.771  0.00  0.00    -0.388 OA
ATOM     34  H   UNL     1      -5.293   5.483  24.010  0.00  0.00    +0.210 HD
ENDBRANCH  12   2
BRANCH  10   7
ATOM      7  N   UNL     1      -2.852   2.605  23.382  0.00  0.00    -0.297 NA
ATOM     17  C   UNL     1      -3.560   3.251  22.273  0.00  0.00    +0.105 C 
BRANCH   7  16
ATOM     16  C   UNL     1      -2.709   1.169  23.119  0.00  0.00    +0.089 C 
BRANCH  16  18
ATOM     18  C   UNL     1      -3.998   0.420  23.454  0.00  0.00    +0.050 C 
BRANCH  18  19
ATOM     19  C   UNL     1      -3.726  -0.806  24.287  0.00  0.00    -0.046 A 
ATOM     21  C   UNL     1      -3.335  -0.671  25.620  0.00  0.00    +0.003 A 
ATOM     22  C   UNL     1      -3.866  -2.076  23.728  0.00  0.00    +0.003 A 
ATOM     23  C   UNL     1      -3.083  -1.806  26.392  0.00  0.00    +0.000 A 
ATOM     24  C   UNL     1      -3.614  -3.211  24.499  0.00  0.00    +0.000 A 
ATOM     26  C   UNL     1      -3.223  -3.076  25.832  0.00  0.00    +0.000 A 
ENDBRANCH  18  19
ENDBRANCH  16  18
ENDBRANCH   7  16
ENDBRANCH  10   7
BRANCH  11  14
ATOM     14  C   UNL     1      -1.733   4.598  25.267  0.00  0.00    +0.139 C 
BRANCH  14   8
ATOM      4  O   UNL     1      -0.456   2.061  25.636  0.00  0.00    -0.253 OA
ATOM      8  N   UNL     1      -0.730   4.014  24.427  0.00  0.00    -0.297 N 
ATOM      9  N   UNL     1       0.798   2.452  23.690  0.00  0.00    -0.269 N 
ATOM     20  C   UNL     1      -0.146   2.760  24.674  0.00  0.00    +0.304 C 
ATOM     35  H   UNL     1      -0.415   4.542  23.619  0.00  0.00    +0.150 HD
ATOM     37  H   UNL     1       0.935   3.144  22.958  0.00  0.00    +0.156 HD
BRANCH   9  25
ATOM     25  C   UNL     1       1.594   1.289  23.585  0.00  0.00    +0.042 A 
ATOM     27  C   UNL     1       2.892   1.374  23.082  0.00  0.00    +0.069 A 
ATOM     28  C   UNL     1       1.083   0.054  23.987  0.00  0.00    +0.069 A 
ATOM     29  C   UNL     1       1.869  -1.093  23.884  0.00  0.00    +0.125 A 
ATOM     30  C   UNL     1       3.679   0.226  22.979  0.00  0.00    +0.125 A 
ATOM     31  C   UNL     1       3.166  -1.008  23.380  0.00  0.00    +0.091 A 
BRANCH  29   5
ATOM      5  O   UNL     1       1.369  -2.298  24.276  0.00  0.00    -0.495 OA
ATOM     32  C   UNL     1       0.242  -2.279  25.151  0.00  0.00    +0.277 C 
ENDBRANCH  29   5
BRANCH  30   6
ATOM      6  O   UNL     1       4.944   0.310  22.487  0.00  0.00    -0.495 OA
ATOM     33  C   UNL     1       6.007  -0.071  23.361  0.00  0.00    +0.277 C 
ENDBRANCH  30   6
ENDBRANCH   9  25
ENDBRANCH  14   8
ENDBRANCH  11  14
BRANCH  13  15
ATOM     15  C   UNL     1      -5.867   5.264  26.262  0.00  0.00    +0.190 C 
BRANCH  15   3
ATOM      3  O   UNL     1      -6.911   5.313  25.304  0.00  0.00    -0.392 OA
ATOM     36  H   UNL     1      -6.972   4.430  24.901  0.00  0.00    +0.210 HD
ENDBRANCH  15   3
ENDBRANCH  13  15
TORSDOF 12
ENDMDL
MODEL 7
REMARK VINA RESULT:       4.1      1.469      3.253
REMARK  Name = 28962208
REMARK  15 active torsions:
REMARK  status: ('A' for Active; 'I' for Inactive)
REMARK    1  A    between atoms: O_2  and  C_12
REMARK    2  A    between atoms: O_3  and  C_15
REMARK    3  A    between atoms: O_5  and  C_29
REMARK    4  A    between atoms: O_5  and  C_32
REMARK    5  A    between atoms: O_6  and  C_30
REMARK    6  A    between atoms: O_6  and  C_33
REMARK    7  A    between atoms: N_7  and  C_10
REMARK    8  A    between atoms: N_7  and  C_16
REMARK    9  A    between atoms: N_7  and  C_17
REMARK   10  A    between atoms: N_8  and  C_14
REMARK   11  A    between atoms: N_9  and  C_25
REMARK   12  A    between atoms: C_11  and  C_14
REMARK   13  A    between atoms: C_13  and  C_15
REMARK   14  A    between atoms: C_16  and  C_18
REMARK   15  A    between atoms: C_18  and  C_19
REMARK                            x       y       z     vdW  Elec       q    Type
REMARK                         _______ _______ _______ _____ _____    ______ ____
ROOT
ATOM      1  O   UNL     1      -4.033   4.419  26.402  0.00  0.00    -0.365 OA
ATOM     10  C   UNL     1      -3.514   2.243  25.592  0.00  0.00    +0.118 C 
ATOM     11  C   UNL     1      -2.960   3.453  26.354  0.00  0.00    +0.155 C 
ATOM     12  C   UNL     1      -4.599   2.854  24.720  0.00  0.00    +0.165 C 
ATOM     13  C   UNL     1      -5.161   3.907  25.667  0.00  0.00    +0.174 C 
ENDROOT
BRANCH  12   2
ATOM      2  O   UNL     1      -4.052   3.470  23.562  0.00  0.00    -0.388 OA
ATOM     34  H   UNL     1      -3.929   2.778  22.890  0.00  0.00    +0.210 HD
ENDBRANCH  12   2
BRANCH  10   7
ATOM      7  N   UNL     1      -2.539   1.426  24.888  0.00  0.00    -0.297 NA
ATOM     17  C   UNL     1      -3.116   0.866  23.662  0.00  0.00    +0.105 C 
BRANCH   7  16
ATOM     16  C   UNL     1      -2.043   0.348  25.748  0.00  0.00    +0.089 C 
BRANCH  16  18
ATOM     18  C   UNL     1      -3.120  -0.712  25.976  0.00  0.00    +0.050 C 
BRANCH  18  19
ATOM     19  C   UNL     1      -2.982  -1.860  25.009  0.00  0.00    -0.046 A 
ATOM     21  C   UNL     1      -4.120  -2.511  24.532  0.00  0.00    +0.003 A 
ATOM     22  C   UNL     1      -1.717  -2.271  24.590  0.00  0.00    +0.003 A 
ATOM     23  C   UNL     1      -3.992  -3.574  23.636  0.00  0.00    +0.000 A 
ATOM     24  C   UNL     1      -1.589  -3.333  23.694  0.00  0.00    +0.000 A 
ATOM     26  C   UNL     1      -2.727  -3.985  23.217  0.00  0.00    +0.000 A 
ENDBRANCH  18  19
ENDBRANCH  16  18
ENDBRANCH   7  16
ENDBRANCH  10   7
BRANCH  11  14
ATOM     14  C   UNL     1      -1.751   4.152  25.742  0.00  0.00    +0.139 C 
BRANCH  14   8
ATOM      4  O   UNL     1      -0.705   2.983  23.345  0.00  0.00    -0.253 OA
ATOM      8  N   UNL     1      -0.635   3.259  25.640  0.00  0.00    -0.297 N 
ATOM      9  N   UNL     1       0.922   1.887  24.634  0.00  0.00    -0.269 N 
ATOM     20  C   UNL     1      -0.178   2.723  24.424  0.00  0.00    +0.304 C 
ATOM     35  H   UNL     1      -0.158   2.989  26.495  0.00  0.00    +0.150 HD
ATOM     37  H   UNL     1       1.235   1.780  25.596  0.00  0.00    +0.156 HD
BRANCH   9  25
ATOM     25  C   UNL     1       1.662   1.166  23.669  0.00  0.00    +0.042 A 
ATOM     27  C   UNL     1       3.055   1.222  23.672  0.00  0.00    +0.069 A 
ATOM     28  C   UNL     1       0.997   0.396  22.713  0.00  0.00    +0.069 A 
ATOM     29  C   UNL     1       1.727  -0.316  21.761  0.00  0.00    +0.125 A 
ATOM     30  C   UNL     1       3.785   0.510  22.720  0.00  0.00    +0.125 A 
ATOM     31  C   UNL     1       3.120  -0.259  21.764  0.00  0.00    +0.091 A 
BRANCH  29   5
ATOM      5  O   UNL     1       1.078  -1.067  20.829  0.00  0.00    -0.495 OA
ATOM     32  C   UNL     1       0.016  -0.438  20.113  0.00  0.00    +0.277 C 
ENDBRANCH  29   5
BRANCH  30   6
ATOM      6  O   UNL     1       5.145   0.566  22.723  0.00  0.00    -0.495 OA
ATOM     33  C   UNL     1       5.815   0.006  23.851  0.00  0.00    +0.277 C 
ENDBRANCH  30   6
ENDBRANCH   9  25
ENDBRANCH  14   8
ENDBRANCH  11  14
BRANCH  13  15
ATOM     15  C   UNL     1      -5.893   5.059  25.003  0.00  0.00    +0.190 C 
BRANCH  15   3
ATOM      3  O   UNL     1      -6.960   5.470  25.842  0.00  0.00    -0.392 OA
ATOM     36  H   UNL     1      -7.779   5.385  25.326  0.00  0.00    +0.210 HD
ENDBRANCH  15   3
ENDBRANCH  13  15
TORSDOF 12
ENDMDL
MODEL 8
REMARK VINA RESULT:       4.1      1.873      4.771
REMARK  Name = 28962208
REMARK  15 active torsions:
REMARK  status: ('A' for Active; 'I' for Inactive)
REMARK    1  A    between atoms: O_2  and  C_12
REMARK    2  A    between atoms: O_3  and  C_15
REMARK    3  A    between atoms: O_5  and  C_29
REMARK    4  A    between atoms: O_5  and  C_32
REMARK    5  A    between atoms: O_6  and  C_30
REMARK    6  A    between atoms: O_6  and  C_33
REMARK    7  A    between atoms: N_7  and  C_10
REMARK    8  A    between atoms: N_7  and  C_16
REMARK    9  A    between atoms: N_7  and  C_17
REMARK   10  A    between atoms: N_8  and  C_14
REMARK   11  A    between atoms: N_9  and  C_25
REMARK   12  A    between atoms: C_11  and  C_14
REMARK   13  A    between atoms: C_13  and  C_15
REMARK   14  A    between atoms: C_16  and  C_18
REMARK   15  A    between atoms: C_18  and  C_19
REMARK                            x       y       z     vdW  Elec       q    Type
REMARK                         _______ _______ _______ _____ _____    ______ ____
ROOT
ATOM      1  O   UNL     1      -3.736  -1.106  23.281  0.00  0.00    -0.365 OA
ATOM     10  C   UNL     1      -4.864   0.278  24.854  0.00  0.00    +0.118 C 
ATOM     11  C   UNL     1      -4.143   0.263  23.501  0.00  0.00    +0.155 C 
ATOM     12  C   UNL     1      -4.252  -0.910  25.582  0.00  0.00    +0.165 C 
ATOM     13  C   UNL     1      -4.097  -1.895  24.430  0.00  0.00    +0.174 C 
ENDROOT
BRANCH  12   2
ATOM      2  O   UNL     1      -2.983  -0.587  26.132  0.00  0.00    -0.388 OA
ATOM     34  H   UNL     1      -2.784   0.334  25.893  0.00  0.00    +0.210 HD
ENDBRANCH  12   2
BRANCH  10   7
ATOM      7  N   UNL     1      -4.835   1.534  25.585  0.00  0.00    -0.297 NA
ATOM     17  C   UNL     1      -6.016   1.667  26.443  0.00  0.00    +0.105 C 
BRANCH   7  16
ATOM     16  C   UNL     1      -4.752   2.672  24.663  0.00  0.00    +0.089 C 
BRANCH  16  18
ATOM     18  C   UNL     1      -4.219   3.915  25.375  0.00  0.00    +0.050 C 
BRANCH  18  19
ATOM     19  C   UNL     1      -2.713   3.913  25.440  0.00  0.00    -0.046 A 
ATOM     21  C   UNL     1      -2.046   2.906  26.139  0.00  0.00    +0.003 A 
ATOM     22  C   UNL     1      -1.985   4.918  24.802  0.00  0.00    +0.003 A 
ATOM     23  C   UNL     1      -0.652   2.904  26.199  0.00  0.00    +0.000 A 
ATOM     24  C   UNL     1      -0.592   4.915  24.862  0.00  0.00    +0.000 A 
ATOM     26  C   UNL     1       0.075   3.908  25.561  0.00  0.00    +0.000 A 
ENDBRANCH  18  19
ENDBRANCH  16  18
ENDBRANCH   7  16
ENDBRANCH  10   7
BRANCH  11  14
ATOM     14  C   UNL     1      -2.894   1.130  23.382  0.00  0.00    +0.139 C 
BRANCH  14   8
ATOM      4  O   UNL     1      -0.199   2.051  23.079  0.00  0.00    -0.253 OA
ATOM      8  N   UNL     1      -1.705   0.334  23.448  0.00  0.00    -0.297 N 
ATOM      9  N   UNL     1       0.550  -0.151  23.402  0.00  0.00    -0.269 N 
ATOM     20  C   UNL     1      -0.411   0.859  23.288  0.00  0.00    +0.304 C 
ATOM     35  H   UNL     1      -1.804  -0.664  23.605  0.00  0.00    +0.150 HD
ATOM     37  H   UNL     1       0.203  -1.090  23.578  0.00  0.00    +0.156 HD
BRANCH   9  25
ATOM     25  C   UNL     1       1.954  -0.027  23.304  0.00  0.00    +0.042 A 
ATOM     27  C   UNL     1       2.777  -1.081  23.701  0.00  0.00    +0.069 A 
ATOM     28  C   UNL     1       2.519   1.149  22.807  0.00  0.00    +0.069 A 
ATOM     29  C   UNL     1       3.905   1.269  22.709  0.00  0.00    +0.125 A 
ATOM     30  C   UNL     1       4.163  -0.960  23.603  0.00  0.00    +0.125 A 
ATOM     31  C   UNL     1       4.727   0.216  23.107  0.00  0.00    +0.091 A 
BRANCH  29   5
ATOM      5  O   UNL     1       4.454   2.417  22.225  0.00  0.00    -0.495 OA
ATOM     32  C   UNL     1       3.555   3.430  21.778  0.00  0.00    +0.277 C 
ENDBRANCH  29   5
BRANCH  30   6
ATOM      6  O   UNL     1       4.966  -1.988  23.991  0.00  0.00    -0.495 OA
ATOM     33  C   UNL     1       6.241  -1.646  24.534  0.00  0.00    +0.277 C 
ENDBRANCH  30   6
ENDBRANCH   9  25
ENDBRANCH  14   8
ENDBRANCH  11  14
BRANCH  13  15
ATOM     15  C   UNL     1      -3.061  -2.984  24.636  0.00  0.00    +0.190 C 
BRANCH  15   3
ATOM      3  O   UNL     1      -1.780  -2.465  24.322  0.00  0.00    -0.392 OA
ATOM     36  H   UNL     1      -1.281  -2.408  25.154  0.00  0.00    +0.210 HD
ENDBRANCH  15   3
ENDBRANCH  13  15
TORSDOF 12
ENDMDL
MODEL 9
REMARK VINA RESULT:       4.3      1.870      4.634
REMARK  Name = 28962208
REMARK  15 active torsions:
REMARK  status: ('A' for Active; 'I' for Inactive)
REMARK    1  A    between atoms: O_2  and  C_12
REMARK    2  A    between atoms: O_3  and  C_15
REMARK    3  A    between atoms: O_5  and  C_29
REMARK    4  A    between atoms: O_5  and  C_32
REMARK    5  A    between atoms: O_6  and  C_30
REMARK    6  A    between atoms: O_6  and  C_33
REMARK    7  A    between atoms: N_7  and  C_10
REMARK    8  A    between atoms: N_7  and  C_16
REMARK    9  A    between atoms: N_7  and  C_17
REMARK   10  A    between atoms: N_8  and  C_14
REMARK   11  A    between atoms: N_9  and  C_25
REMARK   12  A    between atoms: C_11  and  C_14
REMARK   13  A    between atoms: C_13  and  C_15
REMARK   14  A    between atoms: C_16  and  C_18
REMARK   15  A    between atoms: C_18  and  C_19
REMARK                            x       y       z     vdW  Elec       q    Type
REMARK                         _______ _______ _______ _____ _____    ______ ____
ROOT
ATOM      1  O   UNL     1      -3.605  -1.057  23.241  0.00  0.00    -0.365 OA
ATOM     10  C   UNL     1      -4.831   0.291  24.772  0.00  0.00    +0.118 C 
ATOM     11  C   UNL     1      -4.018   0.308  23.472  0.00  0.00    +0.155 C 
ATOM     12  C   UNL     1      -4.278  -0.921  25.506  0.00  0.00    +0.165 C 
ATOM     13  C   UNL     1      -4.050  -1.875  24.340  0.00  0.00    +0.174 C 
ENDROOT
BRANCH  12   2
ATOM      2  O   UNL     1      -3.048  -0.623  26.151  0.00  0.00    -0.388 OA
ATOM     34  H   UNL     1      -3.255  -0.275  27.035  0.00  0.00    +0.210 HD
ENDBRANCH  12   2
BRANCH  10   7
ATOM      7  N   UNL     1      -4.844   1.526  25.537  0.00  0.00    -0.297 NA
ATOM     17  C   UNL     1      -5.997   1.568  26.442  0.00  0.00    +0.105 C 
BRANCH   7  16
ATOM     16  C   UNL     1      -4.861   2.692  24.648  0.00  0.00    +0.089 C 
BRANCH  16  18
ATOM     18  C   UNL     1      -4.338   3.937  25.365  0.00  0.00    +0.050 C 
BRANCH  18  19
ATOM     19  C   UNL     1      -2.833   3.941  25.442  0.00  0.00    -0.046 A 
ATOM     21  C   UNL     1      -2.104   4.927  24.776  0.00  0.00    +0.003 A 
ATOM     22  C   UNL     1      -2.168   2.961  26.179  0.00  0.00    +0.003 A 
ATOM     23  C   UNL     1      -0.710   4.931  24.847  0.00  0.00    +0.000 A 
ATOM     24  C   UNL     1      -0.775   2.966  26.250  0.00  0.00    +0.000 A 
ATOM     26  C   UNL     1      -0.045   3.951  25.584  0.00  0.00    +0.000 A 
ENDBRANCH  18  19
ENDBRANCH  16  18
ENDBRANCH   7  16
ENDBRANCH  10   7
BRANCH  11  14
ATOM     14  C   UNL     1      -2.758   1.168  23.464  0.00  0.00    +0.139 C 
BRANCH  14   8
ATOM      4  O   UNL     1      -0.048   2.090  23.397  0.00  0.00    -0.253 OA
ATOM      8  N   UNL     1      -1.580   0.357  23.384  0.00  0.00    -0.297 N 
ATOM      9  N   UNL     1       0.669  -0.143  23.273  0.00  0.00    -0.269 N 
ATOM     20  C   UNL     1      -0.277   0.884  23.354  0.00  0.00    +0.304 C 
ATOM     35  H   UNL     1      -1.694  -0.650  23.331  0.00  0.00    +0.150 HD
ATOM     37  H   UNL     1       0.308  -1.093  23.247  0.00  0.00    +0.156 HD
BRANCH   9  25
ATOM     25  C   UNL     1       2.076  -0.023  23.224  0.00  0.00    +0.042 A 
ATOM     27  C   UNL     1       2.662   1.167  22.793  0.00  0.00    +0.069 A 
ATOM     28  C   UNL     1       2.882  -1.096  23.607  0.00  0.00    +0.069 A 
ATOM     29  C   UNL     1       4.271  -0.978  23.559  0.00  0.00    +0.125 A 
ATOM     30  C   UNL     1       4.050   1.286  22.745  0.00  0.00    +0.125 A 
ATOM     31  C   UNL     1       4.855   0.212  23.128  0.00  0.00    +0.091 A 
BRANCH  29   5
ATOM      5  O   UNL     1       5.056  -2.026  23.933  0.00  0.00    -0.495 OA
ATOM     32  C   UNL     1       6.286  -1.715  24.586  0.00  0.00    +0.277 C 
ENDBRANCH  29   5
BRANCH  30   6
ATOM      6  O   UNL     1       4.621   2.447  22.324  0.00  0.00    -0.495 OA
ATOM     33  C   UNL     1       3.781   3.367  21.627  0.00  0.00    +0.277 C 
ENDBRANCH  30   6
ENDBRANCH   9  25
ENDBRANCH  14   8
ENDBRANCH  11  14
BRANCH  13  15
ATOM     15  C   UNL     1      -3.036  -2.978  24.587  0.00  0.00    +0.190 C 
BRANCH  15   3
ATOM      3  O   UNL     1      -1.741  -2.487  24.286  0.00  0.00    -0.392 OA
ATOM     36  H   UNL     1      -1.206  -2.574  25.092  0.00  0.00    +0.210 HD
ENDBRANCH  15   3
ENDBRANCH  13  15
TORSDOF 12
ENDMDL
MODEL 10
REMARK VINA RESULT:       4.3      1.736      2.166
REMARK  Name = 28962208
REMARK  15 active torsions:
REMARK  status: ('A' for Active; 'I' for Inactive)
REMARK    1  A    between atoms: O_2  and  C_12
REMARK    2  A    between atoms: O_3  and  C_15
REMARK    3  A    between atoms: O_5  and  C_29
REMARK    4  A    between atoms: O_5  and  C_32
REMARK    5  A    between atoms: O_6  and  C_30
REMARK    6  A    between atoms: O_6  and  C_33
REMARK    7  A    between atoms: N_7  and  C_10
REMARK    8  A    between atoms: N_7  and  C_16
REMARK    9  A    between atoms: N_7  and  C_17
REMARK   10  A    between atoms: N_8  and  C_14
REMARK   11  A    between atoms: N_9  and  C_25
REMARK   12  A    between atoms: C_11  and  C_14
REMARK   13  A    between atoms: C_13  and  C_15
REMARK   14  A    between atoms: C_16  and  C_18
REMARK   15  A    between atoms: C_18  and  C_19
REMARK                            x       y       z     vdW  Elec       q    Type
REMARK                         _______ _______ _______ _____ _____    ______ ____
ROOT
ATOM      1  O   UNL     1      -1.890   3.414  24.944  0.00  0.00    -0.365 OA
ATOM     10  C   UNL     1      -4.213   3.145  25.382  0.00  0.00    +0.118 C 
ATOM     11  C   UNL     1      -2.992   2.511  24.705  0.00  0.00    +0.155 C 
ATOM     12  C   UNL     1      -3.872   4.628  25.385  0.00  0.00    +0.165 C 
ATOM     13  C   UNL     1      -2.374   4.571  25.653  0.00  0.00    +0.174 C 
ENDROOT
BRANCH  12   2
ATOM      2  O   UNL     1      -4.128   5.223  24.121  0.00  0.00    -0.388 OA
ATOM     34  H   UNL     1      -4.307   6.167  24.270  0.00  0.00    +0.210 HD
ENDBRANCH  12   2
BRANCH  10   7
ATOM      7  N   UNL     1      -5.509   2.808  24.817  0.00  0.00    -0.297 NA
ATOM     17  C   UNL     1      -6.593   3.233  25.707  0.00  0.00    +0.105 C 
BRANCH   7  16
ATOM     16  C   UNL     1      -5.607   1.368  24.557  0.00  0.00    +0.089 C 
BRANCH  16  18
ATOM     18  C   UNL     1      -5.056   0.560  25.731  0.00  0.00    +0.050 C 
BRANCH  18  19
ATOM     19  C   UNL     1      -4.272  -0.638  25.260  0.00  0.00    -0.046 A 
ATOM     21  C   UNL     1      -3.226  -1.136  26.038  0.00  0.00    +0.003 A 
ATOM     22  C   UNL     1      -4.592  -1.250  24.048  0.00  0.00    +0.003 A 
ATOM     23  C   UNL     1      -2.501  -2.246  25.602  0.00  0.00    +0.000 A 
ATOM     24  C   UNL     1      -3.867  -2.359  23.614  0.00  0.00    +0.000 A 
ATOM     26  C   UNL     1      -2.821  -2.858  24.390  0.00  0.00    +0.000 A 
ENDBRANCH  18  19
ENDBRANCH  16  18
ENDBRANCH   7  16
ENDBRANCH  10   7
BRANCH  11  14
ATOM     14  C   UNL     1      -3.081   2.297  23.198  0.00  0.00    +0.139 C 
BRANCH  14   8
ATOM      4  O   UNL     1      -1.062   0.786  24.557  0.00  0.00    -0.253 OA
ATOM      8  N   UNL     1      -1.821   1.873  22.661  0.00  0.00    -0.297 N 
ATOM      9  N   UNL     1       0.252   0.864  22.613  0.00  0.00    -0.269 N 
ATOM     20  C   UNL     1      -0.878   1.132  23.393  0.00  0.00    +0.304 C 
ATOM     35  H   UNL     1      -1.594   2.135  21.707  0.00  0.00    +0.150 HD
ATOM     37  H   UNL     1       0.244   1.224  21.662  0.00  0.00    +0.156 HD
BRANCH   9  25
ATOM     25  C   UNL     1       1.413   0.149  22.984  0.00  0.00    +0.042 A 
ATOM     27  C   UNL     1       1.308  -0.978  23.799  0.00  0.00    +0.069 A 
ATOM     28  C   UNL     1       2.666   0.568  22.533  0.00  0.00    +0.069 A 
ATOM     29  C   UNL     1       3.811  -0.139  22.899  0.00  0.00    +0.125 A 
ATOM     30  C   UNL     1       2.453  -1.685  24.165  0.00  0.00    +0.125 A 
ATOM     31  C   UNL     1       3.705  -1.265  23.715  0.00  0.00    +0.091 A 
BRANCH  29   5
ATOM      5  O   UNL     1       5.032   0.271  22.459  0.00  0.00    -0.495 OA
ATOM     32  C   UNL     1       6.151   0.000  23.302  0.00  0.00    +0.277 C 
ENDBRANCH  29   5
BRANCH  30   6
ATOM      6  O   UNL     1       2.350  -2.784  24.962  0.00  0.00    -0.495 OA
ATOM     33  C   UNL     1       1.059  -3.083  25.490  0.00  0.00    +0.277 C 
ENDBRANCH  30   6
ENDBRANCH   9  25
ENDBRANCH  14   8
ENDBRANCH  11  14
BRANCH  13  15
ATOM     15  C   UNL     1      -1.585   5.792  25.216  0.00  0.00    +0.190 C 
BRANCH  15   3
ATOM      3  O   UNL     1      -0.435   5.366  24.505  0.00  0.00    -0.392 OA
ATOM     36  H   UNL     1       0.325   5.463  25.104  0.00  0.00    +0.210 HD
ENDBRANCH  15   3
ENDBRANCH  13  15
TORSDOF 12
ENDMDL
