MODEL 1
REMARK VINA RESULT:      13.4      0.000      0.000
REMARK  Name = 11942809
REMARK  8 active torsions:
REMARK  status: ('A' for Active; 'I' for Inactive)
REMARK    1  A    between atoms: S_1  and  N_10
REMARK    2  A    between atoms: S_1  and  C_21
REMARK    3  A    between atoms: O_7  and  C_30
REMARK    4  A    between atoms: O_7  and  C_36
REMARK    5  A    between atoms: O_8  and  C_35
REMARK    6  A    between atoms: O_8  and  C_37
REMARK    7  A    between atoms: N_10  and  C_12
REMARK    8  A    between atoms: C_23  and  C_27
REMARK                            x       y       z     vdW  Elec       q    Type
REMARK                         _______ _______ _______ _____ _____    ______ ____
ROOT
ATOM      3  O   UNL     1      -4.175  -0.794  22.727  0.00  0.00    -0.273 OA
ATOM      4  O   UNL     1      -0.388   1.441  25.726  0.00  0.00    -0.270 OA
ATOM      9  N   UNL     1      -2.152   0.045  25.248  0.00  0.00    -0.284 N 
ATOM     11  N   UNL     1      -1.949  -0.512  22.356  0.00  0.00    -0.283 N 
ATOM     12  C   UNL     1      -4.341  -0.157  26.122  0.00  0.00    +0.096 C 
ATOM     13  C   UNL     1      -2.714  -1.130  24.615  0.00  0.00    +0.164 C 
ATOM     14  C   UNL     1      -3.944  -1.477  25.463  0.00  0.00    +0.054 C 
ATOM     15  C   UNL     1      -3.011   0.553  26.312  0.00  0.00    +0.129 C 
ATOM     16  C   UNL     1      -3.028  -0.759  23.178  0.00  0.00    +0.238 C 
ATOM     17  C   UNL     1      -0.880   0.539  25.047  0.00  0.00    +0.249 C 
ATOM     18  C   UNL     1      -0.068  -0.032  23.942  0.00  0.00    +0.059 A 
ATOM     19  C   UNL     1      -0.583  -0.417  22.694  0.00  0.00    +0.046 A 
ATOM     20  C   UNL     1       1.326  -0.014  24.138  0.00  0.00    +0.023 A 
ATOM     22  C   UNL     1       0.315  -0.708  21.652  0.00  0.00    +0.024 A 
ATOM     23  C   UNL     1       2.199  -0.353  23.106  0.00  0.00    -0.014 A 
ATOM     24  C   UNL     1       1.695  -0.688  21.858  0.00  0.00    +0.010 A 
ATOM     39  H   UNL     1      -2.161  -0.490  21.361  0.00  0.00    +0.155 HD
ENDROOT
BRANCH  23  27
ATOM     27  C   UNL     1       3.629  -0.333  23.329  0.00  0.00    +0.024 A 
ATOM     30  C   UNL     1       4.389   0.796  23.016  0.00  0.00    +0.131 A 
ATOM     31  C   UNL     1       4.250  -1.461  23.867  0.00  0.00    +0.016 A 
ATOM     33  C   UNL     1       5.766   0.795  23.240  0.00  0.00    +0.091 A 
ATOM     34  C   UNL     1       5.627  -1.462  24.090  0.00  0.00    +0.046 A 
ATOM     35  C   UNL     1       6.385  -0.334  23.777  0.00  0.00    +0.124 A 
BRANCH  30   7
ATOM      7  O   UNL     1       3.811   1.912  22.490  0.00  0.00    -0.494 OA
ATOM     36  C   UNL     1       2.572   2.329  23.059  0.00  0.00    +0.277 C 
ENDBRANCH  30   7
BRANCH  35   8
ATOM      8  O   UNL     1       7.728  -0.335  23.994  0.00  0.00    -0.495 OA
ATOM     37  C   UNL     1       8.571  -0.380  22.844  0.00  0.00    +0.277 C 
ENDBRANCH  35   8
ENDBRANCH  23  27
BRANCH  12  10
ATOM     10  N   UNL     1      -5.212   0.631  25.217  0.00  0.00    -0.185 NA
ATOM     38  H   UNL     1      -5.896   0.116  24.651  0.00  0.00    +0.148 HD
BRANCH  10   1
ATOM      1  S   UNL     1      -5.522   2.263  25.628  0.00  0.00    +0.059 S 
ATOM      5  O   UNL     1      -5.775   2.360  27.053  0.00  0.00    -0.153 OA
ATOM      6  O   UNL     1      -6.443   2.823  24.659  0.00  0.00    -0.153 OA
BRANCH   1  21
ATOM      2  F   UNL     1      -0.552   5.259  24.714  0.00  0.00    -0.205 F 
ATOM     21  C   UNL     1      -4.006   3.178  25.348  0.00  0.00    +0.105 A 
ATOM     25  C   UNL     1      -3.501   3.931  26.378  0.00  0.00    +0.031 A 
ATOM     26  C   UNL     1      -3.410   3.089  24.116  0.00  0.00    +0.031 A 
ATOM     28  C   UNL     1      -2.322   4.641  26.161  0.00  0.00    +0.040 A 
ATOM     29  C   UNL     1      -2.230   3.799  23.899  0.00  0.00    +0.040 A 
ATOM     32  C   UNL     1      -1.686   4.577  24.922  0.00  0.00    +0.124 A 
ENDBRANCH   1  21
ENDBRANCH  10   1
ENDBRANCH  12  10
TORSDOF 6
ENDMDL
MODEL 2
REMARK VINA RESULT:      14.2      0.859      1.498
REMARK  Name = 11942809
REMARK  8 active torsions:
REMARK  status: ('A' for Active; 'I' for Inactive)
REMARK    1  A    between atoms: S_1  and  N_10
REMARK    2  A    between atoms: S_1  and  C_21
REMARK    3  A    between atoms: O_7  and  C_30
REMARK    4  A    between atoms: O_7  and  C_36
REMARK    5  A    between atoms: O_8  and  C_35
REMARK    6  A    between atoms: O_8  and  C_37
REMARK    7  A    between atoms: N_10  and  C_12
REMARK    8  A    between atoms: C_23  and  C_27
REMARK                            x       y       z     vdW  Elec       q    Type
REMARK                         _______ _______ _______ _____ _____    ______ ____
ROOT
ATOM      3  O   UNL     1      -4.087  -0.838  22.757  0.00  0.00    -0.273 OA
ATOM      4  O   UNL     1      -0.439   1.763  25.629  0.00  0.00    -0.270 OA
ATOM      9  N   UNL     1      -2.096   0.222  25.219  0.00  0.00    -0.284 N 
ATOM     11  N   UNL     1      -1.898  -0.392  22.338  0.00  0.00    -0.283 N 
ATOM     12  C   UNL     1      -4.248  -0.127  26.138  0.00  0.00    +0.096 C 
ATOM     13  C   UNL     1      -2.574  -1.009  24.626  0.00  0.00    +0.164 C 
ATOM     14  C   UNL     1      -3.758  -1.429  25.505  0.00  0.00    +0.054 C 
ATOM     15  C   UNL     1      -2.974   0.689  26.285  0.00  0.00    +0.129 C 
ATOM     16  C   UNL     1      -2.940  -0.701  23.186  0.00  0.00    +0.238 C 
ATOM     17  C   UNL     1      -0.870   0.808  24.983  0.00  0.00    +0.249 C 
ATOM     18  C   UNL     1      -0.034   0.274  23.877  0.00  0.00    +0.059 A 
ATOM     19  C   UNL     1      -0.538  -0.182  22.649  0.00  0.00    +0.046 A 
ATOM     20  C   UNL     1       1.357   0.406  24.047  0.00  0.00    +0.023 A 
ATOM     22  C   UNL     1       0.363  -0.430  21.598  0.00  0.00    +0.024 A 
ATOM     23  C   UNL     1       2.237   0.109  23.007  0.00  0.00    -0.014 A 
ATOM     24  C   UNL     1       1.740  -0.296  21.777  0.00  0.00    +0.010 A 
ATOM     39  H   UNL     1      -2.127  -0.413  21.347  0.00  0.00    +0.155 HD
ENDROOT
BRANCH  23  27
ATOM     27  C   UNL     1       3.665   0.247  23.203  0.00  0.00    +0.024 A 
ATOM     30  C   UNL     1       4.434  -0.827  23.653  0.00  0.00    +0.131 A 
ATOM     31  C   UNL     1       4.274   1.474  22.936  0.00  0.00    +0.016 A 
ATOM     33  C   UNL     1       5.809  -0.674  23.835  0.00  0.00    +0.091 A 
ATOM     34  C   UNL     1       5.648   1.627  23.117  0.00  0.00    +0.046 A 
ATOM     35  C   UNL     1       6.416   0.553  23.566  0.00  0.00    +0.124 A 
BRANCH  30   7
ATOM      7  O   UNL     1       3.868  -2.037  23.924  0.00  0.00    -0.494 OA
ATOM     36  C   UNL     1       4.747  -3.092  24.306  0.00  0.00    +0.277 C 
ENDBRANCH  30   7
BRANCH  35   8
ATOM      8  O   UNL     1       7.757   0.702  23.745  0.00  0.00    -0.495 OA
ATOM     37  C   UNL     1       8.606  -0.261  23.122  0.00  0.00    +0.277 C 
ENDBRANCH  35   8
ENDBRANCH  23  27
BRANCH  12  10
ATOM     10  N   UNL     1      -5.192   0.567  25.230  0.00  0.00    -0.185 NA
ATOM     38  H   UNL     1      -5.846  -0.015  24.693  0.00  0.00    +0.148 HD
BRANCH  10   1
ATOM      1  S   UNL     1      -5.618   2.182  25.603  0.00  0.00    +0.059 S 
ATOM      5  O   UNL     1      -5.916   2.286  27.018  0.00  0.00    -0.153 OA
ATOM      6  O   UNL     1      -6.544   2.666  24.599  0.00  0.00    -0.153 OA
BRANCH   1  21
ATOM      2  F   UNL     1      -0.824   5.475  24.771  0.00  0.00    -0.205 F 
ATOM     21  C   UNL     1      -4.155   3.187  25.348  0.00  0.00    +0.105 A 
ATOM     25  C   UNL     1      -3.650   3.883  26.417  0.00  0.00    +0.031 A 
ATOM     26  C   UNL     1      -3.599   3.221  24.095  0.00  0.00    +0.031 A 
ATOM     28  C   UNL     1      -2.512   4.664  26.221  0.00  0.00    +0.040 A 
ATOM     29  C   UNL     1      -2.461   4.003  23.898  0.00  0.00    +0.040 A 
ATOM     32  C   UNL     1      -1.917   4.725  24.960  0.00  0.00    +0.124 A 
ENDBRANCH   1  21
ENDBRANCH  10   1
ENDBRANCH  12  10
TORSDOF 6
ENDMDL
MODEL 3
REMARK VINA RESULT:      14.5      2.265      3.983
REMARK  Name = 11942809
REMARK  8 active torsions:
REMARK  status: ('A' for Active; 'I' for Inactive)
REMARK    1  A    between atoms: S_1  and  N_10
REMARK    2  A    between atoms: S_1  and  C_21
REMARK    3  A    between atoms: O_7  and  C_30
REMARK    4  A    between atoms: O_7  and  C_36
REMARK    5  A    between atoms: O_8  and  C_35
REMARK    6  A    between atoms: O_8  and  C_37
REMARK    7  A    between atoms: N_10  and  C_12
REMARK    8  A    between atoms: C_23  and  C_27
REMARK                            x       y       z     vdW  Elec       q    Type
REMARK                         _______ _______ _______ _____ _____    ______ ____
ROOT
ATOM      3  O   UNL     1      -3.288   4.203  26.885  0.00  0.00    -0.273 OA
ATOM      4  O   UNL     1      -1.792   0.580  23.286  0.00  0.00    -0.270 OA
ATOM      9  N   UNL     1      -2.719   2.542  24.045  0.00  0.00    -0.284 N 
ATOM     11  N   UNL     1      -1.294   3.162  26.555  0.00  0.00    -0.283 N 
ATOM     12  C   UNL     1      -4.894   3.465  23.913  0.00  0.00    +0.096 C 
ATOM     13  C   UNL     1      -2.607   3.877  24.596  0.00  0.00    +0.164 C 
ATOM     14  C   UNL     1      -3.888   4.590  24.148  0.00  0.00    +0.054 C 
ATOM     15  C   UNL     1      -4.024   2.314  23.435  0.00  0.00    +0.129 C 
ATOM     16  C   UNL     1      -2.464   3.730  26.099  0.00  0.00    +0.238 C 
ATOM     17  C   UNL     1      -1.688   1.637  23.907  0.00  0.00    +0.249 C 
ATOM     18  C   UNL     1      -0.388   1.944  24.560  0.00  0.00    +0.059 A 
ATOM     19  C   UNL     1      -0.255   2.562  25.813  0.00  0.00    +0.046 A 
ATOM     20  C   UNL     1       0.751   1.414  23.926  0.00  0.00    +0.023 A 
ATOM     22  C   UNL     1       1.008   2.574  26.430  0.00  0.00    +0.024 A 
ATOM     23  C   UNL     1       2.004   1.478  24.534  0.00  0.00    -0.014 A 
ATOM     24  C   UNL     1       2.131   2.046  25.793  0.00  0.00    +0.010 A 
ATOM     39  H   UNL     1      -1.117   3.278  27.550  0.00  0.00    +0.155 HD
ENDROOT
BRANCH  23  27
ATOM     27  C   UNL     1       3.165   0.932  23.864  0.00  0.00    +0.024 A 
ATOM     30  C   UNL     1       3.075   0.432  22.564  0.00  0.00    +0.131 A 
ATOM     31  C   UNL     1       4.389   0.908  24.533  0.00  0.00    +0.016 A 
ATOM     33  C   UNL     1       4.206  -0.089  21.935  0.00  0.00    +0.091 A 
ATOM     34  C   UNL     1       5.520   0.387  23.905  0.00  0.00    +0.046 A 
ATOM     35  C   UNL     1       5.429  -0.111  22.606  0.00  0.00    +0.124 A 
BRANCH  30   7
ATOM      7  O   UNL     1       1.892   0.441  21.884  0.00  0.00    -0.494 OA
ATOM     36  C   UNL     1       1.296  -0.824  21.608  0.00  0.00    +0.277 C 
ENDBRANCH  30   7
BRANCH  35   8
ATOM      8  O   UNL     1       6.532  -0.621  21.993  0.00  0.00    -0.495 OA
ATOM     37  C   UNL     1       7.750  -0.610  22.736  0.00  0.00    +0.277 C 
ENDBRANCH  35   8
ENDBRANCH  23  27
BRANCH  12  10
ATOM     10  N   UNL     1      -5.566   3.098  25.183  0.00  0.00    -0.185 NA
ATOM     38  H   UNL     1      -5.871   3.863  25.794  0.00  0.00    +0.148 HD
BRANCH  10   1
ATOM      1  S   UNL     1      -6.380   1.594  25.250  0.00  0.00    +0.059 S 
ATOM      5  O   UNL     1      -7.206   1.441  24.067  0.00  0.00    -0.153 OA
ATOM      6  O   UNL     1      -6.927   1.417  26.580  0.00  0.00    -0.153 OA
BRANCH   1  21
ATOM      2  F   UNL     1      -2.296  -2.612  24.868  0.00  0.00    -0.205 F 
ATOM     21  C   UNL     1      -5.134   0.311  25.132  0.00  0.00    +0.105 A 
ATOM     25  C   UNL     1      -4.218   0.199  26.148  0.00  0.00    +0.031 A 
ATOM     26  C   UNL     1      -5.144  -0.508  24.032  0.00  0.00    +0.031 A 
ATOM     28  C   UNL     1      -3.249  -0.800  26.058  0.00  0.00    +0.040 A 
ATOM     29  C   UNL     1      -4.175  -1.506  23.942  0.00  0.00    +0.040 A 
ATOM     32  C   UNL     1      -3.227  -1.652  24.954  0.00  0.00    +0.124 A 
ENDBRANCH   1  21
ENDBRANCH  10   1
ENDBRANCH  12  10
TORSDOF 6
ENDMDL
