MODEL 1
REMARK VINA RESULT:      -1.7      0.000      0.000
REMARK  Name = 75536403
REMARK  10 active torsions:
REMARK  status: ('A' for Active; 'I' for Inactive)
REMARK    1  A    between atoms: O_2  and  C_8
REMARK    2  A    between atoms: O_4  and  C_24
REMARK    3  A    between atoms: O_4  and  C_25
REMARK    4  A    between atoms: N_5  and  C_12
REMARK    5  A    between atoms: N_5  and  C_15
REMARK    6  A    between atoms: N_5  and  C_16
REMARK    7  A    between atoms: C_7  and  C_12
REMARK    8  A    between atoms: C_9  and  C_13
REMARK    9  A    between atoms: C_13  and  C_14
REMARK   10  A    between atoms: C_18  and  C_19
REMARK                            x       y       z     vdW  Elec       q    Type
REMARK                         _______ _______ _______ _____ _____    ______ ____
ROOT
ATOM     13  C   UNL     1      -3.710   0.188  23.977  0.00  0.00    +0.090 C 
ENDROOT
BRANCH  13   9
ATOM      1  O   UNL     1      -3.918   2.544  24.264  0.00  0.00    -0.369 OA
ATOM      7  C   UNL     1      -4.159   3.715  25.055  0.00  0.00    +0.161 C 
ATOM      8  C   UNL     1      -5.510   3.636  25.775  0.00  0.00    +0.145 C 
ATOM      9  C   UNL     1      -3.992   1.306  24.974  0.00  0.00    +0.125 C 
ATOM     10  C   UNL     1      -5.697   2.315  26.516  0.00  0.00    +0.036 C 
ATOM     11  C   UNL     1      -5.370   1.130  25.612  0.00  0.00    +0.034 C 
BRANCH   8   2
ATOM      2  O   UNL     1      -6.557   3.744  24.805  0.00  0.00    -0.389 OA
ATOM     26  H   UNL     1      -7.116   2.953  24.887  0.00  0.00    +0.210 HD
ENDBRANCH   8   2
BRANCH   7  12
ATOM     12  C   UNL     1      -2.993   3.987  26.003  0.00  0.00    +0.118 C 
BRANCH  12   5
ATOM      5  N   UNL     1      -1.719   3.818  25.321  0.00  0.00    -0.306 NA
ATOM     15  C   UNL     1      -0.809   2.992  26.118  0.00  0.00    +0.104 C 
ATOM     16  C   UNL     1      -1.106   5.118  25.039  0.00  0.00    +0.104 C 
ENDBRANCH  12   5
ENDBRANCH   7  12
ENDBRANCH  13   9
BRANCH  13  14
ATOM      3  O   UNL     1      -0.479  -1.388  24.236  0.00  0.00    -0.354 OA
ATOM      6  N   UNL     1      -1.859  -1.378  24.402  0.00  0.00    -0.083 NA
ATOM     14  C   UNL     1      -2.252  -0.182  23.952  0.00  0.00    +0.087 A 
ATOM     17  C   UNL     1      -1.174   0.596  23.495  0.00  0.00    +0.076 A 
ATOM     18  C   UNL     1      -0.083  -0.207  23.696  0.00  0.00    +0.167 A 
BRANCH  18  19
ATOM     19  C   UNL     1       1.325  -0.069  23.463  0.00  0.00    +0.020 A 
ATOM     20  C   UNL     1       1.860   1.177  23.137  0.00  0.00    +0.015 A 
ATOM     21  C   UNL     1       2.160  -1.182  23.565  0.00  0.00    +0.015 A 
ATOM     22  C   UNL     1       3.231   1.310  22.912  0.00  0.00    +0.046 A 
ATOM     23  C   UNL     1       3.530  -1.049  23.338  0.00  0.00    +0.046 A 
ATOM     24  C   UNL     1       4.065   0.198  23.012  0.00  0.00    +0.120 A 
BRANCH  24   4
ATOM      4  O   UNL     1       5.403   0.328  22.795  0.00  0.00    -0.495 OA
ATOM     25  C   UNL     1       6.276  -0.254  23.760  0.00  0.00    +0.277 C 
ENDBRANCH  24   4
ENDBRANCH  18  19
ENDBRANCH  13  14
TORSDOF 7
ENDMDL
MODEL 2
REMARK VINA RESULT:      -0.2     15.998     17.682
REMARK  Name = 75536403
REMARK  10 active torsions:
REMARK  status: ('A' for Active; 'I' for Inactive)
REMARK    1  A    between atoms: O_2  and  C_8
REMARK    2  A    between atoms: O_4  and  C_24
REMARK    3  A    between atoms: O_4  and  C_25
REMARK    4  A    between atoms: N_5  and  C_12
REMARK    5  A    between atoms: N_5  and  C_15
REMARK    6  A    between atoms: N_5  and  C_16
REMARK    7  A    between atoms: C_7  and  C_12
REMARK    8  A    between atoms: C_9  and  C_13
REMARK    9  A    between atoms: C_13  and  C_14
REMARK   10  A    between atoms: C_18  and  C_19
REMARK                            x       y       z     vdW  Elec       q    Type
REMARK                         _______ _______ _______ _____ _____    ______ ____
ROOT
ATOM     13  C   UNL     1      -4.384 -10.781  11.831  0.00  0.00    +0.090 C 
ENDROOT
BRANCH  13   9
ATOM      1  O   UNL     1      -6.193  -9.386  11.155  0.00  0.00    -0.369 OA
ATOM      7  C   UNL     1      -7.301  -9.056  10.307  0.00  0.00    +0.161 C 
ATOM      8  C   UNL     1      -6.880  -9.009   8.833  0.00  0.00    +0.145 C 
ATOM      9  C   UNL     1      -5.518 -10.602  10.828  0.00  0.00    +0.125 C 
ATOM     10  C   UNL     1      -6.100 -10.251   8.411  0.00  0.00    +0.036 C 
ATOM     11  C   UNL     1      -4.976 -10.552   9.400  0.00  0.00    +0.034 C 
BRANCH   8   2
ATOM      2  O   UNL     1      -6.035  -7.873   8.629  0.00  0.00    -0.389 OA
ATOM     26  H   UNL     1      -5.940  -7.745   7.670  0.00  0.00    +0.210 HD
ENDBRANCH   8   2
BRANCH   7  12
ATOM     12  C   UNL     1      -8.483  -9.987  10.560  0.00  0.00    +0.118 C 
BRANCH  12   5
ATOM      5  N   UNL     1      -9.621  -9.620   9.731  0.00  0.00    -0.306 NA
ATOM     15  C   UNL     1     -10.180  -8.335  10.158  0.00  0.00    +0.104 C 
ATOM     16  C   UNL     1     -10.652 -10.658   9.775  0.00  0.00    +0.104 C 
ENDBRANCH  12   5
ENDBRANCH   7  12
ENDBRANCH  13   9
BRANCH  13  14
ATOM      3  O   UNL     1      -1.902  -8.689  10.264  0.00  0.00    -0.354 OA
ATOM      6  N   UNL     1      -3.126  -9.347  10.275  0.00  0.00    -0.083 NA
ATOM     14  C   UNL     1      -3.179  -9.958  11.463  0.00  0.00    +0.087 A 
ATOM     17  C   UNL     1      -2.029  -9.723  12.235  0.00  0.00    +0.076 A 
ATOM     18  C   UNL     1      -1.258  -8.921  11.436  0.00  0.00    +0.167 A 
BRANCH  18  19
ATOM     19  C   UNL     1       0.028  -8.300  11.574  0.00  0.00    +0.020 A 
ATOM     20  C   UNL     1       1.115  -8.777  10.842  0.00  0.00    +0.015 A 
ATOM     21  C   UNL     1       0.190  -7.218  12.439  0.00  0.00    +0.015 A 
ATOM     22  C   UNL     1       2.365  -8.172  10.975  0.00  0.00    +0.046 A 
ATOM     23  C   UNL     1       1.440  -6.614  12.573  0.00  0.00    +0.046 A 
ATOM     24  C   UNL     1       2.528  -7.091  11.840  0.00  0.00    +0.120 A 
BRANCH  24   4
ATOM      4  O   UNL     1       3.747  -6.499  11.969  0.00  0.00    -0.495 OA
ATOM     25  C   UNL     1       4.843  -7.342  12.319  0.00  0.00    +0.277 C 
ENDBRANCH  24   4
ENDBRANCH  18  19
ENDBRANCH  13  14
TORSDOF 7
ENDMDL
MODEL 3
REMARK VINA RESULT:       0.0      1.658      3.200
REMARK  Name = 75536403
REMARK  10 active torsions:
REMARK  status: ('A' for Active; 'I' for Inactive)
REMARK    1  A    between atoms: O_2  and  C_8
REMARK    2  A    between atoms: O_4  and  C_24
REMARK    3  A    between atoms: O_4  and  C_25
REMARK    4  A    between atoms: N_5  and  C_12
REMARK    5  A    between atoms: N_5  and  C_15
REMARK    6  A    between atoms: N_5  and  C_16
REMARK    7  A    between atoms: C_7  and  C_12
REMARK    8  A    between atoms: C_9  and  C_13
REMARK    9  A    between atoms: C_13  and  C_14
REMARK   10  A    between atoms: C_18  and  C_19
REMARK                            x       y       z     vdW  Elec       q    Type
REMARK                         _______ _______ _______ _____ _____    ______ ____
ROOT
ATOM     13  C   UNL     1      -2.039   3.048  24.551  0.00  0.00    +0.090 C 
ENDROOT
BRANCH  13   9
ATOM      1  O   UNL     1      -3.557   1.465  25.481  0.00  0.00    -0.369 OA
ATOM      7  C   UNL     1      -4.804   0.757  25.507  0.00  0.00    +0.161 C 
ATOM      8  C   UNL     1      -5.994   1.724  25.533  0.00  0.00    +0.145 C 
ATOM      9  C   UNL     1      -3.414   2.404  24.413  0.00  0.00    +0.125 C 
ATOM     10  C   UNL     1      -5.892   2.800  24.456  0.00  0.00    +0.036 C 
ATOM     11  C   UNL     1      -4.516   3.460  24.471  0.00  0.00    +0.034 C 
BRANCH   8   2
ATOM      2  O   UNL     1      -6.028   2.380  26.803  0.00  0.00    -0.389 OA
ATOM     26  H   UNL     1      -5.438   1.893  27.402  0.00  0.00    +0.210 HD
ENDBRANCH   8   2
BRANCH   7  12
ATOM     12  C   UNL     1      -4.884  -0.257  24.369  0.00  0.00    +0.118 C 
BRANCH  12   5
ATOM      5  N   UNL     1      -3.785  -1.208  24.442  0.00  0.00    -0.306 NA
ATOM     15  C   UNL     1      -4.151  -2.474  23.804  0.00  0.00    +0.104 C 
ATOM     16  C   UNL     1      -3.390  -1.438  25.833  0.00  0.00    +0.104 C 
ENDBRANCH  12   5
ENDBRANCH   7  12
ENDBRANCH  13   9
BRANCH  13  14
ATOM      3  O   UNL     1      -0.027   0.411  23.141  0.00  0.00    -0.354 OA
ATOM      6  N   UNL     1      -1.250   1.010  23.419  0.00  0.00    -0.083 NA
ATOM     14  C   UNL     1      -0.944   2.129  24.082  0.00  0.00    +0.087 A 
ATOM     17  C   UNL     1       0.443   2.287  24.249  0.00  0.00    +0.076 A 
ATOM     18  C   UNL     1       0.973   1.181  23.641  0.00  0.00    +0.167 A 
BRANCH  18  19
ATOM     19  C   UNL     1       2.304   0.688  23.428  0.00  0.00    +0.020 A 
ATOM     20  C   UNL     1       2.595  -0.656  23.657  0.00  0.00    +0.015 A 
ATOM     21  C   UNL     1       3.306   1.555  22.992  0.00  0.00    +0.015 A 
ATOM     22  C   UNL     1       3.888  -1.135  23.449  0.00  0.00    +0.046 A 
ATOM     23  C   UNL     1       4.599   1.077  22.785  0.00  0.00    +0.046 A 
ATOM     24  C   UNL     1       4.891  -0.269  23.013  0.00  0.00    +0.120 A 
BRANCH  24   4
ATOM      4  O   UNL     1       6.153  -0.736  22.808  0.00  0.00    -0.495 OA
ATOM     25  C   UNL     1       7.206  -0.097  23.528  0.00  0.00    +0.277 C 
ENDBRANCH  24   4
ENDBRANCH  18  19
ENDBRANCH  13  14
TORSDOF 7
ENDMDL
MODEL 4
REMARK VINA RESULT:       0.2      1.764      3.465
REMARK  Name = 75536403
REMARK  10 active torsions:
REMARK  status: ('A' for Active; 'I' for Inactive)
REMARK    1  A    between atoms: O_2  and  C_8
REMARK    2  A    between atoms: O_4  and  C_24
REMARK    3  A    between atoms: O_4  and  C_25
REMARK    4  A    between atoms: N_5  and  C_12
REMARK    5  A    between atoms: N_5  and  C_15
REMARK    6  A    between atoms: N_5  and  C_16
REMARK    7  A    between atoms: C_7  and  C_12
REMARK    8  A    between atoms: C_9  and  C_13
REMARK    9  A    between atoms: C_13  and  C_14
REMARK   10  A    between atoms: C_18  and  C_19
REMARK                            x       y       z     vdW  Elec       q    Type
REMARK                         _______ _______ _______ _____ _____    ______ ____
ROOT
ATOM     13  C   UNL     1      -3.374   4.102  24.632  0.00  0.00    +0.090 C 
ENDROOT
BRANCH  13   9
ATOM      1  O   UNL     1      -3.991   1.966  25.489  0.00  0.00    -0.369 OA
ATOM      7  C   UNL     1      -4.845   0.816  25.553  0.00  0.00    +0.161 C 
ATOM      8  C   UNL     1      -6.296   1.213  25.848  0.00  0.00    +0.145 C 
ATOM      9  C   UNL     1      -4.394   2.972  24.557  0.00  0.00    +0.125 C 
ATOM     10  C   UNL     1      -6.792   2.328  24.930  0.00  0.00    +0.036 C 
ATOM     11  C   UNL     1      -5.796   3.483  24.887  0.00  0.00    +0.034 C 
BRANCH   8   2
ATOM      2  O   UNL     1      -6.380   1.688  27.194  0.00  0.00    -0.389 OA
ATOM     26  H   UNL     1      -5.484   1.939  27.474  0.00  0.00    +0.210 HD
ENDBRANCH   8   2
BRANCH   7  12
ATOM     12  C   UNL     1      -4.704  -0.042  24.297  0.00  0.00    +0.118 C 
BRANCH  12   5
ATOM      5  N   UNL     1      -3.695  -1.073  24.483  0.00  0.00    -0.306 NA
ATOM     15  C   UNL     1      -4.142  -2.345  23.910  0.00  0.00    +0.104 C 
ATOM     16  C   UNL     1      -3.382  -1.242  25.904  0.00  0.00    +0.104 C 
ENDBRANCH  12   5
ENDBRANCH   7  12
ENDBRANCH  13   9
BRANCH  13  14
ATOM      3  O   UNL     1       0.185   3.548  24.757  0.00  0.00    -0.354 OA
ATOM      6  N   UNL     1      -0.953   4.297  25.030  0.00  0.00    -0.083 NA
ATOM     14  C   UNL     1      -1.964   3.588  24.520  0.00  0.00    +0.087 A 
ATOM     17  C   UNL     1      -1.528   2.394  23.919  0.00  0.00    +0.076 A 
ATOM     18  C   UNL     1      -0.170   2.418  24.095  0.00  0.00    +0.167 A 
BRANCH  18  19
ATOM     19  C   UNL     1       0.907   1.537  23.744  0.00  0.00    +0.020 A 
ATOM     20  C   UNL     1       2.169   2.057  23.458  0.00  0.00    +0.015 A 
ATOM     21  C   UNL     1       0.690   0.160  23.689  0.00  0.00    +0.015 A 
ATOM     22  C   UNL     1       3.215   1.200  23.118  0.00  0.00    +0.046 A 
ATOM     23  C   UNL     1       1.737  -0.697  23.348  0.00  0.00    +0.046 A 
ATOM     24  C   UNL     1       3.000  -0.177  23.063  0.00  0.00    +0.120 A 
BRANCH  24   4
ATOM      4  O   UNL     1       4.021  -1.014  22.733  0.00  0.00    -0.495 OA
ATOM     25  C   UNL     1       5.042  -1.207  23.710  0.00  0.00    +0.277 C 
ENDBRANCH  24   4
ENDBRANCH  18  19
ENDBRANCH  13  14
TORSDOF 7
ENDMDL
