MODEL 1
REMARK VINA RESULT:      21.3      0.000      0.000
REMARK  Name = 7674792
REMARK  4 active torsions:
REMARK  status: ('A' for Active; 'I' for Inactive)
REMARK    1  A    between atoms: O_3  and  C_27
REMARK    2  A    between atoms: O_3  and  C_35
REMARK    3  A    between atoms: N_6  and  C_23
REMARK    4  A    between atoms: C_14  and  C_19
REMARK                            x       y       z     vdW  Elec       q    Type
REMARK                         _______ _______ _______ _____ _____    ______ ____
ROOT
ATOM      1  O   UNL     1      -2.310   3.678  27.799  0.00  0.00    -0.268 OA
ATOM      2  O   UNL     1      -5.001   1.087  24.382  0.00  0.00    -0.252 OA
ATOM      4  N   UNL     1      -1.631   3.382  25.578  0.00  0.00    -0.311 N 
ATOM      5  N   UNL     1      -3.204   1.988  23.242  0.00  0.00    -0.284 N 
ATOM      6  N   UNL     1      -3.157  -0.256  23.962  0.00  0.00    -0.266 N 
ATOM      7  C   UNL     1      -2.934   4.422  23.627  0.00  0.00    +0.027 C 
ATOM      8  C   UNL     1      -0.953   3.028  23.183  0.00  0.00    +0.054 C 
ATOM      9  C   UNL     1      -1.591   4.391  22.910  0.00  0.00    +0.018 C 
ATOM     10  C   UNL     1      -2.674   4.318  25.132  0.00  0.00    +0.130 C 
ATOM     11  C   UNL     1      -3.852   3.294  23.122  0.00  0.00    +0.114 C 
ATOM     12  C   UNL     1      -1.871   1.922  22.624  0.00  0.00    +0.119 C 
ATOM     13  C   UNL     1      -0.709   2.809  24.677  0.00  0.00    +0.034 A 
ATOM     14  C   UNL     1       0.328   2.070  25.150  0.00  0.00    +0.002 A 
ATOM     15  C   UNL     1      -1.543   3.191  26.968  0.00  0.00    +0.252 A 
ATOM     16  C   UNL     1      -3.880   0.933  23.891  0.00  0.00    +0.307 C 
ATOM     17  C   UNL     1       0.447   1.848  26.578  0.00  0.00    +0.015 A 
ATOM     18  C   UNL     1      -0.425   2.350  27.452  0.00  0.00    +0.071 A 
ATOM     36  H   UNL     1      -2.145  -0.207  23.958  0.00  0.00    +0.156 HD
ENDROOT
BRANCH  14  19
ATOM     19  C   UNL     1       1.331   1.469  24.244  0.00  0.00    -0.016 A 
ATOM     20  C   UNL     1       2.673   1.447  24.616  0.00  0.00    +0.017 A 
ATOM     21  C   UNL     1       0.928   0.931  23.029  0.00  0.00    +0.009 A 
ATOM     22  C   UNL     1       3.637   0.879  23.767  0.00  0.00    -0.017 A 
ATOM     24  C   UNL     1       1.873   0.363  22.173  0.00  0.00    +0.009 A 
ATOM     25  C   UNL     1       3.231   0.330  22.527  0.00  0.00    -0.018 A 
ATOM     26  C   UNL     1       4.997   0.846  24.120  0.00  0.00    +0.008 A 
ATOM     29  C   UNL     1       4.196  -0.237  21.678  0.00  0.00    +0.008 A 
ATOM     30  C   UNL     1       5.941   0.279  23.265  0.00  0.00    +0.001 A 
ATOM     31  C   UNL     1       5.541  -0.262  22.046  0.00  0.00    +0.001 A 
ENDBRANCH  14  19
BRANCH   6  23
ATOM     23  C   UNL     1      -3.675  -1.569  24.090  0.00  0.00    +0.077 A 
ATOM     27  C   UNL     1      -3.091  -2.478  24.968  0.00  0.00    +0.141 A 
ATOM     28  C   UNL     1      -4.781  -1.940  23.328  0.00  0.00    +0.027 A 
ATOM     32  C   UNL     1      -3.614  -3.766  25.084  0.00  0.00    +0.047 A 
ATOM     33  C   UNL     1      -5.303  -3.228  23.444  0.00  0.00    +0.002 A 
ATOM     34  C   UNL     1      -4.720  -4.141  24.323  0.00  0.00    +0.004 A 
BRANCH  27   3
ATOM      3  O   UNL     1      -2.008  -2.131  25.721  0.00  0.00    -0.493 OA
ATOM     35  C   UNL     1      -0.824  -1.762  25.018  0.00  0.00    +0.277 C 
ENDBRANCH  27   3
ENDBRANCH   6  23
TORSDOF 3
ENDMDL
MODEL 2
REMARK VINA RESULT:      23.5      2.629      3.985
REMARK  Name = 7674792
REMARK  4 active torsions:
REMARK  status: ('A' for Active; 'I' for Inactive)
REMARK    1  A    between atoms: O_3  and  C_27
REMARK    2  A    between atoms: O_3  and  C_35
REMARK    3  A    between atoms: N_6  and  C_23
REMARK    4  A    between atoms: C_14  and  C_19
REMARK                            x       y       z     vdW  Elec       q    Type
REMARK                         _______ _______ _______ _____ _____    ______ ____
ROOT
ATOM      1  O   UNL     1      -6.024   4.297  25.429  0.00  0.00    -0.268 OA
ATOM      2  O   UNL     1      -4.222   0.604  22.471  0.00  0.00    -0.252 OA
ATOM      4  N   UNL     1      -3.756   4.063  24.895  0.00  0.00    -0.311 N 
ATOM      5  N   UNL     1      -2.431   1.986  22.945  0.00  0.00    -0.284 N 
ATOM      6  N   UNL     1      -2.750  -0.013  24.154  0.00  0.00    -0.266 N 
ATOM      7  C   UNL     1      -2.905   4.377  22.494  0.00  0.00    +0.027 C 
ATOM      8  C   UNL     1      -1.335   3.759  24.289  0.00  0.00    +0.054 C 
ATOM      9  C   UNL     1      -1.596   4.768  23.169  0.00  0.00    +0.018 C 
ATOM     10  C   UNL     1      -4.031   4.513  23.522  0.00  0.00    +0.130 C 
ATOM     11  C   UNL     1      -2.821   2.952  21.918  0.00  0.00    +0.114 C 
ATOM     12  C   UNL     1      -1.208   2.350  23.676  0.00  0.00    +0.119 C 
ATOM     13  C   UNL     1      -2.447   3.782  25.339  0.00  0.00    +0.034 A 
ATOM     14  C   UNL     1      -2.222   3.515  26.652  0.00  0.00    +0.002 A 
ATOM     15  C   UNL     1      -4.865   4.046  25.760  0.00  0.00    +0.252 A 
ATOM     16  C   UNL     1      -3.207   0.823  23.136  0.00  0.00    +0.307 C 
ATOM     17  C   UNL     1      -3.342   3.484  27.572  0.00  0.00    +0.015 A 
ATOM     18  C   UNL     1      -4.594   3.715  27.177  0.00  0.00    +0.071 A 
ATOM     36  H   UNL     1      -2.227   0.398  24.918  0.00  0.00    +0.156 HD
ENDROOT
BRANCH  14  19
ATOM     19  C   UNL     1      -0.863   3.237  27.166  0.00  0.00    -0.016 A 
ATOM     20  C   UNL     1      -0.687   2.895  28.504  0.00  0.00    +0.017 A 
ATOM     21  C   UNL     1       0.228   3.319  26.311  0.00  0.00    +0.009 A 
ATOM     22  C   UNL     1       0.597   2.627  29.008  0.00  0.00    -0.017 A 
ATOM     24  C   UNL     1       1.511   3.057  26.794  0.00  0.00    +0.009 A 
ATOM     25  C   UNL     1       1.712   2.710  28.139  0.00  0.00    -0.018 A 
ATOM     26  C   UNL     1       0.799   2.280  30.354  0.00  0.00    +0.008 A 
ATOM     29  C   UNL     1       2.995   2.443  28.643  0.00  0.00    +0.008 A 
ATOM     30  C   UNL     1       2.081   2.018  30.837  0.00  0.00    +0.001 A 
ATOM     31  C   UNL     1       3.177   2.100  29.983  0.00  0.00    +0.001 A 
ENDBRANCH  14  19
BRANCH   6  23
ATOM     23  C   UNL     1      -2.973  -1.406  24.285  0.00  0.00    +0.077 A 
ATOM     27  C   UNL     1      -1.985  -2.235  24.808  0.00  0.00    +0.141 A 
ATOM     28  C   UNL     1      -4.197  -1.939  23.883  0.00  0.00    +0.027 A 
ATOM     32  C   UNL     1      -2.220  -3.605  24.931  0.00  0.00    +0.047 A 
ATOM     33  C   UNL     1      -4.431  -3.308  24.006  0.00  0.00    +0.002 A 
ATOM     34  C   UNL     1      -3.443  -4.141  24.531  0.00  0.00    +0.004 A 
BRANCH  27   3
ATOM      3  O   UNL     1      -0.781  -1.731  25.204  0.00  0.00    -0.493 OA
ATOM     35  C   UNL     1      -0.000  -1.068  24.212  0.00  0.00    +0.277 C 
ENDBRANCH  27   3
ENDBRANCH   6  23
TORSDOF 3
ENDMDL
MODEL 3
REMARK VINA RESULT:      24.5      1.908      5.187
REMARK  Name = 7674792
REMARK  4 active torsions:
REMARK  status: ('A' for Active; 'I' for Inactive)
REMARK    1  A    between atoms: O_3  and  C_27
REMARK    2  A    between atoms: O_3  and  C_35
REMARK    3  A    between atoms: N_6  and  C_23
REMARK    4  A    between atoms: C_14  and  C_19
REMARK                            x       y       z     vdW  Elec       q    Type
REMARK                         _______ _______ _______ _____ _____    ______ ____
ROOT
ATOM      1  O   UNL     1      -3.746  -3.828  23.878  0.00  0.00    -0.268 OA
ATOM      2  O   UNL     1      -4.802   1.026  24.860  0.00  0.00    -0.252 OA
ATOM      4  N   UNL     1      -2.224  -2.352  24.873  0.00  0.00    -0.311 N 
ATOM      5  N   UNL     1      -2.706   0.626  25.749  0.00  0.00    -0.284 N 
ATOM      6  N   UNL     1      -2.932   1.669  23.646  0.00  0.00    -0.266 N 
ATOM      7  C   UNL     1      -2.637  -1.375  27.210  0.00  0.00    +0.027 C 
ATOM      8  C   UNL     1      -0.633  -0.722  25.937  0.00  0.00    +0.054 C 
ATOM      9  C   UNL     1      -1.119  -1.281  27.275  0.00  0.00    +0.018 C 
ATOM     10  C   UNL     1      -3.007  -2.382  26.118  0.00  0.00    +0.130 C 
ATOM     11  C   UNL     1      -3.263   0.008  26.952  0.00  0.00    +0.114 C 
ATOM     12  C   UNL     1      -1.236   0.682  25.729  0.00  0.00    +0.119 C 
ATOM     13  C   UNL     1      -1.011  -1.639  24.772  0.00  0.00    +0.034 A 
ATOM     14  C   UNL     1      -0.247  -1.760  23.656  0.00  0.00    +0.002 A 
ATOM     15  C   UNL     1      -2.704  -3.173  23.837  0.00  0.00    +0.252 A 
ATOM     16  C   UNL     1      -3.576   1.119  24.754  0.00  0.00    +0.307 C 
ATOM     17  C   UNL     1      -0.714  -2.594  22.565  0.00  0.00    +0.015 A 
ATOM     18  C   UNL     1      -1.870  -3.256  22.618  0.00  0.00    +0.071 A 
ATOM     36  H   UNL     1      -2.006   1.333  23.411  0.00  0.00    +0.156 HD
ENDROOT
BRANCH  14  19
ATOM     19  C   UNL     1       1.042  -1.049  23.515  0.00  0.00    -0.016 A 
ATOM     20  C   UNL     1       2.228  -1.697  23.848  0.00  0.00    +0.017 A 
ATOM     21  C   UNL     1       1.060   0.260  23.052  0.00  0.00    +0.009 A 
ATOM     22  C   UNL     1       3.461  -1.035  23.719  0.00  0.00    -0.017 A 
ATOM     24  C   UNL     1       2.275   0.933  22.919  0.00  0.00    +0.009 A 
ATOM     25  C   UNL     1       3.484   0.300  23.248  0.00  0.00    -0.018 A 
ATOM     26  C   UNL     1       4.671  -1.668  24.049  0.00  0.00    +0.008 A 
ATOM     29  C   UNL     1       4.716   0.961  23.120  0.00  0.00    +0.008 A 
ATOM     30  C   UNL     1       5.886  -0.996  23.915  0.00  0.00    +0.001 A 
ATOM     31  C   UNL     1       5.908   0.317  23.452  0.00  0.00    +0.001 A 
ENDBRANCH  14  19
BRANCH   6  23
ATOM     23  C   UNL     1      -3.447   2.636  22.748  0.00  0.00    +0.077 A 
ATOM     27  C   UNL     1      -3.965   3.838  23.223  0.00  0.00    +0.141 A 
ATOM     28  C   UNL     1      -3.426   2.372  21.380  0.00  0.00    +0.027 A 
ATOM     32  C   UNL     1      -4.467   4.781  22.325  0.00  0.00    +0.047 A 
ATOM     33  C   UNL     1      -3.928   3.315  20.483  0.00  0.00    +0.002 A 
ATOM     34  C   UNL     1      -4.448   4.519  20.956  0.00  0.00    +0.004 A 
BRANCH  27   3
ATOM      3  O   UNL     1      -3.994   4.112  24.558  0.00  0.00    -0.493 OA
ATOM     35  C   UNL     1      -2.779   4.566  25.151  0.00  0.00    +0.277 C 
ENDBRANCH  27   3
ENDBRANCH   6  23
TORSDOF 3
ENDMDL
