MODEL 1
REMARK VINA RESULT:      -4.1      0.000      0.000
REMARK  Name = 75537123
REMARK  2 active torsions:
REMARK  status: ('A' for Active; 'I' for Inactive)
REMARK    1  A    between atoms: N_2  and  C_6
REMARK    2  A    between atoms: N_4  and  C_11
REMARK                            x       y       z     vdW  Elec       q    Type
REMARK                         _______ _______ _______ _____ _____    ______ ____
ROOT
ATOM      1  O   UNL     1      -6.465  -9.886  16.633  0.00  0.00    -0.252 OA
ATOM      2  N   UNL     1      -4.440 -10.624  12.042  0.00  0.00    -0.296 NA
ATOM      3  N   UNL     1      -5.898 -10.506  14.440  0.00  0.00    -0.278 N 
ATOM      4  N   UNL     1      -8.036  -9.973  14.875  0.00  0.00    -0.281 N 
ATOM      5  C   UNL     1      -6.601 -10.781  13.203  0.00  0.00    +0.109 C 
ATOM      7  C   UNL     1      -5.848 -10.177  12.019  0.00  0.00    +0.108 C 
ATOM      8  C   UNL     1      -7.994 -10.203  13.441  0.00  0.00    +0.133 C 
ATOM     12  C   UNL     1      -3.770 -10.194  13.285  0.00  0.00    +0.104 C 
ATOM     13  C   UNL     1      -4.475 -10.763  14.519  0.00  0.00    +0.125 C 
ATOM     15  C   UNL     1      -6.762 -10.099  15.465  0.00  0.00    +0.305 C 
ENDROOT
BRANCH   4  11
ATOM     11  C   UNL     1      -9.234  -9.527  15.543  0.00  0.00    +0.078 C 
ATOM     16  C   UNL     1      -9.213  -8.008  15.729  0.00  0.00    +0.022 C 
ATOM     17  C   UNL     1      -9.410 -10.250  16.880  0.00  0.00    +0.022 C 
ATOM     18  C   UNL     1     -10.447  -7.516  16.481  0.00  0.00    +0.002 C 
ATOM     19  C   UNL     1     -10.645  -9.754  17.629  0.00  0.00    +0.002 C 
ATOM     20  C   UNL     1     -10.621  -8.241  17.813  0.00  0.00    +0.000 C 
ENDBRANCH   4  11
BRANCH   2   6
ATOM      6  C   UNL     1      -3.739 -10.055  10.900  0.00  0.00    +0.057 C 
ATOM      9  C   UNL     1      -4.427  -8.735  10.486  0.00  0.00    +0.019 C 
ATOM     10  C   UNL     1      -4.300 -10.670   9.600  0.00  0.00    +0.019 C 
ATOM     14  C   UNL     1      -4.308  -9.233   9.027  0.00  0.00    +0.003 C 
ENDBRANCH   2   6
TORSDOF 2
ENDMDL
MODEL 2
REMARK VINA RESULT:      -3.7      2.393      3.322
REMARK  Name = 75537123
REMARK  2 active torsions:
REMARK  status: ('A' for Active; 'I' for Inactive)
REMARK    1  A    between atoms: N_2  and  C_6
REMARK    2  A    between atoms: N_4  and  C_11
REMARK                            x       y       z     vdW  Elec       q    Type
REMARK                         _______ _______ _______ _____ _____    ______ ____
ROOT
ATOM      1  O   UNL     1      -2.776 -10.356  15.112  0.00  0.00    -0.252 OA
ATOM      2  N   UNL     1      -4.331  -9.755  10.323  0.00  0.00    -0.296 NA
ATOM      3  N   UNL     1      -3.765 -10.451  12.984  0.00  0.00    -0.278 N 
ATOM      4  N   UNL     1      -5.084 -10.713  14.783  0.00  0.00    -0.281 N 
ATOM      5  C   UNL     1      -5.068 -10.770  12.437  0.00  0.00    +0.109 C 
ATOM      7  C   UNL     1      -5.425  -9.796  11.314  0.00  0.00    +0.108 C 
ATOM      8  C   UNL     1      -5.994 -10.719  13.650  0.00  0.00    +0.133 C 
ATOM     12  C   UNL     1      -3.071  -9.303  10.945  0.00  0.00    +0.104 C 
ATOM     13  C   UNL     1      -2.651 -10.234  12.085  0.00  0.00    +0.125 C 
ATOM     15  C   UNL     1      -3.751 -10.493  14.385  0.00  0.00    +0.305 C 
ENDROOT
BRANCH   4  11
ATOM     11  C   UNL     1      -5.558 -10.781  16.144  0.00  0.00    +0.078 C 
ATOM     16  C   UNL     1      -6.555  -9.654  16.423  0.00  0.00    +0.022 C 
ATOM     17  C   UNL     1      -4.386 -10.745  17.128  0.00  0.00    +0.022 C 
ATOM     18  C   UNL     1      -7.032  -9.670  17.873  0.00  0.00    +0.002 C 
ATOM     19  C   UNL     1      -4.868 -10.762  18.577  0.00  0.00    +0.002 C 
ATOM     20  C   UNL     1      -5.862  -9.638  18.852  0.00  0.00    +0.000 C 
ENDBRANCH   4  11
BRANCH   2   6
ATOM      6  C   UNL     1      -4.692  -8.837   9.251  0.00  0.00    +0.057 C 
ATOM      9  C   UNL     1      -5.877  -7.959   9.710  0.00  0.00    +0.019 C 
ATOM     10  C   UNL     1      -5.677  -9.537   8.291  0.00  0.00    +0.019 C 
ATOM     14  C   UNL     1      -6.500  -8.228   8.322  0.00  0.00    +0.003 C 
ENDBRANCH   2   6
TORSDOF 2
ENDMDL
MODEL 3
REMARK VINA RESULT:      -3.6      3.294      5.302
REMARK  Name = 75537123
REMARK  2 active torsions:
REMARK  status: ('A' for Active; 'I' for Inactive)
REMARK    1  A    between atoms: N_2  and  C_6
REMARK    2  A    between atoms: N_4  and  C_11
REMARK                            x       y       z     vdW  Elec       q    Type
REMARK                         _______ _______ _______ _____ _____    ______ ____
ROOT
ATOM      1  O   UNL     1      -3.714  -9.916  11.286  0.00  0.00    -0.252 OA
ATOM      2  N   UNL     1      -7.889  -8.905   8.589  0.00  0.00    -0.296 NA
ATOM      3  N   UNL     1      -5.800  -9.857  10.208  0.00  0.00    -0.278 N 
ATOM      4  N   UNL     1      -5.734 -10.484  12.363  0.00  0.00    -0.281 N 
ATOM      5  C   UNL     1      -7.160 -10.248  10.514  0.00  0.00    +0.109 C 
ATOM      7  C   UNL     1      -8.143  -9.189  10.016  0.00  0.00    +0.108 C 
ATOM      8  C   UNL     1      -7.147 -10.451  12.028  0.00  0.00    +0.133 C 
ATOM     12  C   UNL     1      -6.518  -8.396   8.389  0.00  0.00    +0.104 C 
ATOM     13  C   UNL     1      -5.475  -9.408   8.869  0.00  0.00    +0.125 C 
ATOM     15  C   UNL     1      -4.928 -10.069  11.284  0.00  0.00    +0.305 C 
ENDROOT
BRANCH   4  11
ATOM     11  C   UNL     1      -5.272 -10.771  13.699  0.00  0.00    +0.078 C 
ATOM     16  C   UNL     1      -6.081  -9.981  14.730  0.00  0.00    +0.022 C 
ATOM     17  C   UNL     1      -3.773 -10.485  13.828  0.00  0.00    +0.022 C 
ATOM     18  C   UNL     1      -5.577 -10.227  16.150  0.00  0.00    +0.002 C 
ATOM     19  C   UNL     1      -3.274 -10.732  15.249  0.00  0.00    +0.002 C 
ATOM     20  C   UNL     1      -4.083  -9.943  16.274  0.00  0.00    +0.000 C 
ENDBRANCH   4  11
BRANCH   2   6
ATOM      6  C   UNL     1      -8.842  -7.907   8.124  0.00  0.00    +0.057 C 
ATOM      9  C   UNL     1      -8.261  -6.496   8.367  0.00  0.00    +0.019 C 
ATOM     10  C   UNL     1      -9.854  -7.605   9.250  0.00  0.00    +0.019 C 
ATOM     14  C   UNL     1      -9.658  -6.110   8.905  0.00  0.00    +0.003 C 
ENDBRANCH   2   6
TORSDOF 2
ENDMDL
MODEL 4
REMARK VINA RESULT:      -3.4      1.769      2.209
REMARK  Name = 75537123
REMARK  2 active torsions:
REMARK  status: ('A' for Active; 'I' for Inactive)
REMARK    1  A    between atoms: N_2  and  C_6
REMARK    2  A    between atoms: N_4  and  C_11
REMARK                            x       y       z     vdW  Elec       q    Type
REMARK                         _______ _______ _______ _____ _____    ______ ____
ROOT
ATOM      1  O   UNL     1      -5.379  -9.830  15.253  0.00  0.00    -0.252 OA
ATOM      2  N   UNL     1      -5.869  -9.977  10.208  0.00  0.00    -0.296 NA
ATOM      3  N   UNL     1      -5.865 -10.280  13.000  0.00  0.00    -0.278 N 
ATOM      4  N   UNL     1      -7.531 -10.433  14.498  0.00  0.00    -0.281 N 
ATOM      5  C   UNL     1      -6.992 -10.781  12.240  0.00  0.00    +0.109 C 
ATOM      7  C   UNL     1      -7.151  -9.992  10.941  0.00  0.00    +0.108 C 
ATOM      8  C   UNL     1      -8.165 -10.663  13.211  0.00  0.00    +0.133 C 
ATOM     12  C   UNL     1      -4.808  -9.338  11.011  0.00  0.00    +0.104 C 
ATOM     13  C   UNL     1      -4.595 -10.077  12.334  0.00  0.00    +0.125 C 
ATOM     15  C   UNL     1      -6.159 -10.145  14.363  0.00  0.00    +0.305 C 
ENDROOT
BRANCH   4  11
ATOM     11  C   UNL     1      -8.290 -10.373  15.724  0.00  0.00    +0.078 C 
ATOM     16  C   UNL     1      -9.777 -10.605  15.447  0.00  0.00    +0.022 C 
ATOM     17  C   UNL     1      -8.057  -9.040  16.440  0.00  0.00    +0.022 C 
ATOM     18  C   UNL     1     -10.610 -10.494  16.722  0.00  0.00    +0.002 C 
ATOM     19  C   UNL     1      -8.893  -8.933  17.713  0.00  0.00    +0.002 C 
ATOM     20  C   UNL     1     -10.374  -9.166  17.435  0.00  0.00    +0.000 C 
ENDBRANCH   4  11
BRANCH   2   6
ATOM      6  C   UNL     1      -6.039  -9.236   8.965  0.00  0.00    +0.057 C 
ATOM      9  C   UNL     1      -6.488  -7.794   9.289  0.00  0.00    +0.019 C 
ATOM     10  C   UNL     1      -7.462  -9.478   8.418  0.00  0.00    +0.019 C 
ATOM     14  C   UNL     1      -7.525  -7.956   8.155  0.00  0.00    +0.003 C 
ENDBRANCH   2   6
TORSDOF 2
ENDMDL
MODEL 5
REMARK VINA RESULT:      -3.0     15.088     17.375
REMARK  Name = 75537123
REMARK  2 active torsions:
REMARK  status: ('A' for Active; 'I' for Inactive)
REMARK    1  A    between atoms: N_2  and  C_6
REMARK    2  A    between atoms: N_4  and  C_11
REMARK                            x       y       z     vdW  Elec       q    Type
REMARK                         _______ _______ _______ _____ _____    ______ ____
ROOT
ATOM      1  O   UNL     1      -0.178  -1.917  23.554  0.00  0.00    -0.252 OA
ATOM      2  N   UNL     1      -3.410   1.743  24.927  0.00  0.00    -0.296 NA
ATOM      3  N   UNL     1      -1.317  -0.067  24.450  0.00  0.00    -0.278 N 
ATOM      4  N   UNL     1       0.791   0.227  23.733  0.00  0.00    -0.281 N 
ATOM      5  C   UNL     1      -0.996   1.298  24.814  0.00  0.00    +0.109 C 
ATOM      7  C   UNL     1      -2.125   2.238  24.395  0.00  0.00    +0.108 C 
ATOM      8  C   UNL     1       0.342   1.552  24.123  0.00  0.00    +0.133 C 
ATOM     12  C   UNL     1      -3.713   0.395  24.406  0.00  0.00    +0.104 C 
ATOM     13  C   UNL     1      -2.619  -0.605  24.788  0.00  0.00    +0.125 C 
ATOM     15  C   UNL     1      -0.227  -0.736  23.875  0.00  0.00    +0.305 C 
ENDROOT
BRANCH   4  11
ATOM     11  C   UNL     1       2.087   0.003  23.139  0.00  0.00    +0.078 C 
ATOM     16  C   UNL     1       2.883  -1.019  23.955  0.00  0.00    +0.022 C 
ATOM     17  C   UNL     1       2.852   1.321  22.996  0.00  0.00    +0.022 C 
ATOM     18  C   UNL     1       4.279  -1.235  23.377  0.00  0.00    +0.002 C 
ATOM     19  C   UNL     1       4.248   1.100  22.419  0.00  0.00    +0.002 C 
ATOM     20  C   UNL     1       5.039   0.081  23.233  0.00  0.00    +0.000 C 
ENDBRANCH   4  11
BRANCH   2   6
ATOM      6  C   UNL     1      -4.474   2.657  24.535  0.00  0.00    +0.057 C 
ATOM      9  C   UNL     1      -4.312   3.987  25.303  0.00  0.00    +0.019 C 
ATOM     10  C   UNL     1      -5.721   2.391  25.406  0.00  0.00    +0.019 C 
ATOM     14  C   UNL     1      -5.835   3.925  25.556  0.00  0.00    +0.003 C 
ENDBRANCH   2   6
TORSDOF 2
ENDMDL
MODEL 6
REMARK VINA RESULT:      -2.7     15.301     16.186
REMARK  Name = 75537123
REMARK  2 active torsions:
REMARK  status: ('A' for Active; 'I' for Inactive)
REMARK    1  A    between atoms: N_2  and  C_6
REMARK    2  A    between atoms: N_4  and  C_11
REMARK                            x       y       z     vdW  Elec       q    Type
REMARK                         _______ _______ _______ _____ _____    ______ ____
ROOT
ATOM      1  O   UNL     1      -2.016  -0.697  26.270  0.00  0.00    -0.252 OA
ATOM      2  N   UNL     1       1.529  -0.378  22.657  0.00  0.00    -0.296 NA
ATOM      3  N   UNL     1      -0.733  -0.424  24.322  0.00  0.00    -0.278 N 
ATOM      4  N   UNL     1      -2.274   1.135  24.807  0.00  0.00    -0.281 N 
ATOM      5  C   UNL     1      -0.717   0.469  23.182  0.00  0.00    +0.109 C 
ATOM      7  C   UNL     1       0.719   0.846  22.820  0.00  0.00    +0.108 C 
ATOM      8  C   UNL     1      -1.596   1.638  23.624  0.00  0.00    +0.133 C 
ATOM     12  C   UNL     1       1.556  -1.164  23.906  0.00  0.00    +0.104 C 
ATOM     13  C   UNL     1       0.145  -1.576  24.332  0.00  0.00    +0.125 C 
ATOM     15  C   UNL     1      -1.715  -0.076  25.259  0.00  0.00    +0.305 C 
ENDROOT
BRANCH   4  11
ATOM     11  C   UNL     1      -3.296   1.897  25.484  0.00  0.00    +0.078 C 
ATOM     16  C   UNL     1      -4.684   1.511  24.968  0.00  0.00    +0.022 C 
ATOM     17  C   UNL     1      -3.042   3.399  25.331  0.00  0.00    +0.022 C 
ATOM     18  C   UNL     1      -5.781   2.341  25.631  0.00  0.00    +0.002 C 
ATOM     19  C   UNL     1      -4.142   4.224  25.994  0.00  0.00    +0.002 C 
ATOM     20  C   UNL     1      -5.524   3.837  25.480  0.00  0.00    +0.000 C 
ENDBRANCH   4  11
BRANCH   2   6
ATOM      6  C   UNL     1       2.890  -0.005  22.297  0.00  0.00    +0.057 C 
ATOM      9  C   UNL     1       3.879  -0.704  23.256  0.00  0.00    +0.019 C 
ATOM     10  C   UNL     1       3.259   1.319  23.001  0.00  0.00    +0.019 C 
ATOM     14  C   UNL     1       4.610   0.654  23.352  0.00  0.00    +0.003 C 
ENDBRANCH   2   6
TORSDOF 2
ENDMDL
MODEL 7
REMARK VINA RESULT:      -2.1     15.696     17.962
REMARK  Name = 75537123
REMARK  2 active torsions:
REMARK  status: ('A' for Active; 'I' for Inactive)
REMARK    1  A    between atoms: N_2  and  C_6
REMARK    2  A    between atoms: N_4  and  C_11
REMARK                            x       y       z     vdW  Elec       q    Type
REMARK                         _______ _______ _______ _____ _____    ______ ____
ROOT
ATOM      1  O   UNL     1       0.697   2.697  26.194  0.00  0.00    -0.252 OA
ATOM      2  N   UNL     1      -4.143   3.523  24.924  0.00  0.00    -0.296 NA
ATOM      3  N   UNL     1      -1.370   3.155  25.176  0.00  0.00    -0.278 N 
ATOM      4  N   UNL     1       0.073   1.816  24.096  0.00  0.00    -0.281 N 
ATOM      5  C   UNL     1      -1.999   2.900  23.897  0.00  0.00    +0.109 C 
ATOM      7  C   UNL     1      -3.463   2.509  24.093  0.00  0.00    +0.108 C 
ATOM      8  C   UNL     1      -1.123   1.816  23.272  0.00  0.00    +0.133 C 
ATOM     12  C   UNL     1      -3.510   3.628  26.253  0.00  0.00    +0.104 C 
ATOM     13  C   UNL     1      -2.034   4.016  26.134  0.00  0.00    +0.125 C 
ATOM     15  C   UNL     1      -0.098   2.575  25.271  0.00  0.00    +0.305 C 
ENDROOT
BRANCH   4  11
ATOM     11  C   UNL     1       1.220   1.001  23.778  0.00  0.00    +0.078 C 
ATOM     16  C   UNL     1       2.387   1.875  23.312  0.00  0.00    +0.022 C 
ATOM     17  C   UNL     1       0.861  -0.056  22.730  0.00  0.00    +0.022 C 
ATOM     18  C   UNL     1       3.598   1.033  22.917  0.00  0.00    +0.002 C 
ATOM     19  C   UNL     1       2.075  -0.894  22.339  0.00  0.00    +0.002 C 
ATOM     20  C   UNL     1       3.236  -0.021  21.875  0.00  0.00    +0.000 C 
ENDBRANCH   4  11
BRANCH   2   6
ATOM      6  C   UNL     1      -5.541   3.148  25.088  0.00  0.00    +0.057 C 
ATOM      9  C   UNL     1      -5.778   2.700  26.548  0.00  0.00    +0.019 C 
ATOM     10  C   UNL     1      -5.722   1.670  24.683  0.00  0.00    +0.019 C 
ATOM     14  C   UNL     1      -6.578   1.515  25.961  0.00  0.00    +0.003 C 
ENDBRANCH   2   6
TORSDOF 2
ENDMDL
MODEL 8
REMARK VINA RESULT:      -1.4      4.577      6.509
REMARK  Name = 75537123
REMARK  2 active torsions:
REMARK  status: ('A' for Active; 'I' for Inactive)
REMARK    1  A    between atoms: N_2  and  C_6
REMARK    2  A    between atoms: N_4  and  C_11
REMARK                            x       y       z     vdW  Elec       q    Type
REMARK                         _______ _______ _______ _____ _____    ______ ____
ROOT
ATOM      1  O   UNL     1      -1.990  -8.619  10.407  0.00  0.00    -0.252 OA
ATOM      2  N   UNL     1      -6.770  -9.566   9.001  0.00  0.00    -0.296 NA
ATOM      3  N   UNL     1      -4.101  -9.500   9.874  0.00  0.00    -0.278 N 
ATOM      4  N   UNL     1      -3.130 -10.153  11.790  0.00  0.00    -0.281 N 
ATOM      5  C   UNL     1      -4.989 -10.514  10.404  0.00  0.00    +0.109 C 
ATOM      7  C   UNL     1      -6.437 -10.027  10.364  0.00  0.00    +0.108 C 
ATOM      8  C   UNL     1      -4.440 -10.781  11.804  0.00  0.00    +0.133 C 
ATOM     12  C   UNL     1      -5.894  -8.450   8.592  0.00  0.00    +0.104 C 
ATOM     13  C   UNL     1      -4.421  -8.866   8.611  0.00  0.00    +0.125 C 
ATOM     15  C   UNL     1      -2.950  -9.336  10.657  0.00  0.00    +0.305 C 
ENDROOT
BRANCH   4  11
ATOM     11  C   UNL     1      -2.215 -10.268  12.900  0.00  0.00    +0.078 C 
ATOM     16  C   UNL     1      -2.961 -10.684  14.171  0.00  0.00    +0.022 C 
ATOM     17  C   UNL     1      -1.447  -8.960  13.108  0.00  0.00    +0.022 C 
ATOM     18  C   UNL     1      -2.025 -10.761  15.374  0.00  0.00    +0.002 C 
ATOM     19  C   UNL     1      -0.513  -9.042  14.312  0.00  0.00    +0.002 C 
ATOM     20  C   UNL     1      -1.259  -9.457  15.576  0.00  0.00    +0.000 C 
ENDBRANCH   4  11
BRANCH   2   6
ATOM      6  C   UNL     1      -8.156  -9.120   8.973  0.00  0.00    +0.057 C 
ATOM      9  C   UNL     1      -8.802  -9.380  10.352  0.00  0.00    +0.019 C 
ATOM     10  C   UNL     1      -9.045 -10.257   8.424  0.00  0.00    +0.019 C 
ATOM     14  C   UNL     1     -10.022  -9.932   9.578  0.00  0.00    +0.003 C 
ENDBRANCH   2   6
TORSDOF 2
ENDMDL
MODEL 9
REMARK VINA RESULT:      -0.7     15.571     16.481
REMARK  Name = 75537123
REMARK  2 active torsions:
REMARK  status: ('A' for Active; 'I' for Inactive)
REMARK    1  A    between atoms: N_2  and  C_6
REMARK    2  A    between atoms: N_4  and  C_11
REMARK                            x       y       z     vdW  Elec       q    Type
REMARK                         _______ _______ _______ _____ _____    ______ ____
ROOT
ATOM      1  O   UNL     1      -1.799   3.936  25.207  0.00  0.00    -0.252 OA
ATOM      2  N   UNL     1       1.615   0.478  23.753  0.00  0.00    -0.296 NA
ATOM      3  N   UNL     1      -0.487   2.036  24.775  0.00  0.00    -0.278 N 
ATOM      4  N   UNL     1      -2.719   1.849  24.603  0.00  0.00    -0.281 N 
ATOM      5  C   UNL     1      -0.715   0.628  24.520  0.00  0.00    +0.109 C 
ATOM      7  C   UNL     1       0.219   0.129  23.419  0.00  0.00    +0.108 C 
ATOM      8  C   UNL     1      -2.203   0.557  24.182  0.00  0.00    +0.133 C 
ATOM     12  C   UNL     1       1.779   1.940  23.873  0.00  0.00    +0.104 C 
ATOM     13  C   UNL     1       0.868   2.513  24.961  0.00  0.00    +0.125 C 
ATOM     15  C   UNL     1      -1.683   2.755  24.904  0.00  0.00    +0.305 C 
ENDROOT
BRANCH   4  11
ATOM     11  C   UNL     1      -4.126   2.160  24.561  0.00  0.00    +0.078 C 
ATOM     16  C   UNL     1      -4.465   3.257  25.573  0.00  0.00    +0.022 C 
ATOM     17  C   UNL     1      -4.967   0.903  24.798  0.00  0.00    +0.022 C 
ATOM     18  C   UNL     1      -5.959   3.569  25.587  0.00  0.00    +0.002 C 
ATOM     19  C   UNL     1      -6.460   1.220  24.811  0.00  0.00    +0.002 C 
ATOM     20  C   UNL     1      -6.795   2.313  25.821  0.00  0.00    +0.000 C 
ENDBRANCH   4  11
BRANCH   2   6
ATOM      6  C   UNL     1       2.495  -0.017  22.704  0.00  0.00    +0.057 C 
ATOM      9  C   UNL     1       3.619  -0.865  23.341  0.00  0.00    +0.019 C 
ATOM     10  C   UNL     1       3.572   1.047  22.399  0.00  0.00    +0.019 C 
ATOM     14  C   UNL     1       4.595  -0.113  22.408  0.00  0.00    +0.003 C 
ENDBRANCH   2   6
TORSDOF 2
ENDMDL
