MODEL 1
REMARK VINA RESULT:       5.2      0.000      0.000
REMARK  Name = 44716358
REMARK  13 active torsions:
REMARK  status: ('A' for Active; 'I' for Inactive)
REMARK    1  A    between atoms: O_1  and  C_27
REMARK    2  A    between atoms: O_1  and  C_33
REMARK    3  A    between atoms: O_2  and  C_31
REMARK    4  A    between atoms: O_2  and  C_34
REMARK    5  A    between atoms: O_3  and  C_32
REMARK    6  A    between atoms: O_3  and  C_35
REMARK    7  A    between atoms: N_5  and  C_20
REMARK    8  A    between atoms: N_6  and  C_15
REMARK    9  A    between atoms: N_6  and  C_19
REMARK   10  A    between atoms: C_9  and  C_16
REMARK   11  A    between atoms: C_10  and  C_15
REMARK   12  A    between atoms: C_18  and  C_21
REMARK   13  A    between atoms: C_19  and  C_22
REMARK                            x       y       z     vdW  Elec       q    Type
REMARK                         _______ _______ _______ _____ _____    ______ ____
ROOT
ATOM      4  N   UNL     1      -5.130   4.447  25.082  0.00  0.00    -0.298 NA
ATOM      8  C   UNL     1      -3.001   3.729  26.399  0.00  0.00    +0.002 C 
ATOM      9  C   UNL     1      -2.660   3.965  24.902  0.00  0.00    +0.055 C 
ATOM     10  C   UNL     1      -5.415   3.230  25.885  0.00  0.00    +0.071 C 
ATOM     11  C   UNL     1      -4.118   2.670  26.508  0.00  0.00    +0.024 C 
ATOM     12  C   UNL     1      -3.579   5.056  26.938  0.00  0.00    +0.019 C 
ATOM     13  C   UNL     1      -4.003   4.189  24.150  0.00  0.00    +0.094 C 
ATOM     14  C   UNL     1      -4.720   5.522  26.016  0.00  0.00    +0.085 C 
ENDROOT
BRANCH   9  16
ATOM      5  N   UNL     1      -2.157   2.257  23.093  0.00  0.00    -0.270 N 
ATOM      7  N   UNL     1      -1.223   1.411  22.626  0.00  0.00    -0.171 NA
ATOM     16  C   UNL     1      -1.767   2.951  24.200  0.00  0.00    +0.044 A 
ATOM     17  C   UNL     1      -0.489   2.531  24.477  0.00  0.00    +0.053 A 
ATOM     18  C   UNL     1      -0.207   1.582  23.476  0.00  0.00    +0.093 A 
ATOM     20  C   UNL     1      -3.428   2.349  22.415  0.00  0.00    +0.172 C 
BRANCH  18  21
ATOM     21  C   UNL     1       1.014   0.836  23.316  0.00  0.00    +0.006 A 
ATOM     23  C   UNL     1       2.243   1.497  23.332  0.00  0.00    +0.059 A 
ATOM     24  C   UNL     1       0.969  -0.547  23.143  0.00  0.00    +0.014 A 
ATOM     27  C   UNL     1       3.426   0.774  23.177  0.00  0.00    +0.162 A 
ATOM     28  C   UNL     1       2.152  -1.270  22.986  0.00  0.00    +0.050 A 
ATOM     31  C   UNL     1       3.380  -0.608  23.004  0.00  0.00    +0.162 A 
BRANCH  27   1
ATOM      1  O   UNL     1       4.619   1.431  23.196  0.00  0.00    -0.491 OA
ATOM     33  C   UNL     1       5.650   0.879  24.013  0.00  0.00    +0.277 C 
ENDBRANCH  27   1
BRANCH  31   2
ATOM      2  O   UNL     1       4.529  -1.325  22.850  0.00  0.00    -0.491 OA
ATOM     34  C   UNL     1       4.962  -2.101  23.966  0.00  0.00    +0.277 C 
ENDBRANCH  31   2
ENDBRANCH  18  21
ENDBRANCH   9  16
BRANCH  10  15
ATOM     15  C   UNL     1      -6.167   2.165  25.083  0.00  0.00    +0.100 C 
BRANCH  15   6
ATOM      6  N   UNL     1      -5.740   0.830  25.470  0.00  0.00    -0.311 NA
ATOM     36  H   UNL     1      -6.494   0.382  25.992  0.00  0.00    +0.122 HD
BRANCH   6  19
ATOM     19  C   UNL     1      -5.426   0.021  24.298  0.00  0.00    +0.116 C 
BRANCH  19  22
ATOM     22  C   UNL     1      -4.175  -0.793  24.498  0.00  0.00    -0.033 A 
ATOM     25  C   UNL     1      -4.083  -2.074  23.955  0.00  0.00    +0.008 A 
ATOM     26  C   UNL     1      -3.109  -0.266  25.227  0.00  0.00    +0.008 A 
ATOM     29  C   UNL     1      -2.924  -2.829  24.141  0.00  0.00    +0.046 A 
ATOM     30  C   UNL     1      -1.951  -1.020  25.414  0.00  0.00    +0.046 A 
ATOM     32  C   UNL     1      -1.859  -2.302  24.869  0.00  0.00    +0.120 A 
BRANCH  32   3
ATOM      3  O   UNL     1      -0.728  -3.038  25.051  0.00  0.00    -0.495 OA
ATOM     35  C   UNL     1       0.314  -2.448  25.828  0.00  0.00    +0.277 C 
ENDBRANCH  32   3
ENDBRANCH  19  22
ENDBRANCH   6  19
ENDBRANCH  15   6
ENDBRANCH  10  15
TORSDOF 9
ENDMDL
MODEL 2
REMARK VINA RESULT:       5.2      1.207      1.721
REMARK  Name = 44716358
REMARK  13 active torsions:
REMARK  status: ('A' for Active; 'I' for Inactive)
REMARK    1  A    between atoms: O_1  and  C_27
REMARK    2  A    between atoms: O_1  and  C_33
REMARK    3  A    between atoms: O_2  and  C_31
REMARK    4  A    between atoms: O_2  and  C_34
REMARK    5  A    between atoms: O_3  and  C_32
REMARK    6  A    between atoms: O_3  and  C_35
REMARK    7  A    between atoms: N_5  and  C_20
REMARK    8  A    between atoms: N_6  and  C_15
REMARK    9  A    between atoms: N_6  and  C_19
REMARK   10  A    between atoms: C_9  and  C_16
REMARK   11  A    between atoms: C_10  and  C_15
REMARK   12  A    between atoms: C_18  and  C_21
REMARK   13  A    between atoms: C_19  and  C_22
REMARK                            x       y       z     vdW  Elec       q    Type
REMARK                         _______ _______ _______ _____ _____    ______ ____
ROOT
ATOM      4  N   UNL     1      -5.840   2.974  24.651  0.00  0.00    -0.298 NA
ATOM      8  C   UNL     1      -4.027   4.220  26.045  0.00  0.00    +0.002 C 
ATOM      9  C   UNL     1      -3.540   4.009  24.585  0.00  0.00    +0.055 C 
ATOM     10  C   UNL     1      -5.592   2.250  25.926  0.00  0.00    +0.071 C 
ATOM     11  C   UNL     1      -4.381   2.853  26.669  0.00  0.00    +0.024 C 
ATOM     12  C   UNL     1      -5.337   5.034  25.964  0.00  0.00    +0.019 C 
ATOM     13  C   UNL     1      -4.577   3.090  23.879  0.00  0.00    +0.094 C 
ATOM     14  C   UNL     1      -6.304   4.341  24.988  0.00  0.00    +0.085 C 
ENDROOT
BRANCH   9  16
ATOM      5  N   UNL     1      -1.025   4.346  24.547  0.00  0.00    -0.270 N 
ATOM      7  N   UNL     1       0.150   3.741  24.301  0.00  0.00    -0.171 NA
ATOM     16  C   UNL     1      -2.109   3.539  24.366  0.00  0.00    +0.044 A 
ATOM     17  C   UNL     1      -1.609   2.321  23.974  0.00  0.00    +0.053 A 
ATOM     18  C   UNL     1      -0.214   2.505  23.951  0.00  0.00    +0.093 A 
ATOM     20  C   UNL     1      -1.033   5.730  24.960  0.00  0.00    +0.172 C 
BRANCH  18  21
ATOM     21  C   UNL     1       0.779   1.522  23.600  0.00  0.00    +0.006 A 
ATOM     23  C   UNL     1       2.113   1.900  23.452  0.00  0.00    +0.059 A 
ATOM     24  C   UNL     1       0.405   0.192  23.408  0.00  0.00    +0.014 A 
ATOM     27  C   UNL     1       3.075   0.947  23.112  0.00  0.00    +0.162 A 
ATOM     28  C   UNL     1       1.366  -0.761  23.066  0.00  0.00    +0.050 A 
ATOM     31  C   UNL     1       2.701  -0.382  22.919  0.00  0.00    +0.162 A 
BRANCH  27   1
ATOM      1  O   UNL     1       4.374   1.328  22.971  0.00  0.00    -0.491 OA
ATOM     33  C   UNL     1       5.315   0.781  23.893  0.00  0.00    +0.277 C 
ENDBRANCH  27   1
BRANCH  31   2
ATOM      2  O   UNL     1       3.630  -1.321  22.586  0.00  0.00    -0.491 OA
ATOM     34  C   UNL     1       4.292  -1.986  23.660  0.00  0.00    +0.277 C 
ENDBRANCH  31   2
ENDBRANCH  18  21
ENDBRANCH   9  16
BRANCH  10  15
ATOM     15  C   UNL     1      -5.441   0.742  25.719  0.00  0.00    +0.100 C 
BRANCH  15   6
ATOM      6  N   UNL     1      -5.325   0.422  24.306  0.00  0.00    -0.311 NA
ATOM     36  H   UNL     1      -4.602   1.013  23.893  0.00  0.00    +0.122 HD
BRANCH   6  19
ATOM     19  C   UNL     1      -4.963  -0.976  24.113  0.00  0.00    +0.116 C 
BRANCH  19  22
ATOM     22  C   UNL     1      -3.578  -1.273  24.625  0.00  0.00    -0.033 A 
ATOM     25  C   UNL     1      -2.980  -0.419  25.552  0.00  0.00    +0.008 A 
ATOM     26  C   UNL     1      -2.893  -2.400  24.172  0.00  0.00    +0.008 A 
ATOM     29  C   UNL     1      -1.697  -0.693  26.026  0.00  0.00    +0.046 A 
ATOM     30  C   UNL     1      -1.610  -2.674  24.645  0.00  0.00    +0.046 A 
ATOM     32  C   UNL     1      -1.012  -1.820  25.573  0.00  0.00    +0.120 A 
BRANCH  32   3
ATOM      3  O   UNL     1       0.240  -2.087  26.035  0.00  0.00    -0.495 OA
ATOM     35  C   UNL     1       0.914  -3.212  25.472  0.00  0.00    +0.277 C 
ENDBRANCH  32   3
ENDBRANCH  19  22
ENDBRANCH   6  19
ENDBRANCH  15   6
ENDBRANCH  10  15
TORSDOF 9
ENDMDL
MODEL 3
REMARK VINA RESULT:       5.9      0.807      1.670
REMARK  Name = 44716358
REMARK  13 active torsions:
REMARK  status: ('A' for Active; 'I' for Inactive)
REMARK    1  A    between atoms: O_1  and  C_27
REMARK    2  A    between atoms: O_1  and  C_33
REMARK    3  A    between atoms: O_2  and  C_31
REMARK    4  A    between atoms: O_2  and  C_34
REMARK    5  A    between atoms: O_3  and  C_32
REMARK    6  A    between atoms: O_3  and  C_35
REMARK    7  A    between atoms: N_5  and  C_20
REMARK    8  A    between atoms: N_6  and  C_15
REMARK    9  A    between atoms: N_6  and  C_19
REMARK   10  A    between atoms: C_9  and  C_16
REMARK   11  A    between atoms: C_10  and  C_15
REMARK   12  A    between atoms: C_18  and  C_21
REMARK   13  A    between atoms: C_19  and  C_22
REMARK                            x       y       z     vdW  Elec       q    Type
REMARK                         _______ _______ _______ _____ _____    ______ ____
ROOT
ATOM      4  N   UNL     1      -5.068   4.073  24.666  0.00  0.00    -0.298 NA
ATOM      8  C   UNL     1      -2.936   3.761  26.128  0.00  0.00    +0.002 C 
ATOM      9  C   UNL     1      -2.553   3.879  24.626  0.00  0.00    +0.055 C 
ATOM     10  C   UNL     1      -5.247   2.921  25.586  0.00  0.00    +0.071 C 
ATOM     11  C   UNL     1      -3.925   2.591  26.312  0.00  0.00    +0.024 C 
ATOM     12  C   UNL     1      -3.690   5.056  26.498  0.00  0.00    +0.019 C 
ATOM     13  C   UNL     1      -3.876   3.859  23.808  0.00  0.00    +0.094 C 
ATOM     14  C   UNL     1      -4.832   5.282  25.492  0.00  0.00    +0.085 C 
ENDROOT
BRANCH   9  16
ATOM      5  N   UNL     1      -1.832   1.873  23.249  0.00  0.00    -0.270 N 
ATOM      7  N   UNL     1      -0.773   1.139  22.869  0.00  0.00    -0.171 NA
ATOM     16  C   UNL     1      -1.516   2.914  24.071  0.00  0.00    +0.044 A 
ATOM     17  C   UNL     1      -0.154   2.858  24.240  0.00  0.00    +0.053 A 
ATOM     18  C   UNL     1       0.250   1.745  23.478  0.00  0.00    +0.093 A 
ATOM     20  C   UNL     1      -3.148   1.509  22.777  0.00  0.00    +0.172 C 
BRANCH  18  21
ATOM     21  C   UNL     1       1.593   1.250  23.321  0.00  0.00    +0.006 A 
ATOM     23  C   UNL     1       1.864  -0.105  23.514  0.00  0.00    +0.059 A 
ATOM     24  C   UNL     1       2.623   2.125  22.977  0.00  0.00    +0.014 A 
ATOM     27  C   UNL     1       3.166  -0.584  23.363  0.00  0.00    +0.162 A 
ATOM     28  C   UNL     1       3.925   1.647  22.826  0.00  0.00    +0.050 A 
ATOM     31  C   UNL     1       4.195   0.292  23.019  0.00  0.00    +0.162 A 
BRANCH  27   1
ATOM      1  O   UNL     1       3.418  -1.908  23.554  0.00  0.00    -0.491 OA
ATOM     33  C   UNL     1       4.732  -2.263  23.981  0.00  0.00    +0.277 C 
ENDBRANCH  27   1
BRANCH  31   2
ATOM      2  O   UNL     1       5.470  -0.165  22.869  0.00  0.00    -0.491 OA
ATOM     34  C   UNL     1       6.460   0.381  23.740  0.00  0.00    +0.277 C 
ENDBRANCH  31   2
ENDBRANCH  18  21
ENDBRANCH   9  16
BRANCH  10  15
ATOM     15  C   UNL     1      -5.830   1.695  24.879  0.00  0.00    +0.100 C 
BRANCH  15   6
ATOM      6  N   UNL     1      -5.486   0.475  25.591  0.00  0.00    -0.311 NA
ATOM     36  H   UNL     1      -6.299   0.165  26.125  0.00  0.00    +0.122 HD
BRANCH   6  19
ATOM     19  C   UNL     1      -5.094  -0.579  24.664  0.00  0.00    +0.116 C 
BRANCH  19  22
ATOM     22  C   UNL     1      -3.645  -0.957  24.826  0.00  0.00    -0.033 A 
ATOM     25  C   UNL     1      -2.840  -0.262  25.728  0.00  0.00    +0.008 A 
ATOM     26  C   UNL     1      -3.109  -2.002  24.074  0.00  0.00    +0.008 A 
ATOM     29  C   UNL     1      -1.498  -0.612  25.877  0.00  0.00    +0.046 A 
ATOM     30  C   UNL     1      -1.767  -2.352  24.223  0.00  0.00    +0.046 A 
ATOM     32  C   UNL     1      -0.962  -1.656  25.125  0.00  0.00    +0.120 A 
BRANCH  32   3
ATOM      3  O   UNL     1       0.348  -1.997  25.271  0.00  0.00    -0.495 OA
ATOM     35  C   UNL     1       0.630  -3.335  25.680  0.00  0.00    +0.277 C 
ENDBRANCH  32   3
ENDBRANCH  19  22
ENDBRANCH   6  19
ENDBRANCH  15   6
ENDBRANCH  10  15
TORSDOF 9
ENDMDL
MODEL 4
REMARK VINA RESULT:       6.1      2.053      4.106
REMARK  Name = 44716358
REMARK  13 active torsions:
REMARK  status: ('A' for Active; 'I' for Inactive)
REMARK    1  A    between atoms: O_1  and  C_27
REMARK    2  A    between atoms: O_1  and  C_33
REMARK    3  A    between atoms: O_2  and  C_31
REMARK    4  A    between atoms: O_2  and  C_34
REMARK    5  A    between atoms: O_3  and  C_32
REMARK    6  A    between atoms: O_3  and  C_35
REMARK    7  A    between atoms: N_5  and  C_20
REMARK    8  A    between atoms: N_6  and  C_15
REMARK    9  A    between atoms: N_6  and  C_19
REMARK   10  A    between atoms: C_9  and  C_16
REMARK   11  A    between atoms: C_10  and  C_15
REMARK   12  A    between atoms: C_18  and  C_21
REMARK   13  A    between atoms: C_19  and  C_22
REMARK                            x       y       z     vdW  Elec       q    Type
REMARK                         _______ _______ _______ _____ _____    ______ ____
ROOT
ATOM      4  N   UNL     1      -5.366   2.663  26.194  0.00  0.00    -0.298 NA
ATOM      8  C   UNL     1      -5.276   1.078  24.129  0.00  0.00    +0.002 C 
ATOM      9  C   UNL     1      -4.309   0.581  25.239  0.00  0.00    +0.055 C 
ATOM     10  C   UNL     1      -5.175   3.456  24.952  0.00  0.00    +0.071 C 
ATOM     11  C   UNL     1      -4.913   2.528  23.746  0.00  0.00    +0.024 C 
ATOM     12  C   UNL     1      -6.689   1.114  24.754  0.00  0.00    +0.019 C 
ATOM     13  C   UNL     1      -4.267   1.677  26.341  0.00  0.00    +0.094 C 
ATOM     14  C   UNL     1      -6.642   1.918  26.065  0.00  0.00    +0.085 C 
ENDROOT
BRANCH   9  16
ATOM      5  N   UNL     1      -2.550  -1.190  24.777  0.00  0.00    -0.270 N 
ATOM      7  N   UNL     1      -1.278  -1.384  24.389  0.00  0.00    -0.171 NA
ATOM     16  C   UNL     1      -2.917   0.123  24.826  0.00  0.00    +0.044 A 
ATOM     17  C   UNL     1      -1.808   0.837  24.444  0.00  0.00    +0.053 A 
ATOM     18  C   UNL     1      -0.830  -0.142  24.187  0.00  0.00    +0.093 A 
ATOM     20  C   UNL     1      -3.374  -2.333  25.093  0.00  0.00    +0.172 C 
BRANCH  18  21
ATOM     21  C   UNL     1       0.524   0.086  23.754  0.00  0.00    +0.006 A 
ATOM     23  C   UNL     1       1.416  -0.982  23.662  0.00  0.00    +0.059 A 
ATOM     24  C   UNL     1       0.944   1.376  23.429  0.00  0.00    +0.014 A 
ATOM     27  C   UNL     1       2.729  -0.761  23.242  0.00  0.00    +0.162 A 
ATOM     28  C   UNL     1       2.257   1.598  23.011  0.00  0.00    +0.050 A 
ATOM     31  C   UNL     1       3.148   0.528  22.918  0.00  0.00    +0.162 A 
BRANCH  27   1
ATOM      1  O   UNL     1       3.590  -1.812  23.155  0.00  0.00    -0.491 OA
ATOM     33  C   UNL     1       4.677  -1.838  24.079  0.00  0.00    +0.277 C 
ENDBRANCH  27   1
BRANCH  31   2
ATOM      2  O   UNL     1       4.428   0.758  22.508  0.00  0.00    -0.491 OA
ATOM     34  C   UNL     1       5.427   0.839  23.522  0.00  0.00    +0.277 C 
ENDBRANCH  31   2
ENDBRANCH  18  21
ENDBRANCH   9  16
BRANCH  10  15
ATOM     15  C   UNL     1      -4.084   4.518  25.101  0.00  0.00    +0.100 C 
BRANCH  15   6
ATOM      6  N   UNL     1      -3.187   4.502  23.956  0.00  0.00    -0.311 NA
ATOM     36  H   UNL     1      -3.587   5.081  23.217  0.00  0.00    +0.122 HD
BRANCH   6  19
ATOM     19  C   UNL     1      -1.874   5.025  24.312  0.00  0.00    +0.116 C 
BRANCH  19  22
ATOM     22  C   UNL     1      -1.196   4.175  25.355  0.00  0.00    -0.033 A 
ATOM     25  C   UNL     1       0.128   3.778  25.177  0.00  0.00    +0.008 A 
ATOM     26  C   UNL     1      -1.894   3.785  26.498  0.00  0.00    +0.008 A 
ATOM     29  C   UNL     1       0.756   2.989  26.142  0.00  0.00    +0.046 A 
ATOM     30  C   UNL     1      -1.267   2.997  27.463  0.00  0.00    +0.046 A 
ATOM     32  C   UNL     1       0.058   2.600  27.284  0.00  0.00    +0.120 A 
BRANCH  32   3
ATOM      3  O   UNL     1       0.671   1.830  28.226  0.00  0.00    -0.495 OA
ATOM     35  C   UNL     1       1.385   2.511  29.257  0.00  0.00    +0.277 C 
ENDBRANCH  32   3
ENDBRANCH  19  22
ENDBRANCH   6  19
ENDBRANCH  15   6
ENDBRANCH  10  15
TORSDOF 9
ENDMDL
MODEL 5
REMARK VINA RESULT:       8.4      1.845      4.771
REMARK  Name = 44716358
REMARK  13 active torsions:
REMARK  status: ('A' for Active; 'I' for Inactive)
REMARK    1  A    between atoms: O_1  and  C_27
REMARK    2  A    between atoms: O_1  and  C_33
REMARK    3  A    between atoms: O_2  and  C_31
REMARK    4  A    between atoms: O_2  and  C_34
REMARK    5  A    between atoms: O_3  and  C_32
REMARK    6  A    between atoms: O_3  and  C_35
REMARK    7  A    between atoms: N_5  and  C_20
REMARK    8  A    between atoms: N_6  and  C_15
REMARK    9  A    between atoms: N_6  and  C_19
REMARK   10  A    between atoms: C_9  and  C_16
REMARK   11  A    between atoms: C_10  and  C_15
REMARK   12  A    between atoms: C_18  and  C_21
REMARK   13  A    between atoms: C_19  and  C_22
REMARK                            x       y       z     vdW  Elec       q    Type
REMARK                         _______ _______ _______ _____ _____    ______ ____
ROOT
ATOM      4  N   UNL     1      -4.096  -0.960  25.720  0.00  0.00    -0.298 NA
ATOM      8  C   UNL     1      -2.929  -1.981  23.629  0.00  0.00    +0.002 C 
ATOM      9  C   UNL     1      -1.875  -1.576  24.696  0.00  0.00    +0.055 C 
ATOM     10  C   UNL     1      -4.603  -0.307  24.485  0.00  0.00    +0.071 C 
ATOM     11  C   UNL     1      -3.780  -0.749  23.256  0.00  0.00    +0.024 C 
ATOM     12  C   UNL     1      -3.874  -3.000  24.302  0.00  0.00    +0.019 C 
ATOM     13  C   UNL     1      -2.624  -0.797  25.814  0.00  0.00    +0.094 C 
ATOM     14  C   UNL     1      -4.396  -2.409  25.624  0.00  0.00    +0.085 C 
ENDROOT
BRANCH   9  16
ATOM      5  N   UNL     1      -0.638   0.415  23.722  0.00  0.00    -0.270 N 
ATOM      7  N   UNL     1       0.574   0.874  23.366  0.00  0.00    -0.171 NA
ATOM     16  C   UNL     1      -0.621  -0.851  24.228  0.00  0.00    +0.044 A 
ATOM     17  C   UNL     1       0.694  -1.248  24.202  0.00  0.00    +0.053 A 
ATOM     18  C   UNL     1       1.383  -0.146  23.661  0.00  0.00    +0.093 A 
ATOM     20  C   UNL     1      -1.794   1.262  23.543  0.00  0.00    +0.172 C 
BRANCH  18  21
ATOM     21  C   UNL     1       2.800  -0.050  23.421  0.00  0.00    +0.006 A 
ATOM     23  C   UNL     1       3.658  -1.039  23.903  0.00  0.00    +0.059 A 
ATOM     24  C   UNL     1       3.314   1.032  22.707  0.00  0.00    +0.014 A 
ATOM     27  C   UNL     1       5.031  -0.946  23.670  0.00  0.00    +0.162 A 
ATOM     28  C   UNL     1       4.687   1.126  22.475  0.00  0.00    +0.050 A 
ATOM     31  C   UNL     1       5.544   0.136  22.957  0.00  0.00    +0.162 A 
BRANCH  27   1
ATOM      1  O   UNL     1       5.858  -1.917  24.145  0.00  0.00    -0.491 OA
ATOM     33  C   UNL     1       6.584  -1.625  25.338  0.00  0.00    +0.277 C 
ENDBRANCH  27   1
BRANCH  31   2
ATOM      2  O   UNL     1       6.883   0.239  22.724  0.00  0.00    -0.491 OA
ATOM     34  C   UNL     1       7.567  -0.954  22.344  0.00  0.00    +0.277 C 
ENDBRANCH  31   2
ENDBRANCH  18  21
ENDBRANCH   9  16
BRANCH  10  15
ATOM     15  C   UNL     1      -4.662   1.217  24.613  0.00  0.00    +0.100 C 
BRANCH  15   6
ATOM      6  N   UNL     1      -5.906   1.636  25.238  0.00  0.00    -0.311 NA
ATOM     36  H   UNL     1      -6.093   1.029  26.038  0.00  0.00    +0.122 HD
BRANCH   6  19
ATOM     19  C   UNL     1      -5.822   3.016  25.698  0.00  0.00    +0.116 C 
BRANCH  19  22
ATOM     22  C   UNL     1      -4.450   3.598  25.477  0.00  0.00    -0.033 A 
ATOM     25  C   UNL     1      -3.526   3.622  26.521  0.00  0.00    +0.008 A 
ATOM     26  C   UNL     1      -4.105   4.113  24.228  0.00  0.00    +0.008 A 
ATOM     29  C   UNL     1      -2.256   4.161  26.316  0.00  0.00    +0.046 A 
ATOM     30  C   UNL     1      -2.835   4.653  24.022  0.00  0.00    +0.046 A 
ATOM     32  C   UNL     1      -1.911   4.676  25.067  0.00  0.00    +0.120 A 
BRANCH  32   3
ATOM      3  O   UNL     1      -0.672   5.203  24.868  0.00  0.00    -0.495 OA
ATOM     35  C   UNL     1       0.167   4.548  23.917  0.00  0.00    +0.277 C 
ENDBRANCH  32   3
ENDBRANCH  19  22
ENDBRANCH   6  19
ENDBRANCH  15   6
ENDBRANCH  10  15
TORSDOF 9
ENDMDL
MODEL 6
REMARK VINA RESULT:       9.1      1.865      4.342
REMARK  Name = 44716358
REMARK  13 active torsions:
REMARK  status: ('A' for Active; 'I' for Inactive)
REMARK    1  A    between atoms: O_1  and  C_27
REMARK    2  A    between atoms: O_1  and  C_33
REMARK    3  A    between atoms: O_2  and  C_31
REMARK    4  A    between atoms: O_2  and  C_34
REMARK    5  A    between atoms: O_3  and  C_32
REMARK    6  A    between atoms: O_3  and  C_35
REMARK    7  A    between atoms: N_5  and  C_20
REMARK    8  A    between atoms: N_6  and  C_15
REMARK    9  A    between atoms: N_6  and  C_19
REMARK   10  A    between atoms: C_9  and  C_16
REMARK   11  A    between atoms: C_10  and  C_15
REMARK   12  A    between atoms: C_18  and  C_21
REMARK   13  A    between atoms: C_19  and  C_22
REMARK                            x       y       z     vdW  Elec       q    Type
REMARK                         _______ _______ _______ _____ _____    ______ ____
ROOT
ATOM      4  N   UNL     1      -4.118  -0.459  25.762  0.00  0.00    -0.298 NA
ATOM      8  C   UNL     1      -3.408  -1.169  23.359  0.00  0.00    +0.002 C 
ATOM      9  C   UNL     1      -2.187  -1.205  24.319  0.00  0.00    +0.055 C 
ATOM     10  C   UNL     1      -4.610   0.533  24.771  0.00  0.00    +0.071 C 
ATOM     11  C   UNL     1      -4.027   0.244  23.371  0.00  0.00    +0.024 C 
ATOM     12  C   UNL     1      -4.463  -2.133  23.944  0.00  0.00    +0.019 C 
ATOM     13  C   UNL     1      -2.641  -0.580  25.669  0.00  0.00    +0.094 C 
ATOM     14  C   UNL     1      -4.712  -1.775  25.420  0.00  0.00    +0.085 C 
ENDROOT
BRANCH   9  16
ATOM      5  N   UNL     1      -0.797   0.434  22.968  0.00  0.00    -0.270 N 
ATOM      7  N   UNL     1       0.459   0.795  22.656  0.00  0.00    -0.171 NA
ATOM     16  C   UNL     1      -0.869  -0.622  23.828  0.00  0.00    +0.044 A 
ATOM     17  C   UNL     1       0.430  -0.976  24.098  0.00  0.00    +0.053 A 
ATOM     18  C   UNL     1       1.204  -0.070  23.349  0.00  0.00    +0.093 A 
ATOM     20  C   UNL     1      -1.904   1.160  22.390  0.00  0.00    +0.172 C 
BRANCH  18  21
ATOM     21  C   UNL     1       2.642  -0.016  23.283  0.00  0.00    +0.006 A 
ATOM     23  C   UNL     1       3.404  -1.063  23.800  0.00  0.00    +0.059 A 
ATOM     24  C   UNL     1       3.272   1.085  22.702  0.00  0.00    +0.014 A 
ATOM     27  C   UNL     1       4.797  -1.010  23.736  0.00  0.00    +0.162 A 
ATOM     28  C   UNL     1       4.665   1.139  22.639  0.00  0.00    +0.050 A 
ATOM     31  C   UNL     1       5.426   0.090  23.156  0.00  0.00    +0.162 A 
BRANCH  27   1
ATOM      1  O   UNL     1       5.531  -2.039  24.244  0.00  0.00    -0.491 OA
ATOM     33  C   UNL     1       6.496  -1.716  25.243  0.00  0.00    +0.277 C 
ENDBRANCH  27   1
BRANCH  31   2
ATOM      2  O   UNL     1       6.786   0.154  23.088  0.00  0.00    -0.491 OA
ATOM     34  C   UNL     1       7.442  -0.833  22.295  0.00  0.00    +0.277 C 
ENDBRANCH  31   2
ENDBRANCH  18  21
ENDBRANCH   9  16
BRANCH  10  15
ATOM     15  C   UNL     1      -4.347   1.975  25.211  0.00  0.00    +0.100 C 
BRANCH  15   6
ATOM      6  N   UNL     1      -4.375   2.877  24.071  0.00  0.00    -0.311 NA
ATOM     36  H   UNL     1      -5.330   3.213  23.941  0.00  0.00    +0.122 HD
BRANCH   6  19
ATOM     19  C   UNL     1      -3.494   4.018  24.284  0.00  0.00    +0.116 C 
BRANCH  19  22
ATOM     22  C   UNL     1      -2.243   3.629  25.027  0.00  0.00    -0.033 A 
ATOM     25  C   UNL     1      -1.043   3.468  24.336  0.00  0.00    +0.008 A 
ATOM     26  C   UNL     1      -2.286   3.429  26.407  0.00  0.00    +0.008 A 
ATOM     29  C   UNL     1       0.116   3.107  25.024  0.00  0.00    +0.046 A 
ATOM     30  C   UNL     1      -1.128   3.068  27.096  0.00  0.00    +0.046 A 
ATOM     32  C   UNL     1       0.073   2.907  26.404  0.00  0.00    +0.120 A 
BRANCH  32   3
ATOM      3  O   UNL     1       1.203   2.554  27.075  0.00  0.00    -0.495 OA
ATOM     35  C   UNL     1       1.112   2.460  28.496  0.00  0.00    +0.277 C 
ENDBRANCH  32   3
ENDBRANCH  19  22
ENDBRANCH   6  19
ENDBRANCH  15   6
ENDBRANCH  10  15
TORSDOF 9
ENDMDL
