MODEL 1
REMARK VINA RESULT:      -4.2      0.000      0.000
REMARK  Name = 11884472
REMARK  3 active torsions:
REMARK  status: ('A' for Active; 'I' for Inactive)
REMARK    1  A    between atoms: N_6  and  C_17
REMARK    2  A    between atoms: C_16  and  C_19
REMARK    3  A    between atoms: C_22  and  C_26
REMARK                            x       y       z     vdW  Elec       q    Type
REMARK                         _______ _______ _______ _____ _____    ______ ____
ROOT
ATOM      1  O   UNL     1      15.850  -7.789  26.410  0.00  0.00    -0.266 OA
ATOM      2  O   UNL     1      12.260  -8.449  30.080  0.00  0.00    -0.270 OA
ATOM      4  N   UNL     1      14.342  -8.965  31.015  0.00  0.00    -0.297 N 
ATOM      5  N   UNL     1      16.332  -8.304  28.634  0.00  0.00    -0.310 N 
ATOM      7  C   UNL     1      15.721 -10.557  29.690  0.00  0.00    +0.027 C 
ATOM      8  C   UNL     1      16.821  -8.825  31.049  0.00  0.00    +0.054 C 
ATOM      9  C   UNL     1      16.906 -10.286  30.610  0.00  0.00    +0.018 C 
ATOM     10  C   UNL     1      14.396 -10.304  30.431  0.00  0.00    +0.113 C 
ATOM     11  C   UNL     1      15.859  -9.682  28.438  0.00  0.00    +0.130 C 
ATOM     12  C   UNL     1      15.511  -8.595  31.829  0.00  0.00    +0.117 C 
ATOM     13  C   UNL     1      16.874  -7.893  29.854  0.00  0.00    +0.027 A 
ATOM     14  C   UNL     1      17.405  -6.666  29.975  0.00  0.00    +0.024 A 
ATOM     15  C   UNL     1      16.304  -7.457  27.508  0.00  0.00    +0.273 A 
ATOM     16  C   UNL     1      13.240  -8.145  30.758  0.00  0.00    +0.247 C 
ATOM     17  C   UNL     1      16.879  -6.077  27.679  0.00  0.00    +0.099 A 
ATOM     18  C   UNL     1      17.404  -5.752  28.869  0.00  0.00    +0.030 A 
ENDROOT
BRANCH  16  19
ATOM     19  C   UNL     1      13.242  -6.794  31.326  0.00  0.00    +0.037 A 
ATOM     20  C   UNL     1      12.296  -6.445  32.287  0.00  0.00    +0.013 A 
ATOM     21  C   UNL     1      14.190  -5.866  30.904  0.00  0.00    +0.013 A 
ATOM     23  C   UNL     1      12.297  -5.159  32.828  0.00  0.00    +0.001 A 
ATOM     24  C   UNL     1      14.192  -4.580  31.444  0.00  0.00    +0.001 A 
ATOM     25  C   UNL     1      13.245  -4.226  32.407  0.00  0.00    +0.000 A 
ENDBRANCH  16  19
BRANCH  17   6
ATOM      3  O   UNL     1      17.405  -3.309  27.687  0.00  0.00    -0.270 OA
ATOM      6  N   UNL     1      16.832  -5.256  26.591  0.00  0.00    -0.277 N 
ATOM     22  C   UNL     1      17.101  -3.885  26.642  0.00  0.00    +0.248 C 
ATOM     32  H   UNL     1      16.639  -5.711  25.705  0.00  0.00    +0.155 HD
BRANCH  22  26
ATOM     26  C   UNL     1      17.028  -3.177  25.354  0.00  0.00    +0.037 A 
ATOM     27  C   UNL     1      17.370  -1.835  25.297  0.00  0.00    +0.013 A 
ATOM     28  C   UNL     1      16.619  -3.864  24.223  0.00  0.00    +0.013 A 
ATOM     29  C   UNL     1      17.301  -1.163  24.076  0.00  0.00    +0.001 A 
ATOM     30  C   UNL     1      16.551  -3.192  23.001  0.00  0.00    +0.001 A 
ATOM     31  C   UNL     1      16.891  -1.841  22.928  0.00  0.00    +0.000 A 
ENDBRANCH  22  26
ENDBRANCH  17   6
TORSDOF 3
ENDMDL
MODEL 2
REMARK VINA RESULT:      -4.2      1.444      2.101
REMARK  Name = 11884472
REMARK  3 active torsions:
REMARK  status: ('A' for Active; 'I' for Inactive)
REMARK    1  A    between atoms: N_6  and  C_17
REMARK    2  A    between atoms: C_16  and  C_19
REMARK    3  A    between atoms: C_22  and  C_26
REMARK                            x       y       z     vdW  Elec       q    Type
REMARK                         _______ _______ _______ _____ _____    ______ ____
ROOT
ATOM      1  O   UNL     1      17.234  -8.461  27.741  0.00  0.00    -0.266 OA
ATOM      2  O   UNL     1      12.910  -9.759  30.273  0.00  0.00    -0.270 OA
ATOM      4  N   UNL     1      14.606  -9.465  31.858  0.00  0.00    -0.297 N 
ATOM      5  N   UNL     1      17.045  -8.512  30.066  0.00  0.00    -0.310 N 
ATOM      7  C   UNL     1      16.717 -10.691  31.374  0.00  0.00    +0.027 C 
ATOM      8  C   UNL     1      16.799  -8.542  32.572  0.00  0.00    +0.054 C 
ATOM      9  C   UNL     1      17.404  -9.944  32.513  0.00  0.00    +0.018 C 
ATOM     10  C   UNL     1      15.201 -10.780  31.627  0.00  0.00    +0.113 C 
ATOM     11  C   UNL     1      17.042  -9.982  30.053  0.00  0.00    +0.130 C 
ATOM     12  C   UNL     1      15.289  -8.644  32.871  0.00  0.00    +0.117 C 
ATOM     13  C   UNL     1      17.012  -7.800  31.268  0.00  0.00    +0.027 A 
ATOM     14  C   UNL     1      17.132  -6.463  31.260  0.00  0.00    +0.024 A 
ATOM     15  C   UNL     1      17.184  -7.867  28.822  0.00  0.00    +0.273 A 
ATOM     16  C   UNL     1      13.485  -9.077  31.120  0.00  0.00    +0.247 C 
ATOM     17  C   UNL     1      17.287  -6.366  28.840  0.00  0.00    +0.099 A 
ATOM     18  C   UNL     1      17.271  -5.744  30.027  0.00  0.00    +0.030 A 
ENDROOT
BRANCH  16  19
ATOM     19  C   UNL     1      12.943  -7.735  31.349  0.00  0.00    +0.037 A 
ATOM     20  C   UNL     1      13.510  -6.639  30.703  0.00  0.00    +0.013 A 
ATOM     21  C   UNL     1      11.863  -7.561  32.210  0.00  0.00    +0.013 A 
ATOM     23  C   UNL     1      12.995  -5.362  30.921  0.00  0.00    +0.001 A 
ATOM     24  C   UNL     1      11.346  -6.284  32.428  0.00  0.00    +0.001 A 
ATOM     25  C   UNL     1      11.913  -5.183  31.783  0.00  0.00    +0.000 A 
ENDBRANCH  16  19
BRANCH  17   6
ATOM      3  O   UNL     1      15.428  -6.525  26.728  0.00  0.00    -0.270 OA
ATOM      6  N   UNL     1      17.403  -5.746  27.631  0.00  0.00    -0.277 N 
ATOM     22  C   UNL     1      16.455  -5.853  26.610  0.00  0.00    +0.248 C 
ATOM     32  H   UNL     1      18.210  -5.140  27.522  0.00  0.00    +0.155 HD
BRANCH  22  26
ATOM     26  C   UNL     1      16.745  -5.083  25.390  0.00  0.00    +0.037 A 
ATOM     27  C   UNL     1      17.004  -5.757  24.206  0.00  0.00    +0.013 A 
ATOM     28  C   UNL     1      16.755  -3.699  25.446  0.00  0.00    +0.013 A 
ATOM     29  C   UNL     1      17.280  -5.027  23.050  0.00  0.00    +0.001 A 
ATOM     30  C   UNL     1      17.030  -2.968  24.289  0.00  0.00    +0.001 A 
ATOM     31  C   UNL     1      17.292  -3.632  23.091  0.00  0.00    +0.000 A 
ENDBRANCH  22  26
ENDBRANCH  17   6
TORSDOF 3
ENDMDL
