MODEL 1
REMARK VINA RESULT:       1.7      0.000      0.000
REMARK  Name = 11886156
REMARK  7 active torsions:
REMARK  status: ('A' for Active; 'I' for Inactive)
REMARK    1  A    between atoms: N_7  and  C_16
REMARK    2  A    between atoms: N_8  and  C_17
REMARK    3  A    between atoms: N_10  and  C_27
REMARK    4  A    between atoms: N_13  and  C_33
REMARK    5  A    between atoms: C_20  and  C_22
REMARK    6  A    between atoms: C_27  and  C_29
REMARK    7  A    between atoms: C_36  and  C_39
REMARK                            x       y       z     vdW  Elec       q    Type
REMARK                         _______ _______ _______ _____ _____    ______ ____
ROOT
ATOM      4  O   UNL     1      -2.545   3.979  27.065  0.00  0.00    -0.370 OA
ATOM      5  O   UNL     1      -2.745   5.467  24.301  0.00  0.00    -0.370 OA
ATOM     14  C   UNL     1      -3.161   4.171  24.770  0.00  0.00    +0.176 C 
ATOM     15  C   UNL     1      -2.098   3.681  25.732  0.00  0.00    +0.171 C 
ATOM     16  C   UNL     1      -4.414   4.307  25.616  0.00  0.00    +0.168 C 
ATOM     17  C   UNL     1      -0.876   4.504  25.393  0.00  0.00    +0.131 C 
ATOM     18  C   UNL     1      -3.858   4.553  27.014  0.00  0.00    +0.190 C 
ATOM     19  C   UNL     1      -1.489   5.804  24.905  0.00  0.00    +0.185 C 
ENDROOT
BRANCH  17   8
ATOM      6  O   UNL     1       0.607   2.063  25.610  0.00  0.00    -0.252 OA
ATOM      8  N   UNL     1      -0.094   3.875  24.357  0.00  0.00    -0.292 N 
ATOM     13  N   UNL     1       1.269   2.310  23.371  0.00  0.00    -0.269 N 
ATOM     21  C   UNL     1       0.605   2.676  24.545  0.00  0.00    +0.304 C 
ATOM     40  H   UNL     1       0.012   4.357  23.468  0.00  0.00    +0.151 HD
ATOM     41  H   UNL     1       1.162   2.933  22.574  0.00  0.00    +0.156 HD
BRANCH  13  33
ATOM     33  C   UNL     1       2.078   1.171  23.151  0.00  0.00    +0.035 A 
ATOM     34  C   UNL     1       3.417   1.181  23.543  0.00  0.00    +0.035 A 
ATOM     35  C   UNL     1       1.537   0.039  22.542  0.00  0.00    +0.023 A 
ATOM     36  C   UNL     1       4.215   0.057  23.325  0.00  0.00    +0.057 A 
ATOM     37  C   UNL     1       2.334  -1.084  22.324  0.00  0.00    +0.002 A 
ATOM     38  C   UNL     1       3.673  -1.076  22.715  0.00  0.00    +0.012 A 
BRANCH  36  39
ATOM      1  F   UNL     1       6.509  -0.303  22.752  0.00  0.00    -0.166 F 
ATOM      2  F   UNL     1       6.086   1.291  24.160  0.00  0.00    -0.166 F 
ATOM      3  F   UNL     1       5.895  -0.784  24.781  0.00  0.00    -0.166 F 
ATOM     39  C   UNL     1       5.646   0.066  23.744  0.00  0.00    +0.417 C 
ENDBRANCH  36  39
ENDBRANCH  13  33
ENDBRANCH  17   8
BRANCH  16   7
ATOM      7  N   UNL     1      -5.301   3.147  25.495  0.00  0.00    -0.217 N 
ATOM      9  N   UNL     1      -6.488   3.125  26.119  0.00  0.00    -0.043 NA
ATOM     11  N   UNL     1      -6.179   1.231  24.984  0.00  0.00    -0.108 NA
ATOM     12  N   UNL     1      -7.020   1.952  25.802  0.00  0.00    -0.023 NA
ATOM     20  C   UNL     1      -5.122   1.990  24.808  0.00  0.00    +0.182 A 
BRANCH  20  22
ATOM     22  C   UNL     1      -3.953   1.679  24.024  0.00  0.00    +0.021 A 
ATOM     28  C   UNL     1      -3.043   0.725  24.477  0.00  0.00    +0.016 A 
ATOM     29  C   UNL     1      -1.912   0.424  23.717  0.00  0.00    -0.033 A 
ATOM     30  C   UNL     1      -3.733   2.334  22.812  0.00  0.00    +0.011 A 
ATOM     31  C   UNL     1      -1.692   1.079  22.505  0.00  0.00    +0.005 A 
ATOM     32  C   UNL     1      -2.602   2.033  22.052  0.00  0.00    +0.001 A 
BRANCH  29  27
ATOM     27  C   UNL     1      -0.939  -0.597  24.201  0.00  0.00    +0.119 C 
BRANCH  27  10
ATOM     10  N   UNL     1      -1.598  -1.755  24.788  0.00  0.00    -0.298 NA
ATOM     23  C   UNL     1      -2.387  -1.409  25.970  0.00  0.00    +0.085 C 
ATOM     24  C   UNL     1      -2.547  -2.383  23.870  0.00  0.00    +0.085 C 
ATOM     25  C   UNL     1      -3.264  -2.635  26.167  0.00  0.00    +0.017 C 
ATOM     26  C   UNL     1      -3.367  -3.278  24.787  0.00  0.00    +0.017 C 
ENDBRANCH  27  10
ENDBRANCH  29  27
ENDBRANCH  20  22
ENDBRANCH  16   7
TORSDOF 7
ENDMDL
MODEL 2
REMARK VINA RESULT:       5.3      2.494      4.349
REMARK  Name = 11886156
REMARK  7 active torsions:
REMARK  status: ('A' for Active; 'I' for Inactive)
REMARK    1  A    between atoms: N_7  and  C_16
REMARK    2  A    between atoms: N_8  and  C_17
REMARK    3  A    between atoms: N_10  and  C_27
REMARK    4  A    between atoms: N_13  and  C_33
REMARK    5  A    between atoms: C_20  and  C_22
REMARK    6  A    between atoms: C_27  and  C_29
REMARK    7  A    between atoms: C_36  and  C_39
REMARK                            x       y       z     vdW  Elec       q    Type
REMARK                         _______ _______ _______ _____ _____    ______ ____
ROOT
ATOM      4  O   UNL     1      -4.554   0.094  23.512  0.00  0.00    -0.370 OA
ATOM      5  O   UNL     1      -3.634  -0.675  26.419  0.00  0.00    -0.370 OA
ATOM     14  C   UNL     1      -3.609   0.543  25.654  0.00  0.00    +0.176 C 
ATOM     15  C   UNL     1      -3.304   0.164  24.218  0.00  0.00    +0.171 C 
ATOM     16  C   UNL     1      -4.999   1.150  25.606  0.00  0.00    +0.168 C 
ATOM     17  C   UNL     1      -2.680  -1.209  24.318  0.00  0.00    +0.131 C 
ATOM     18  C   UNL     1      -5.622   0.482  24.385  0.00  0.00    +0.190 C 
ATOM     19  C   UNL     1      -3.355  -1.782  25.550  0.00  0.00    +0.185 C 
ENDROOT
BRANCH  17   8
ATOM      6  O   UNL     1      -0.761  -0.326  22.383  0.00  0.00    -0.252 OA
ATOM      8  N   UNL     1      -1.251  -1.121  24.498  0.00  0.00    -0.292 N 
ATOM     13  N   UNL     1       0.941  -0.699  23.957  0.00  0.00    -0.269 N 
ATOM     21  C   UNL     1      -0.379  -0.677  23.497  0.00  0.00    +0.304 C 
ATOM     40  H   UNL     1      -0.851  -1.461  25.368  0.00  0.00    +0.151 HD
ATOM     41  H   UNL     1       1.086  -1.019  24.912  0.00  0.00    +0.156 HD
BRANCH  13  33
ATOM     33  C   UNL     1       2.111  -0.328  23.255  0.00  0.00    +0.035 A 
ATOM     34  C   UNL     1       3.343  -0.313  23.910  0.00  0.00    +0.035 A 
ATOM     35  C   UNL     1       2.033   0.022  21.907  0.00  0.00    +0.023 A 
ATOM     36  C   UNL     1       4.497   0.054  23.216  0.00  0.00    +0.057 A 
ATOM     37  C   UNL     1       3.186   0.389  21.214  0.00  0.00    +0.002 A 
ATOM     38  C   UNL     1       4.418   0.405  21.868  0.00  0.00    +0.012 A 
BRANCH  36  39
ATOM      1  F   UNL     1       5.873  -0.772  24.989  0.00  0.00    -0.166 F 
ATOM      2  F   UNL     1       6.861  -0.293  23.118  0.00  0.00    -0.166 F 
ATOM      3  F   UNL     1       6.134   1.305  24.401  0.00  0.00    -0.166 F 
ATOM     39  C   UNL     1       5.813   0.071  23.916  0.00  0.00    +0.417 C 
ENDBRANCH  36  39
ENDBRANCH  13  33
ENDBRANCH  17   8
BRANCH  16   7
ATOM      7  N   UNL     1      -4.972   2.615  25.567  0.00  0.00    -0.217 N 
ATOM      9  N   UNL     1      -6.101   3.325  25.703  0.00  0.00    -0.043 NA
ATOM     11  N   UNL     1      -4.361   4.691  25.432  0.00  0.00    -0.108 NA
ATOM     12  N   UNL     1      -5.721   4.593  25.620  0.00  0.00    -0.023 NA
ATOM     20  C   UNL     1      -3.918   3.455  25.402  0.00  0.00    +0.182 A 
BRANCH  20  22
ATOM     22  C   UNL     1      -2.553   3.027  25.227  0.00  0.00    +0.021 A 
ATOM     28  C   UNL     1      -1.846   2.492  26.303  0.00  0.00    +0.016 A 
ATOM     29  C   UNL     1      -0.525   2.077  26.133  0.00  0.00    -0.033 A 
ATOM     30  C   UNL     1      -1.939   3.150  23.981  0.00  0.00    +0.011 A 
ATOM     31  C   UNL     1       0.089   2.199  24.886  0.00  0.00    +0.005 A 
ATOM     32  C   UNL     1      -0.618   2.735  23.810  0.00  0.00    +0.001 A 
BRANCH  29  27
ATOM     27  C   UNL     1       0.230   1.502  27.283  0.00  0.00    +0.119 C 
BRANCH  27  10
ATOM     10  N   UNL     1       0.844   2.530  28.111  0.00  0.00    -0.298 NA
ATOM     23  C   UNL     1       0.739   2.232  29.539  0.00  0.00    +0.085 C 
ATOM     24  C   UNL     1       2.278   2.668  27.857  0.00  0.00    +0.085 C 
ATOM     25  C   UNL     1       1.750   3.183  30.162  0.00  0.00    +0.017 C 
ATOM     26  C   UNL     1       2.759   3.473  29.055  0.00  0.00    +0.017 C 
ENDBRANCH  27  10
ENDBRANCH  29  27
ENDBRANCH  20  22
ENDBRANCH  16   7
TORSDOF 7
ENDMDL
