MODEL 1
REMARK VINA RESULT:       7.7      0.000      0.000
REMARK  Name = 11911838
REMARK  8 active torsions:
REMARK  status: ('A' for Active; 'I' for Inactive)
REMARK    1  A    between atoms: N_7  and  C_14
REMARK    2  A    between atoms: N_8  and  C_15
REMARK    3  A    between atoms: N_11  and  C_35
REMARK    4  A    between atoms: N_11  and  C_36
REMARK    5  A    between atoms: N_11  and  C_37
REMARK    6  A    between atoms: C_18  and  C_20
REMARK    7  A    between atoms: C_21  and  C_26
REMARK    8  A    between atoms: C_29  and  C_32
REMARK                            x       y       z     vdW  Elec       q    Type
REMARK                         _______ _______ _______ _____ _____    ______ ____
ROOT
ATOM      4  O   UNL     1      -2.954  -1.268  26.108  0.00  0.00    -0.370 OA
ATOM      5  O   UNL     1      -4.254  -1.477  23.279  0.00  0.00    -0.370 OA
ATOM     12  C   UNL     1      -2.975  -1.013  23.743  0.00  0.00    +0.171 C 
ATOM     13  C   UNL     1      -3.202  -0.310  25.066  0.00  0.00    +0.171 C 
ATOM     14  C   UNL     1      -2.088  -2.186  24.098  0.00  0.00    +0.130 C 
ATOM     15  C   UNL     1      -4.665   0.066  25.038  0.00  0.00    +0.130 C 
ATOM     16  C   UNL     1      -2.523  -2.504  25.518  0.00  0.00    +0.185 C 
ATOM     17  C   UNL     1      -5.274  -1.031  24.185  0.00  0.00    +0.185 C 
ENDROOT
BRANCH  15   8
ATOM      8  N   UNL     1      -4.834   1.351  24.395  0.00  0.00    -0.306 N 
ATOM      9  N   UNL     1      -2.921   2.241  25.425  0.00  0.00    -0.214 NA
ATOM     10  N   UNL     1      -4.250   3.573  23.918  0.00  0.00    -0.223 NA
ATOM     19  C   UNL     1      -3.976   2.420  24.586  0.00  0.00    +0.216 A 
ATOM     21  C   UNL     1      -2.106   3.303  25.586  0.00  0.00    +0.076 A 
ATOM     24  C   UNL     1      -3.392   4.594  24.126  0.00  0.00    +0.116 A 
ATOM     25  C   UNL     1      -2.293   4.516  24.957  0.00  0.00    +0.048 A 
ATOM     39  H   UNL     1      -5.586   1.479  23.728  0.00  0.00    +0.149 HD
BRANCH  21  26
ATOM     26  C   UNL     1      -0.993   3.090  26.480  0.00  0.00    +0.001 A 
ATOM     30  C   UNL     1       0.295   2.918  25.968  0.00  0.00    +0.012 A 
ATOM     31  C   UNL     1      -1.200   3.055  27.861  0.00  0.00    +0.012 A 
ATOM     33  C   UNL     1       1.370   2.711  26.831  0.00  0.00    +0.024 A 
ATOM     34  C   UNL     1      -0.125   2.849  28.725  0.00  0.00    +0.024 A 
ATOM     35  C   UNL     1       1.160   2.677  28.211  0.00  0.00    +0.029 A 
BRANCH  35  11
ATOM     11  N   UNL     1       2.248   2.468  29.084  0.00  0.00    -0.336 N 
ATOM     36  C   UNL     1       2.033   1.899  30.400  0.00  0.00    +0.129 C 
ATOM     37  C   UNL     1       3.592   2.833  28.684  0.00  0.00    +0.129 C 
ENDBRANCH  35  11
ENDBRANCH  21  26
ENDBRANCH  15   8
BRANCH  14   7
ATOM      6  O   UNL     1      -0.987   0.219  22.981  0.00  0.00    -0.270 OA
ATOM      7  N   UNL     1      -0.693  -1.820  24.048  0.00  0.00    -0.304 N 
ATOM     18  C   UNL     1      -0.255  -0.629  23.484  0.00  0.00    +0.244 C 
ATOM     38  H   UNL     1      -0.024  -2.524  24.340  0.00  0.00    +0.149 HD
BRANCH  18  20
ATOM     20  C   UNL     1       1.214  -0.412  23.487  0.00  0.00    +0.037 A 
ATOM     22  C   UNL     1       1.703   0.837  23.167  0.00  0.00    +0.013 A 
ATOM     23  C   UNL     1       2.043  -1.467  23.809  0.00  0.00    +0.013 A 
ATOM     27  C   UNL     1       3.084   1.041  23.168  0.00  0.00    +0.013 A 
ATOM     28  C   UNL     1       3.423  -1.264  23.810  0.00  0.00    +0.013 A 
ATOM     29  C   UNL     1       3.943  -0.010  23.490  0.00  0.00    +0.055 A 
BRANCH  29  32
ATOM      1  F   UNL     1       5.780   1.502  23.733  0.00  0.00    -0.166 F 
ATOM      2  F   UNL     1       6.021  -0.115  22.309  0.00  0.00    -0.166 F 
ATOM      3  F   UNL     1       6.057  -0.535  24.442  0.00  0.00    -0.166 F 
ATOM     32  C   UNL     1       5.418   0.208  23.492  0.00  0.00    +0.417 C 
ENDBRANCH  29  32
ENDBRANCH  18  20
ENDBRANCH  14   7
TORSDOF 6
ENDMDL
