MODEL 1
REMARK VINA RESULT:       0.5      0.000      0.000
REMARK  Name = 75536084
REMARK  6 active torsions:
REMARK  status: ('A' for Active; 'I' for Inactive)
REMARK    1  A    between atoms: O_5  and  C_13
REMARK    2  A    between atoms: O_6  and  C_15
REMARK    3  A    between atoms: N_8  and  C_12
REMARK    4  A    between atoms: C_11  and  C_16
REMARK    5  A    between atoms: C_19  and  C_22
REMARK    6  A    between atoms: C_21  and  C_23
REMARK                            x       y       z     vdW  Elec       q    Type
REMARK                         _______ _______ _______ _____ _____    ______ ____
ROOT
ATOM     11  C   UNL     1      -2.401  -0.888  25.498  0.00  0.00    +0.046 C 
ATOM     12  C   UNL     1      -1.773  -1.514  24.233  0.00  0.00    +0.112 C 
ATOM     13  C   UNL     1      -2.115  -2.997  24.361  0.00  0.00    +0.164 C 
ATOM     14  C   UNL     1      -3.521  -1.866  25.941  0.00  0.00    +0.044 C 
ATOM     15  C   UNL     1      -3.542  -2.979  24.894  0.00  0.00    +0.145 C 
ENDROOT
BRANCH  11  16
ATOM      9  N   UNL     1      -2.337   2.896  25.243  0.00  0.00    -0.251 NA
ATOM     16  C   UNL     1      -2.866   0.537  25.287  0.00  0.00    -0.024 A 
ATOM     17  C   UNL     1      -4.187   0.819  24.957  0.00  0.00    +0.007 A 
ATOM     18  C   UNL     1      -1.988   1.601  25.417  0.00  0.00    +0.115 A 
ATOM     20  C   UNL     1      -4.585   2.138  24.770  0.00  0.00    +0.032 A 
ATOM     21  C   UNL     1      -3.630   3.131  24.923  0.00  0.00    +0.144 A 
BRANCH  21  23
ATOM      2  F   UNL     1      -3.095   5.428  25.225  0.00  0.00    -0.164 F 
ATOM      3  F   UNL     1      -4.186   4.906  23.418  0.00  0.00    -0.164 F 
ATOM      4  F   UNL     1      -5.199   4.889  25.336  0.00  0.00    -0.164 F 
ATOM     23  C   UNL     1      -4.021   4.558  24.728  0.00  0.00    +0.434 C 
ENDBRANCH  21  23
ENDBRANCH  11  16
BRANCH  12   8
ATOM      7  O   UNL     1      -0.408   0.428  22.616  0.00  0.00    -0.268 OA
ATOM      8  N   UNL     1      -0.350  -1.293  24.170  0.00  0.00    -0.304 N 
ATOM     19  C   UNL     1       0.221  -0.326  23.354  0.00  0.00    +0.270 C 
ATOM     30  H   UNL     1       0.253  -1.845  24.774  0.00  0.00    +0.149 HD
BRANCH  19  22
ATOM      1  S   UNL     1       2.499   1.223  22.997  0.00  0.00    -0.063 S 
ATOM     10  N   UNL     1       2.471  -1.258  23.701  0.00  0.00    -0.234 NA
ATOM     22  C   UNL     1       1.704  -0.241  23.384  0.00  0.00    +0.164 A 
ATOM     24  C   UNL     1       4.020   0.459  23.270  0.00  0.00    +0.040 A 
ATOM     25  C   UNL     1       3.802  -0.872  23.640  0.00  0.00    +0.079 A 
ATOM     26  C   UNL     1       5.313   0.997  23.164  0.00  0.00    +0.017 A 
ATOM     27  C   UNL     1       4.920  -1.691  23.914  0.00  0.00    +0.029 A 
ATOM     28  C   UNL     1       6.400   0.166  23.441  0.00  0.00    +0.001 A 
ATOM     29  C   UNL     1       6.209  -1.161  23.811  0.00  0.00    +0.002 A 
ENDBRANCH  19  22
ENDBRANCH  12   8
BRANCH  13   5
ATOM      5  O   UNL     1      -2.042  -3.674  23.120  0.00  0.00    -0.387 OA
ATOM     31  H   UNL     1      -2.904  -3.574  22.682  0.00  0.00    +0.210 HD
ENDBRANCH  13   5
BRANCH  15   6
ATOM      6  O   UNL     1      -4.465  -2.623  23.870  0.00  0.00    -0.389 OA
ATOM     32  H   UNL     1      -4.174  -1.775  23.494  0.00  0.00    +0.210 HD
ENDBRANCH  15   6
TORSDOF 6
ENDMDL
