MODEL 1
REMARK VINA RESULT:      -5.3      0.000      0.000
REMARK  Name = 75536649
REMARK  7 active torsions:
REMARK  status: ('A' for Active; 'I' for Inactive)
REMARK    1  A    between atoms: O_4  and  C_9
REMARK    2  A    between atoms: N_6  and  C_8
REMARK    3  A    between atoms: N_6  and  C_13
REMARK    4  A    between atoms: N_7  and  C_12
REMARK    5  A    between atoms: C_10  and  C_12
REMARK    6  A    between atoms: C_13  and  C_14
REMARK    7  A    between atoms: C_15  and  C_18
REMARK                            x       y       z     vdW  Elec       q    Type
REMARK                         _______ _______ _______ _____ _____    ______ ____
ROOT
ATOM      3  O   UNL     1      -1.325  -2.010  23.518  0.00  0.00    -0.371 OA
ATOM      8  C   UNL     1       0.135  -0.587  24.736  0.00  0.00    +0.111 C 
ATOM      9  C   UNL     1      -1.169  -0.729  25.499  0.00  0.00    +0.164 C 
ATOM     10  C   UNL     1      -1.722  -2.014  24.899  0.00  0.00    +0.165 C 
ATOM     11  C   UNL     1      -0.281  -1.037  23.344  0.00  0.00    +0.181 C 
ENDROOT
BRANCH   9   4
ATOM      4  O   UNL     1      -0.975  -0.839  26.896  0.00  0.00    -0.388 OA
ATOM     28  H   UNL     1      -0.108  -1.252  27.052  0.00  0.00    +0.210 HD
ENDBRANCH   9   4
BRANCH   8   6
ATOM      6  N   UNL     1       0.679   0.762  24.756  0.00  0.00    -0.305 NA
ATOM     27  H   UNL     1       1.656   0.730  24.464  0.00  0.00    +0.123 HD
BRANCH   6  13
ATOM     13  C   UNL     1      -0.056   1.637  23.850  0.00  0.00    +0.119 C 
BRANCH  13  14
ATOM      1  F   UNL     1       0.204   4.347  23.064  0.00  0.00    -0.205 F 
ATOM     14  C   UNL     1      -0.718   2.773  24.584  0.00  0.00    +0.002 A 
ATOM     16  C   UNL     1      -0.549   4.085  24.142  0.00  0.00    +0.128 A 
ATOM     17  C   UNL     1      -1.501   2.511  25.708  0.00  0.00    +0.008 A 
ATOM     19  C   UNL     1      -1.163   5.136  24.824  0.00  0.00    +0.038 A 
ATOM     20  C   UNL     1      -2.114   3.562  26.390  0.00  0.00    +0.000 A 
ATOM     21  C   UNL     1      -1.945   4.873  25.949  0.00  0.00    +0.003 A 
ENDBRANCH  13  14
ENDBRANCH   6  13
ENDBRANCH   8   6
BRANCH  10  12
ATOM     12  C   UNL     1      -3.233  -2.122  24.999  0.00  0.00    +0.138 C 
BRANCH  12   7
ATOM      5  O   UNL     1      -3.627  -0.046  23.056  0.00  0.00    -0.270 OA
ATOM      7  N   UNL     1      -3.834  -0.839  25.226  0.00  0.00    -0.309 N 
ATOM     15  C   UNL     1      -3.985   0.109  24.220  0.00  0.00    +0.244 C 
ATOM     29  H   UNL     1      -4.088  -0.620  26.183  0.00  0.00    +0.149 HD
BRANCH  15  18
ATOM      2  F   UNL     1      -6.319   4.985  25.740  0.00  0.00    -0.205 F 
ATOM     18  C   UNL     1      -4.603   1.400  24.622  0.00  0.00    +0.037 A 
ATOM     22  C   UNL     1      -5.473   1.446  25.711  0.00  0.00    +0.016 A 
ATOM     23  C   UNL     1      -4.313   2.563  23.911  0.00  0.00    +0.016 A 
ATOM     24  C   UNL     1      -6.053   2.657  26.089  0.00  0.00    +0.039 A 
ATOM     25  C   UNL     1      -4.893   3.775  24.288  0.00  0.00    +0.039 A 
ATOM     26  C   UNL     1      -5.763   3.821  25.377  0.00  0.00    +0.123 A 
ENDBRANCH  15  18
ENDBRANCH  12   7
ENDBRANCH  10  12
TORSDOF 7
ENDMDL
MODEL 2
REMARK VINA RESULT:      -4.6      2.600      4.938
REMARK  Name = 75536649
REMARK  7 active torsions:
REMARK  status: ('A' for Active; 'I' for Inactive)
REMARK    1  A    between atoms: O_4  and  C_9
REMARK    2  A    between atoms: N_6  and  C_8
REMARK    3  A    between atoms: N_6  and  C_13
REMARK    4  A    between atoms: N_7  and  C_12
REMARK    5  A    between atoms: C_10  and  C_12
REMARK    6  A    between atoms: C_13  and  C_14
REMARK    7  A    between atoms: C_15  and  C_18
REMARK                            x       y       z     vdW  Elec       q    Type
REMARK                         _______ _______ _______ _____ _____    ______ ____
ROOT
ATOM      3  O   UNL     1       0.247   3.245  23.515  0.00  0.00    -0.371 OA
ATOM      8  C   UNL     1      -0.772   3.902  25.557  0.00  0.00    +0.111 C 
ATOM      9  C   UNL     1      -0.341   2.451  25.664  0.00  0.00    +0.164 C 
ATOM     10  C   UNL     1       0.708   2.375  24.563  0.00  0.00    +0.165 C 
ATOM     11  C   UNL     1      -0.773   4.105  24.050  0.00  0.00    +0.181 C 
ENDROOT
BRANCH   9   4
ATOM      4  O   UNL     1       0.201   2.135  26.932  0.00  0.00    -0.388 OA
ATOM     28  H   UNL     1      -0.125   1.255  27.192  0.00  0.00    +0.210 HD
ENDBRANCH   9   4
BRANCH   8   6
ATOM      6  N   UNL     1      -2.065   4.173  26.165  0.00  0.00    -0.305 NA
ATOM     27  H   UNL     1      -1.973   4.964  26.803  0.00  0.00    +0.123 HD
BRANCH   6  13
ATOM     13  C   UNL     1      -3.063   4.497  25.152  0.00  0.00    +0.119 C 
BRANCH  13  14
ATOM      1  F   UNL     1      -3.587   2.763  22.973  0.00  0.00    -0.205 F 
ATOM     14  C   UNL     1      -4.196   3.504  25.145  0.00  0.00    +0.002 A 
ATOM     16  C   UNL     1      -4.397   2.680  24.039  0.00  0.00    +0.128 A 
ATOM     17  C   UNL     1      -5.045   3.412  26.247  0.00  0.00    +0.008 A 
ATOM     19  C   UNL     1      -5.448   1.762  24.034  0.00  0.00    +0.038 A 
ATOM     20  C   UNL     1      -6.096   2.495  26.243  0.00  0.00    +0.000 A 
ATOM     21  C   UNL     1      -6.297   1.670  25.137  0.00  0.00    +0.003 A 
ENDBRANCH  13  14
ENDBRANCH   6  13
ENDBRANCH   8   6
BRANCH  10  12
ATOM     12  C   UNL     1       0.904   0.971  24.017  0.00  0.00    +0.138 C 
BRANCH  12   7
ATOM      5  O   UNL     1       0.059  -1.336  25.501  0.00  0.00    -0.270 OA
ATOM      7  N   UNL     1      -0.347   0.282  23.889  0.00  0.00    -0.309 N 
ATOM     15  C   UNL     1      -0.674  -0.833  24.654  0.00  0.00    +0.244 C 
ATOM     29  H   UNL     1      -0.971   0.604  23.157  0.00  0.00    +0.149 HD
BRANCH  15  18
ATOM      2  F   UNL     1      -5.681  -3.161  23.633  0.00  0.00    -0.205 F 
ATOM     18  C   UNL     1      -1.999  -1.449  24.384  0.00  0.00    +0.037 A 
ATOM     22  C   UNL     1      -3.096  -0.641  24.086  0.00  0.00    +0.016 A 
ATOM     23  C   UNL     1      -2.145  -2.835  24.429  0.00  0.00    +0.016 A 
ATOM     24  C   UNL     1      -4.339  -1.218  23.833  0.00  0.00    +0.039 A 
ATOM     25  C   UNL     1      -3.390  -3.413  24.175  0.00  0.00    +0.039 A 
ATOM     26  C   UNL     1      -4.486  -2.605  23.877  0.00  0.00    +0.123 A 
ENDBRANCH  15  18
ENDBRANCH  12   7
ENDBRANCH  10  12
TORSDOF 7
ENDMDL
MODEL 3
REMARK VINA RESULT:      -4.5      2.368      3.805
REMARK  Name = 75536649
REMARK  7 active torsions:
REMARK  status: ('A' for Active; 'I' for Inactive)
REMARK    1  A    between atoms: O_4  and  C_9
REMARK    2  A    between atoms: N_6  and  C_8
REMARK    3  A    between atoms: N_6  and  C_13
REMARK    4  A    between atoms: N_7  and  C_12
REMARK    5  A    between atoms: C_10  and  C_12
REMARK    6  A    between atoms: C_13  and  C_14
REMARK    7  A    between atoms: C_15  and  C_18
REMARK                            x       y       z     vdW  Elec       q    Type
REMARK                         _______ _______ _______ _____ _____    ______ ____
ROOT
ATOM      3  O   UNL     1      -1.452  -2.738  24.071  0.00  0.00    -0.371 OA
ATOM      8  C   UNL     1       0.082  -0.956  24.404  0.00  0.00    +0.111 C 
ATOM      9  C   UNL     1      -1.149  -0.714  25.258  0.00  0.00    +0.164 C 
ATOM     10  C   UNL     1      -1.730  -2.120  25.339  0.00  0.00    +0.165 C 
ATOM     11  C   UNL     1      -0.444  -1.966  23.397  0.00  0.00    +0.181 C 
ENDROOT
BRANCH   9   4
ATOM      4  O   UNL     1      -0.835  -0.198  26.537  0.00  0.00    -0.388 OA
ATOM     28  H   UNL     1      -1.153  -0.828  27.207  0.00  0.00    +0.210 HD
ENDBRANCH   9   4
BRANCH   8   6
ATOM      6  N   UNL     1       0.603   0.249  23.778  0.00  0.00    -0.305 NA
ATOM     27  H   UNL     1       1.138   0.777  24.467  0.00  0.00    +0.123 HD
BRANCH   6  13
ATOM     13  C   UNL     1       1.472  -0.078  22.654  0.00  0.00    +0.119 C 
BRANCH  13  14
ATOM      1  F   UNL     1       3.300   2.085  22.560  0.00  0.00    -0.205 F 
ATOM     14  C   UNL     1       2.913  -0.199  23.077  0.00  0.00    +0.002 A 
ATOM     16  C   UNL     1       3.758   0.907  23.007  0.00  0.00    +0.128 A 
ATOM     17  C   UNL     1       3.400  -1.421  23.540  0.00  0.00    +0.008 A 
ATOM     19  C   UNL     1       5.093   0.792  23.398  0.00  0.00    +0.038 A 
ATOM     20  C   UNL     1       4.733  -1.537  23.932  0.00  0.00    +0.000 A 
ATOM     21  C   UNL     1       5.580  -0.431  23.860  0.00  0.00    +0.003 A 
ENDBRANCH  13  14
ENDBRANCH   6  13
ENDBRANCH   8   6
BRANCH  10  12
ATOM     12  C   UNL     1      -3.225  -2.138  25.603  0.00  0.00    +0.138 C 
BRANCH  12   7
ATOM      5  O   UNL     1      -4.076  -0.453  23.440  0.00  0.00    -0.270 OA
ATOM      7  N   UNL     1      -3.752  -0.807  25.710  0.00  0.00    -0.309 N 
ATOM     15  C   UNL     1      -4.141  -0.061  24.602  0.00  0.00    +0.244 C 
ATOM     29  H   UNL     1      -3.766  -0.397  26.637  0.00  0.00    +0.149 HD
BRANCH  15  18
ATOM      2  F   UNL     1      -6.037   5.120  25.644  0.00  0.00    -0.205 F 
ATOM     18  C   UNL     1      -4.643   1.310  24.878  0.00  0.00    +0.037 A 
ATOM     22  C   UNL     1      -3.944   2.417  24.398  0.00  0.00    +0.016 A 
ATOM     23  C   UNL     1      -5.811   1.489  25.617  0.00  0.00    +0.016 A 
ATOM     24  C   UNL     1      -4.415   3.704  24.656  0.00  0.00    +0.039 A 
ATOM     25  C   UNL     1      -6.282   2.777  25.876  0.00  0.00    +0.039 A 
ATOM     26  C   UNL     1      -5.584   3.884  25.396  0.00  0.00    +0.123 A 
ENDBRANCH  15  18
ENDBRANCH  12   7
ENDBRANCH  10  12
TORSDOF 7
ENDMDL
MODEL 4
REMARK VINA RESULT:      -4.2      2.913      5.212
REMARK  Name = 75536649
REMARK  7 active torsions:
REMARK  status: ('A' for Active; 'I' for Inactive)
REMARK    1  A    between atoms: O_4  and  C_9
REMARK    2  A    between atoms: N_6  and  C_8
REMARK    3  A    between atoms: N_6  and  C_13
REMARK    4  A    between atoms: N_7  and  C_12
REMARK    5  A    between atoms: C_10  and  C_12
REMARK    6  A    between atoms: C_13  and  C_14
REMARK    7  A    between atoms: C_15  and  C_18
REMARK                            x       y       z     vdW  Elec       q    Type
REMARK                         _______ _______ _______ _____ _____    ______ ____
ROOT
ATOM      3  O   UNL     1      -3.671   3.804  26.871  0.00  0.00    -0.371 OA
ATOM      8  C   UNL     1      -2.029   4.477  25.292  0.00  0.00    +0.111 C 
ATOM      9  C   UNL     1      -3.274   4.026  24.550  0.00  0.00    +0.164 C 
ATOM     10  C   UNL     1      -4.328   4.154  25.642  0.00  0.00    +0.165 C 
ATOM     11  C   UNL     1      -2.249   3.848  26.659  0.00  0.00    +0.181 C 
ENDROOT
BRANCH   9   4
ATOM      4  O   UNL     1      -3.569   4.843  23.433  0.00  0.00    -0.388 OA
ATOM     28  H   UNL     1      -4.469   5.196  23.543  0.00  0.00    +0.210 HD
ENDBRANCH   9   4
BRANCH   8   6
ATOM      6  N   UNL     1      -0.789   4.049  24.665  0.00  0.00    -0.305 NA
ATOM     27  H   UNL     1      -0.185   4.860  24.535  0.00  0.00    +0.123 HD
BRANCH   6  13
ATOM     13  C   UNL     1      -0.094   3.070  25.493  0.00  0.00    +0.119 C 
BRANCH  13  14
ATOM      1  F   UNL     1      -1.380   0.683  26.315  0.00  0.00    -0.205 F 
ATOM     14  C   UNL     1       0.079   1.755  24.780  0.00  0.00    +0.002 A 
ATOM     16  C   UNL     1      -0.585   0.618  25.238  0.00  0.00    +0.128 A 
ATOM     17  C   UNL     1       0.907   1.676  23.660  0.00  0.00    +0.008 A 
ATOM     19  C   UNL     1      -0.422  -0.600  24.576  0.00  0.00    +0.038 A 
ATOM     20  C   UNL     1       1.070   0.459  22.998  0.00  0.00    +0.000 A 
ATOM     21  C   UNL     1       0.406  -0.678  23.456  0.00  0.00    +0.003 A 
ENDBRANCH  13  14
ENDBRANCH   6  13
ENDBRANCH   8   6
BRANCH  10  12
ATOM     12  C   UNL     1      -5.529   3.250  25.425  0.00  0.00    +0.138 C 
BRANCH  12   7
ATOM      5  O   UNL     1      -4.046   1.827  23.420  0.00  0.00    -0.270 OA
ATOM      7  N   UNL     1      -5.152   1.866  25.459  0.00  0.00    -0.309 N 
ATOM     15  C   UNL     1      -4.429   1.258  24.438  0.00  0.00    +0.244 C 
ATOM     29  H   UNL     1      -5.499   1.320  26.240  0.00  0.00    +0.149 HD
BRANCH  15  18
ATOM      2  F   UNL     1      -3.337  -4.212  25.092  0.00  0.00    -0.205 F 
ATOM     18  C   UNL     1      -4.140  -0.190  24.611  0.00  0.00    +0.037 A 
ATOM     22  C   UNL     1      -3.725  -0.674  25.851  0.00  0.00    +0.016 A 
ATOM     23  C   UNL     1      -4.284  -1.063  23.534  0.00  0.00    +0.016 A 
ATOM     24  C   UNL     1      -3.453  -2.032  26.014  0.00  0.00    +0.039 A 
ATOM     25  C   UNL     1      -4.012  -2.422  23.696  0.00  0.00    +0.039 A 
ATOM     26  C   UNL     1      -3.597  -2.906  24.936  0.00  0.00    +0.123 A 
ENDBRANCH  15  18
ENDBRANCH  12   7
ENDBRANCH  10  12
TORSDOF 7
ENDMDL
MODEL 5
REMARK VINA RESULT:      -4.0      2.806      6.604
REMARK  Name = 75536649
REMARK  7 active torsions:
REMARK  status: ('A' for Active; 'I' for Inactive)
REMARK    1  A    between atoms: O_4  and  C_9
REMARK    2  A    between atoms: N_6  and  C_8
REMARK    3  A    between atoms: N_6  and  C_13
REMARK    4  A    between atoms: N_7  and  C_12
REMARK    5  A    between atoms: C_10  and  C_12
REMARK    6  A    between atoms: C_13  and  C_14
REMARK    7  A    between atoms: C_15  and  C_18
REMARK                            x       y       z     vdW  Elec       q    Type
REMARK                         _______ _______ _______ _____ _____    ______ ____
ROOT
ATOM      3  O   UNL     1      -3.344   4.022  23.717  0.00  0.00    -0.371 OA
ATOM      8  C   UNL     1      -4.683   2.891  25.319  0.00  0.00    +0.111 C 
ATOM      9  C   UNL     1      -3.400   3.352  25.984  0.00  0.00    +0.164 C 
ATOM     10  C   UNL     1      -2.955   4.453  25.032  0.00  0.00    +0.165 C 
ATOM     11  C   UNL     1      -4.301   2.957  23.849  0.00  0.00    +0.181 C 
ENDROOT
BRANCH   9   4
ATOM      4  O   UNL     1      -3.609   3.840  27.295  0.00  0.00    -0.388 OA
ATOM     28  H   UNL     1      -4.169   3.204  27.772  0.00  0.00    +0.210 HD
ENDBRANCH   9   4
BRANCH   8   6
ATOM      6  N   UNL     1      -5.111   1.564  25.733  0.00  0.00    -0.305 NA
ATOM     27  H   UNL     1      -6.083   1.609  26.040  0.00  0.00    +0.123 HD
BRANCH   6  13
ATOM     13  C   UNL     1      -5.006   0.612  24.633  0.00  0.00    +0.119 C 
BRANCH  13  14
ATOM      1  F   UNL     1      -5.034  -1.998  23.532  0.00  0.00    -0.205 F 
ATOM     14  C   UNL     1      -3.905  -0.389  24.862  0.00  0.00    +0.002 A 
ATOM     16  C   UNL     1      -3.982  -1.658  24.288  0.00  0.00    +0.128 A 
ATOM     17  C   UNL     1      -2.807  -0.045  25.651  0.00  0.00    +0.008 A 
ATOM     19  C   UNL     1      -2.960  -2.584  24.504  0.00  0.00    +0.038 A 
ATOM     20  C   UNL     1      -1.786  -0.971  25.865  0.00  0.00    +0.000 A 
ATOM     21  C   UNL     1      -1.863  -2.240  25.293  0.00  0.00    +0.003 A 
ENDBRANCH  13  14
ENDBRANCH   6  13
ENDBRANCH   8   6
BRANCH  10  12
ATOM     12  C   UNL     1      -1.459   4.710  25.067  0.00  0.00    +0.138 C 
BRANCH  12   7
ATOM      5  O   UNL     1      -0.108   2.444  26.198  0.00  0.00    -0.270 OA
ATOM      7  N   UNL     1      -0.739   3.697  24.351  0.00  0.00    -0.309 N 
ATOM     15  C   UNL     1      -0.113   2.629  24.985  0.00  0.00    +0.244 C 
ATOM     29  H   UNL     1      -0.644   3.828  23.350  0.00  0.00    +0.149 HD
BRANCH  15  18
ATOM      2  F   UNL     1       2.632  -0.967  21.657  0.00  0.00    -0.205 F 
ATOM     18  C   UNL     1       0.614   1.677  24.103  0.00  0.00    +0.037 A 
ATOM     22  C   UNL     1       1.956   1.897  23.796  0.00  0.00    +0.016 A 
ATOM     23  C   UNL     1      -0.048   0.565  23.585  0.00  0.00    +0.016 A 
ATOM     24  C   UNL     1       2.638   1.005  22.970  0.00  0.00    +0.039 A 
ATOM     25  C   UNL     1       0.635  -0.329  22.757  0.00  0.00    +0.039 A 
ATOM     26  C   UNL     1       1.977  -0.109  22.451  0.00  0.00    +0.123 A 
ENDBRANCH  15  18
ENDBRANCH  12   7
ENDBRANCH  10  12
TORSDOF 7
ENDMDL
MODEL 6
REMARK VINA RESULT:      -3.9      1.717      4.224
REMARK  Name = 75536649
REMARK  7 active torsions:
REMARK  status: ('A' for Active; 'I' for Inactive)
REMARK    1  A    between atoms: O_4  and  C_9
REMARK    2  A    between atoms: N_6  and  C_8
REMARK    3  A    between atoms: N_6  and  C_13
REMARK    4  A    between atoms: N_7  and  C_12
REMARK    5  A    between atoms: C_10  and  C_12
REMARK    6  A    between atoms: C_13  and  C_14
REMARK    7  A    between atoms: C_15  and  C_18
REMARK                            x       y       z     vdW  Elec       q    Type
REMARK                         _______ _______ _______ _____ _____    ______ ____
ROOT
ATOM      3  O   UNL     1      -2.224  -1.518  26.772  0.00  0.00    -0.371 OA
ATOM      8  C   UNL     1      -3.527  -2.265  24.933  0.00  0.00    +0.111 C 
ATOM      9  C   UNL     1      -2.120  -1.963  24.452  0.00  0.00    +0.164 C 
ATOM     10  C   UNL     1      -1.343  -2.031  25.759  0.00  0.00    +0.165 C 
ATOM     11  C   UNL     1      -3.564  -1.507  26.251  0.00  0.00    +0.181 C 
ENDROOT
BRANCH   9   4
ATOM      4  O   UNL     1      -1.651  -2.908  23.509  0.00  0.00    -0.388 OA
ATOM     28  H   UNL     1      -2.275  -3.654  23.489  0.00  0.00    +0.210 HD
ENDBRANCH   9   4
BRANCH   8   6
ATOM      6  N   UNL     1      -4.564  -1.839  24.007  0.00  0.00    -0.305 NA
ATOM     27  H   UNL     1      -5.386  -1.550  24.538  0.00  0.00    +0.123 HD
BRANCH   6  13
ATOM     13  C   UNL     1      -4.111  -0.718  23.192  0.00  0.00    +0.119 C 
BRANCH  13  14
ATOM      1  F   UNL     1      -2.915   1.718  22.376  0.00  0.00    -0.205 F 
ATOM     14  C   UNL     1      -4.414   0.607  23.843  0.00  0.00    +0.002 A 
ATOM     16  C   UNL     1      -3.790   1.768  23.390  0.00  0.00    +0.128 A 
ATOM     17  C   UNL     1      -5.321   0.668  24.900  0.00  0.00    +0.008 A 
ATOM     19  C   UNL     1      -4.072   2.993  23.996  0.00  0.00    +0.038 A 
ATOM     20  C   UNL     1      -5.603   1.893  25.506  0.00  0.00    +0.000 A 
ATOM     21  C   UNL     1      -4.979   3.054  25.055  0.00  0.00    +0.003 A 
ENDBRANCH  13  14
ENDBRANCH   6  13
ENDBRANCH   8   6
BRANCH  10  12
ATOM     12  C   UNL     1      -0.058  -1.221  25.737  0.00  0.00    +0.138 C 
BRANCH  12   7
ATOM      5  O   UNL     1      -0.023   0.506  23.444  0.00  0.00    -0.270 OA
ATOM      7  N   UNL     1      -0.330   0.187  25.721  0.00  0.00    -0.309 N 
ATOM     15  C   UNL     1      -0.290   0.949  24.558  0.00  0.00    +0.244 C 
ATOM     29  H   UNL     1      -0.490   0.629  26.620  0.00  0.00    +0.149 HD
BRANCH  15  18
ATOM      2  F   UNL     1      -1.356   6.431  25.143  0.00  0.00    -0.205 F 
ATOM     18  C   UNL     1      -0.572   2.400  24.713  0.00  0.00    +0.037 A 
ATOM     22  C   UNL     1      -0.121   3.304  23.752  0.00  0.00    +0.016 A 
ATOM     23  C   UNL     1      -1.288   2.856  25.819  0.00  0.00    +0.016 A 
ATOM     24  C   UNL     1      -0.385   4.665  23.897  0.00  0.00    +0.039 A 
ATOM     25  C   UNL     1      -1.553   4.219  25.964  0.00  0.00    +0.039 A 
ATOM     26  C   UNL     1      -1.101   5.123  25.004  0.00  0.00    +0.123 A 
ENDBRANCH  15  18
ENDBRANCH  12   7
ENDBRANCH  10  12
TORSDOF 7
ENDMDL
MODEL 7
REMARK VINA RESULT:      -3.2      2.532      5.338
REMARK  Name = 75536649
REMARK  7 active torsions:
REMARK  status: ('A' for Active; 'I' for Inactive)
REMARK    1  A    between atoms: O_4  and  C_9
REMARK    2  A    between atoms: N_6  and  C_8
REMARK    3  A    between atoms: N_6  and  C_13
REMARK    4  A    between atoms: N_7  and  C_12
REMARK    5  A    between atoms: C_10  and  C_12
REMARK    6  A    between atoms: C_13  and  C_14
REMARK    7  A    between atoms: C_15  and  C_18
REMARK                            x       y       z     vdW  Elec       q    Type
REMARK                         _______ _______ _______ _____ _____    ______ ____
ROOT
ATOM      3  O   UNL     1      -5.386   3.184  26.428  0.00  0.00    -0.371 OA
ATOM      8  C   UNL     1      -4.036   4.407  24.905  0.00  0.00    +0.111 C 
ATOM      9  C   UNL     1      -4.319   3.034  24.323  0.00  0.00    +0.164 C 
ATOM     10  C   UNL     1      -5.557   2.631  25.112  0.00  0.00    +0.165 C 
ATOM     11  C   UNL     1      -4.352   4.181  26.375  0.00  0.00    +0.181 C 
ENDROOT
BRANCH   9   4
ATOM      4  O   UNL     1      -4.569   3.072  22.931  0.00  0.00    -0.388 OA
ATOM     28  H   UNL     1      -4.892   3.961  22.703  0.00  0.00    +0.210 HD
ENDBRANCH   9   4
BRANCH   8   6
ATOM      6  N   UNL     1      -2.673   4.865  24.683  0.00  0.00    -0.305 NA
ATOM     27  H   UNL     1      -2.621   5.863  24.886  0.00  0.00    +0.123 HD
BRANCH   6  13
ATOM     13  C   UNL     1      -1.736   4.158  25.548  0.00  0.00    +0.119 C 
BRANCH  13  14
ATOM      1  F   UNL     1       0.643   2.922  26.467  0.00  0.00    -0.205 F 
ATOM     14  C   UNL     1      -1.083   3.001  24.839  0.00  0.00    +0.002 A 
ATOM     16  C   UNL     1       0.088   2.438  25.347  0.00  0.00    +0.128 A 
ATOM     17  C   UNL     1      -1.651   2.492  23.671  0.00  0.00    +0.008 A 
ATOM     19  C   UNL     1       0.691   1.367  24.687  0.00  0.00    +0.038 A 
ATOM     20  C   UNL     1      -1.048   1.422  23.011  0.00  0.00    +0.000 A 
ATOM     21  C   UNL     1       0.123   0.860  23.519  0.00  0.00    +0.003 A 
ENDBRANCH  13  14
ENDBRANCH   6  13
ENDBRANCH   8   6
BRANCH  10  12
ATOM     12  C   UNL     1      -5.745   1.127  25.207  0.00  0.00    +0.138 C 
BRANCH  12   7
ATOM      5  O   UNL     1      -4.852  -1.200  23.782  0.00  0.00    -0.270 OA
ATOM      7  N   UNL     1      -4.489   0.453  25.368  0.00  0.00    -0.309 N 
ATOM     15  C   UNL     1      -4.139  -0.673  24.630  0.00  0.00    +0.244 C 
ATOM     29  H   UNL     1      -3.881   0.796  26.104  0.00  0.00    +0.149 HD
BRANCH  15  18
ATOM      2  F   UNL     1       0.875  -2.927  25.776  0.00  0.00    -0.205 F 
ATOM     18  C   UNL     1      -2.811  -1.269  24.934  0.00  0.00    +0.037 A 
ATOM     22  C   UNL     1      -2.022  -0.732  25.950  0.00  0.00    +0.016 A 
ATOM     23  C   UNL     1      -2.357  -2.365  24.202  0.00  0.00    +0.016 A 
ATOM     24  C   UNL     1      -0.777  -1.292  26.235  0.00  0.00    +0.039 A 
ATOM     25  C   UNL     1      -1.111  -2.926  24.487  0.00  0.00    +0.039 A 
ATOM     26  C   UNL     1      -0.321  -2.389  25.503  0.00  0.00    +0.123 A 
ENDBRANCH  15  18
ENDBRANCH  12   7
ENDBRANCH  10  12
TORSDOF 7
ENDMDL
MODEL 8
REMARK VINA RESULT:      -3.1      1.544      4.452
REMARK  Name = 75536649
REMARK  7 active torsions:
REMARK  status: ('A' for Active; 'I' for Inactive)
REMARK    1  A    between atoms: O_4  and  C_9
REMARK    2  A    between atoms: N_6  and  C_8
REMARK    3  A    between atoms: N_6  and  C_13
REMARK    4  A    between atoms: N_7  and  C_12
REMARK    5  A    between atoms: C_10  and  C_12
REMARK    6  A    between atoms: C_13  and  C_14
REMARK    7  A    between atoms: C_15  and  C_18
REMARK                            x       y       z     vdW  Elec       q    Type
REMARK                         _______ _______ _______ _____ _____    ______ ____
ROOT
ATOM      3  O   UNL     1      -2.063  -2.601  26.006  0.00  0.00    -0.371 OA
ATOM      8  C   UNL     1      -3.370  -2.000  24.116  0.00  0.00    +0.111 C 
ATOM      9  C   UNL     1      -2.128  -1.129  24.156  0.00  0.00    +0.164 C 
ATOM     10  C   UNL     1      -1.212  -1.965  25.038  0.00  0.00    +0.165 C 
ATOM     11  C   UNL     1      -3.423  -2.514  25.546  0.00  0.00    +0.181 C 
ENDROOT
BRANCH   9   4
ATOM      4  O   UNL     1      -1.572  -0.911  22.873  0.00  0.00    -0.388 OA
ATOM     28  H   UNL     1      -0.613  -1.065  22.927  0.00  0.00    +0.210 HD
ENDBRANCH   9   4
BRANCH   8   6
ATOM      6  N   UNL     1      -4.574  -1.282  23.728  0.00  0.00    -0.305 NA
ATOM     27  H   UNL     1      -5.291  -1.956  23.460  0.00  0.00    +0.123 HD
BRANCH   6  13
ATOM     13  C   UNL     1      -5.077  -0.469  24.829  0.00  0.00    +0.119 C 
BRANCH  13  14
ATOM      1  F   UNL     1      -6.276   1.568  26.392  0.00  0.00    -0.205 F 
ATOM     14  C   UNL     1      -4.820   0.998  24.606  0.00  0.00    +0.002 A 
ATOM     16  C   UNL     1      -5.443   1.949  25.413  0.00  0.00    +0.128 A 
ATOM     17  C   UNL     1      -3.956   1.404  23.588  0.00  0.00    +0.008 A 
ATOM     19  C   UNL     1      -5.203   3.308  25.203  0.00  0.00    +0.038 A 
ATOM     20  C   UNL     1      -3.717   2.762  23.378  0.00  0.00    +0.000 A 
ATOM     21  C   UNL     1      -4.340   3.713  24.184  0.00  0.00    +0.003 A 
ENDBRANCH  13  14
ENDBRANCH   6  13
ENDBRANCH   8   6
BRANCH  10  12
ATOM     12  C   UNL     1      -0.149  -1.145  25.748  0.00  0.00    +0.138 C 
BRANCH  12   7
ATOM      5  O   UNL     1       0.571   0.780  23.744  0.00  0.00    -0.270 OA
ATOM      7  N   UNL     1      -0.479   0.251  25.744  0.00  0.00    -0.309 N 
ATOM     15  C   UNL     1      -0.086   1.114  24.726  0.00  0.00    +0.244 C 
ATOM     29  H   UNL     1      -0.961   0.606  26.563  0.00  0.00    +0.149 HD
BRANCH  15  18
ATOM      2  F   UNL     1      -1.598   6.490  25.314  0.00  0.00    -0.205 F 
ATOM     18  C   UNL     1      -0.486   2.537  24.882  0.00  0.00    +0.037 A 
ATOM     22  C   UNL     1      -0.050   3.488  23.960  0.00  0.00    +0.016 A 
ATOM     23  C   UNL     1      -1.297   2.920  25.949  0.00  0.00    +0.016 A 
ATOM     24  C   UNL     1      -0.425   4.823  24.106  0.00  0.00    +0.039 A 
ATOM     25  C   UNL     1      -1.673   4.256  26.095  0.00  0.00    +0.039 A 
ATOM     26  C   UNL     1      -1.236   5.207  25.174  0.00  0.00    +0.123 A 
ENDBRANCH  15  18
ENDBRANCH  12   7
ENDBRANCH  10  12
TORSDOF 7
ENDMDL
MODEL 9
REMARK VINA RESULT:      -3.0      3.048      6.371
REMARK  Name = 75536649
REMARK  7 active torsions:
REMARK  status: ('A' for Active; 'I' for Inactive)
REMARK    1  A    between atoms: O_4  and  C_9
REMARK    2  A    between atoms: N_6  and  C_8
REMARK    3  A    between atoms: N_6  and  C_13
REMARK    4  A    between atoms: N_7  and  C_12
REMARK    5  A    between atoms: C_10  and  C_12
REMARK    6  A    between atoms: C_13  and  C_14
REMARK    7  A    between atoms: C_15  and  C_18
REMARK                            x       y       z     vdW  Elec       q    Type
REMARK                         _______ _______ _______ _____ _____    ______ ____
ROOT
ATOM      3  O   UNL     1      -0.992  -0.518  25.416  0.00  0.00    -0.371 OA
ATOM      8  C   UNL     1      -3.356  -0.468  25.634  0.00  0.00    +0.111 C 
ATOM      9  C   UNL     1      -2.998  -0.909  24.227  0.00  0.00    +0.164 C 
ATOM     10  C   UNL     1      -1.566  -1.386  24.425  0.00  0.00    +0.165 C 
ATOM     11  C   UNL     1      -2.056   0.178  26.086  0.00  0.00    +0.181 C 
ENDROOT
BRANCH   9   4
ATOM      4  O   UNL     1      -3.838  -1.942  23.749  0.00  0.00    -0.388 OA
ATOM     28  H   UNL     1      -3.583  -2.143  22.832  0.00  0.00    +0.210 HD
ENDBRANCH   9   4
BRANCH   8   6
ATOM      6  N   UNL     1      -4.489   0.442  25.690  0.00  0.00    -0.305 NA
ATOM     27  H   UNL     1      -4.454   0.964  26.566  0.00  0.00    +0.123 HD
BRANCH   6  13
ATOM     13  C   UNL     1      -4.460   1.385  24.577  0.00  0.00    +0.119 C 
BRANCH  13  14
ATOM      1  F   UNL     1      -2.096   1.849  23.087  0.00  0.00    -0.205 F 
ATOM     14  C   UNL     1      -3.531   2.540  24.846  0.00  0.00    +0.002 A 
ATOM     16  C   UNL     1      -2.384   2.710  24.073  0.00  0.00    +0.128 A 
ATOM     17  C   UNL     1      -3.822   3.439  25.872  0.00  0.00    +0.008 A 
ATOM     19  C   UNL     1      -1.525   3.780  24.325  0.00  0.00    +0.038 A 
ATOM     20  C   UNL     1      -2.963   4.509  26.124  0.00  0.00    +0.000 A 
ATOM     21  C   UNL     1      -1.815   4.679  25.352  0.00  0.00    +0.003 A 
ENDBRANCH  13  14
ENDBRANCH   6  13
ENDBRANCH   8   6
BRANCH  10  12
ATOM     12  C   UNL     1      -0.736  -1.336  23.154  0.00  0.00    +0.138 C 
BRANCH  12   7
ATOM      5  O   UNL     1       1.230  -0.361  21.303  0.00  0.00    -0.270 OA
ATOM      7  N   UNL     1       0.638  -1.040  23.441  0.00  0.00    -0.309 N 
ATOM     15  C   UNL     1       1.523  -0.568  22.477  0.00  0.00    +0.244 C 
ATOM     29  H   UNL     1       0.964  -1.256  24.377  0.00  0.00    +0.149 HD
BRANCH  15  18
ATOM      2  F   UNL     1       6.800   0.321  24.181  0.00  0.00    -0.205 F 
ATOM     18  C   UNL     1       2.920  -0.333  22.928  0.00  0.00    +0.037 A 
ATOM     22  C   UNL     1       3.540   0.889  22.669  0.00  0.00    +0.016 A 
ATOM     23  C   UNL     1       3.610  -1.334  23.610  0.00  0.00    +0.016 A 
ATOM     24  C   UNL     1       4.850   1.110  23.091  0.00  0.00    +0.039 A 
ATOM     25  C   UNL     1       4.921  -1.113  24.033  0.00  0.00    +0.039 A 
ATOM     26  C   UNL     1       5.541   0.109  23.774  0.00  0.00    +0.123 A 
ENDBRANCH  15  18
ENDBRANCH  12   7
ENDBRANCH  10  12
TORSDOF 7
ENDMDL
MODEL 10
REMARK VINA RESULT:      -2.7      3.161      6.665
REMARK  Name = 75536649
REMARK  7 active torsions:
REMARK  status: ('A' for Active; 'I' for Inactive)
REMARK    1  A    between atoms: O_4  and  C_9
REMARK    2  A    between atoms: N_6  and  C_8
REMARK    3  A    between atoms: N_6  and  C_13
REMARK    4  A    between atoms: N_7  and  C_12
REMARK    5  A    between atoms: C_10  and  C_12
REMARK    6  A    between atoms: C_13  and  C_14
REMARK    7  A    between atoms: C_15  and  C_18
REMARK                            x       y       z     vdW  Elec       q    Type
REMARK                         _______ _______ _______ _____ _____    ______ ____
ROOT
ATOM      3  O   UNL     1      -0.810   0.196  25.870  0.00  0.00    -0.371 OA
ATOM      8  C   UNL     1      -1.524   2.265  24.947  0.00  0.00    +0.111 C 
ATOM      9  C   UNL     1      -1.269   1.283  23.820  0.00  0.00    +0.164 C 
ATOM     10  C   UNL     1      -1.356  -0.044  24.562  0.00  0.00    +0.165 C 
ATOM     11  C   UNL     1      -0.759   1.616  26.090  0.00  0.00    +0.181 C 
ENDROOT
BRANCH   9   4
ATOM      4  O   UNL     1      -2.233   1.374  22.788  0.00  0.00    -0.388 OA
ATOM     28  H   UNL     1      -2.685   2.232  22.868  0.00  0.00    +0.210 HD
ENDBRANCH   9   4
BRANCH   8   6
ATOM      6  N   UNL     1      -1.069   3.616  24.658  0.00  0.00    -0.305 NA
ATOM     27  H   UNL     1      -0.589   3.619  23.758  0.00  0.00    +0.123 HD
BRANCH   6  13
ATOM     13  C   UNL     1      -2.191   4.546  24.598  0.00  0.00    +0.119 C 
BRANCH  13  14
ATOM      1  F   UNL     1      -3.323   4.341  27.188  0.00  0.00    -0.205 F 
ATOM     14  C   UNL     1      -3.503   3.858  24.871  0.00  0.00    +0.002 A 
ATOM     16  C   UNL     1      -4.003   3.794  26.171  0.00  0.00    +0.128 A 
ATOM     17  C   UNL     1      -4.217   3.283  23.820  0.00  0.00    +0.008 A 
ATOM     19  C   UNL     1      -5.218   3.155  26.421  0.00  0.00    +0.038 A 
ATOM     20  C   UNL     1      -5.431   2.644  24.069  0.00  0.00    +0.000 A 
ATOM     21  C   UNL     1      -5.932   2.580  25.369  0.00  0.00    +0.003 A 
ENDBRANCH  13  14
ENDBRANCH   6  13
ENDBRANCH   8   6
BRANCH  10  12
ATOM     12  C   UNL     1      -0.587  -1.164  23.882  0.00  0.00    +0.138 C 
BRANCH  12   7
ATOM      5  O   UNL     1       1.114  -0.228  21.768  0.00  0.00    -0.270 OA
ATOM      7  N   UNL     1       0.828  -0.944  23.956  0.00  0.00    -0.309 N 
ATOM     15  C   UNL     1       1.576  -0.486  22.876  0.00  0.00    +0.244 C 
ATOM     29  H   UNL     1       1.284  -1.205  24.823  0.00  0.00    +0.149 HD
BRANCH  15  18
ATOM      2  F   UNL     1       7.094   0.091  23.744  0.00  0.00    -0.205 F 
ATOM     18  C   UNL     1       3.037  -0.333  23.106  0.00  0.00    +0.037 A 
ATOM     22  C   UNL     1       3.763  -1.373  23.685  0.00  0.00    +0.016 A 
ATOM     23  C   UNL     1       3.679   0.850  22.743  0.00  0.00    +0.016 A 
ATOM     24  C   UNL     1       5.133  -1.230  23.901  0.00  0.00    +0.039 A 
ATOM     25  C   UNL     1       5.050   0.993  22.959  0.00  0.00    +0.039 A 
ATOM     26  C   UNL     1       5.777  -0.047  23.537  0.00  0.00    +0.123 A 
ENDBRANCH  15  18
ENDBRANCH  12   7
ENDBRANCH  10  12
TORSDOF 7
ENDMDL
