MODEL 1
REMARK VINA RESULT:      -6.5      0.000      0.000
REMARK  Name = 38029578
REMARK  11 active torsions:
REMARK  status: ('A' for Active; 'I' for Inactive)
REMARK    1  A    between atoms: S_1  and  N_7
REMARK    2  A    between atoms: S_1  and  C_21
REMARK    3  A    between atoms: O_3  and  C_20
REMARK    4  A    between atoms: N_7  and  C_15
REMARK    5  A    between atoms: C_8  and  C_12
REMARK    6  A    between atoms: C_9  and  C_15
REMARK    7  A    between atoms: C_11  and  C_16
REMARK    8  A    between atoms: C_12  and  C_17
REMARK    9  A    between atoms: C_12  and  C_18
REMARK   10  A    between atoms: C_13  and  C_19
REMARK   11  A    between atoms: C_16  and  C_20
REMARK                            x       y       z     vdW  Elec       q    Type
REMARK                         _______ _______ _______ _____ _____    ______ ____
ROOT
ATOM      8  C   UNL     1      -3.000  -0.902  24.864  0.00  0.00    +0.000 C 
ATOM      9  C   UNL     1      -1.851  -0.292  24.020  0.00  0.00    +0.030 C 
ATOM     10  C   UNL     1      -4.362  -0.555  24.246  0.00  0.00    +0.012 C 
ATOM     11  C   UNL     1      -4.586   0.966  24.142  0.00  0.00    +0.025 C 
ATOM     13  C   UNL     1      -3.379   1.674  23.561  0.00  0.00    -0.073 C 
ATOM     14  C   UNL     1      -2.168   1.091  23.502  0.00  0.00    -0.023 C 
ATOM     19  C   UNL     1      -3.605   3.053  23.006  0.00  0.00    +0.039 C 
ENDROOT
BRANCH   8  12
ATOM     12  C   UNL     1      -2.862  -2.421  24.999  0.00  0.00    -0.013 C 
ATOM     17  C   UNL     1      -1.498  -2.879  24.493  0.00  0.00    +0.007 C 
ATOM     18  C   UNL     1      -3.984  -3.126  24.243  0.00  0.00    +0.007 C 
ENDBRANCH   8  12
BRANCH   9  15
ATOM     15  C   UNL     1      -0.542  -0.253  24.815  0.00  0.00    +0.113 C 
BRANCH  15   7
ATOM      7  N   UNL     1      -0.611   0.835  25.803  0.00  0.00    -0.189 NA
ATOM     27  H   UNL     1      -1.520   0.975  26.261  0.00  0.00    +0.148 HD
BRANCH   7   1
ATOM      1  S   UNL     1       0.403   2.196  25.650  0.00  0.00    +0.059 S 
ATOM      5  O   UNL     1       1.104   2.131  24.382  0.00  0.00    -0.153 OA
ATOM      6  O   UNL     1       1.142   2.379  26.884  0.00  0.00    -0.153 OA
BRANCH   1  21
ATOM      2  F   UNL     1      -4.011   4.433  26.937  0.00  0.00    -0.205 F 
ATOM     21  C   UNL     1      -0.774   3.512  25.553  0.00  0.00    +0.108 A 
ATOM     22  C   UNL     1      -1.952   3.452  26.299  0.00  0.00    +0.066 A 
ATOM     23  C   UNL     1      -0.526   4.611  24.731  0.00  0.00    +0.029 A 
ATOM     24  C   UNL     1      -2.880   4.490  26.222  0.00  0.00    +0.125 A 
ATOM     25  C   UNL     1      -1.454   5.649  24.653  0.00  0.00    +0.005 A 
ATOM     26  C   UNL     1      -2.631   5.588  25.399  0.00  0.00    +0.038 A 
ENDBRANCH   1  21
ENDBRANCH   7   1
ENDBRANCH  15   7
ENDBRANCH   9  15
BRANCH  11  16
ATOM     16  C   UNL     1      -4.970   1.561  25.501  0.00  0.00    +0.128 C 
BRANCH  16  20
ATOM      4  O   UNL     1      -6.271   3.603  25.771  0.00  0.00    -0.251 OA
ATOM     20  C   UNL     1      -6.179   2.445  25.394  0.00  0.00    +0.305 C 
BRANCH  20   3
ATOM      3  O   UNL     1      -7.191   1.761  24.799  0.00  0.00    -0.481 OA
ATOM     28  H   UNL     1      -6.993   0.804  24.729  0.00  0.00    +0.295 HD
ENDBRANCH  20   3
ENDBRANCH  16  20
ENDBRANCH  11  16
TORSDOF 8
ENDMDL
MODEL 2
REMARK VINA RESULT:      -4.8      2.695      4.805
REMARK  Name = 38029578
REMARK  11 active torsions:
REMARK  status: ('A' for Active; 'I' for Inactive)
REMARK    1  A    between atoms: S_1  and  N_7
REMARK    2  A    between atoms: S_1  and  C_21
REMARK    3  A    between atoms: O_3  and  C_20
REMARK    4  A    between atoms: N_7  and  C_15
REMARK    5  A    between atoms: C_8  and  C_12
REMARK    6  A    between atoms: C_9  and  C_15
REMARK    7  A    between atoms: C_11  and  C_16
REMARK    8  A    between atoms: C_12  and  C_17
REMARK    9  A    between atoms: C_12  and  C_18
REMARK   10  A    between atoms: C_13  and  C_19
REMARK   11  A    between atoms: C_16  and  C_20
REMARK                            x       y       z     vdW  Elec       q    Type
REMARK                         _______ _______ _______ _____ _____    ______ ____
ROOT
ATOM      8  C   UNL     1      -3.390   2.181  23.934  0.00  0.00    +0.000 C 
ATOM      9  C   UNL     1      -3.944   3.371  24.758  0.00  0.00    +0.030 C 
ATOM     10  C   UNL     1      -4.506   1.169  23.635  0.00  0.00    +0.012 C 
ATOM     11  C   UNL     1      -5.151   0.615  24.920  0.00  0.00    +0.025 C 
ATOM     13  C   UNL     1      -5.483   1.718  25.904  0.00  0.00    -0.073 C 
ATOM     14  C   UNL     1      -4.945   2.948  25.808  0.00  0.00    -0.023 C 
ATOM     19  C   UNL     1      -6.485   1.391  26.976  0.00  0.00    +0.039 C 
ENDROOT
BRANCH   8  12
ATOM     12  C   UNL     1      -2.747   2.647  22.624  0.00  0.00    -0.013 C 
ATOM     17  C   UNL     1      -3.702   3.555  21.857  0.00  0.00    +0.007 C 
ATOM     18  C   UNL     1      -2.341   1.447  21.774  0.00  0.00    +0.007 C 
ENDBRANCH   8  12
BRANCH   9  15
ATOM     15  C   UNL     1      -2.810   4.160  25.421  0.00  0.00    +0.113 C 
BRANCH  15   7
ATOM      7  N   UNL     1      -1.896   3.220  26.089  0.00  0.00    -0.189 NA
ATOM     27  H   UNL     1      -2.105   3.004  27.071  0.00  0.00    +0.148 HD
BRANCH   7   1
ATOM      1  S   UNL     1      -0.269   3.110  25.596  0.00  0.00    +0.059 S 
ATOM      5  O   UNL     1       0.589   3.170  26.764  0.00  0.00    -0.153 OA
ATOM      6  O   UNL     1      -0.048   4.009  24.480  0.00  0.00    -0.153 OA
BRANCH   1  21
ATOM      2  F   UNL     1       1.201  -0.340  22.122  0.00  0.00    -0.205 F 
ATOM     21  C   UNL     1      -0.198   1.464  24.954  0.00  0.00    +0.108 A 
ATOM     22  C   UNL     1       0.488   1.206  23.767  0.00  0.00    +0.066 A 
ATOM     23  C   UNL     1      -0.828   0.421  25.635  0.00  0.00    +0.029 A 
ATOM     24  C   UNL     1       0.543  -0.093  23.261  0.00  0.00    +0.125 A 
ATOM     25  C   UNL     1      -0.773  -0.877  25.130  0.00  0.00    +0.005 A 
ATOM     26  C   UNL     1      -0.087  -1.134  23.943  0.00  0.00    +0.038 A 
ENDBRANCH   1  21
ENDBRANCH   7   1
ENDBRANCH  15   7
ENDBRANCH   9  15
BRANCH  11  16
ATOM     16  C   UNL     1      -4.261  -0.449  25.569  0.00  0.00    +0.128 C 
BRANCH  16  20
ATOM      4  O   UNL     1      -4.322  -1.687  23.471  0.00  0.00    -0.251 OA
ATOM     20  C   UNL     1      -4.066  -1.632  24.664  0.00  0.00    +0.305 C 
BRANCH  20   3
ATOM      3  O   UNL     1      -3.547  -2.668  25.374  0.00  0.00    -0.481 OA
ATOM     28  H   UNL     1      -2.772  -3.066  24.925  0.00  0.00    +0.295 HD
ENDBRANCH  20   3
ENDBRANCH  16  20
ENDBRANCH  11  16
TORSDOF 8
ENDMDL
MODEL 3
REMARK VINA RESULT:      -4.3      2.767      4.975
REMARK  Name = 38029578
REMARK  11 active torsions:
REMARK  status: ('A' for Active; 'I' for Inactive)
REMARK    1  A    between atoms: S_1  and  N_7
REMARK    2  A    between atoms: S_1  and  C_21
REMARK    3  A    between atoms: O_3  and  C_20
REMARK    4  A    between atoms: N_7  and  C_15
REMARK    5  A    between atoms: C_8  and  C_12
REMARK    6  A    between atoms: C_9  and  C_15
REMARK    7  A    between atoms: C_11  and  C_16
REMARK    8  A    between atoms: C_12  and  C_17
REMARK    9  A    between atoms: C_12  and  C_18
REMARK   10  A    between atoms: C_13  and  C_19
REMARK   11  A    between atoms: C_16  and  C_20
REMARK                            x       y       z     vdW  Elec       q    Type
REMARK                         _______ _______ _______ _____ _____    ______ ____
ROOT
ATOM      8  C   UNL     1       0.435   0.366  23.513  0.00  0.00    +0.000 C 
ATOM      9  C   UNL     1      -0.081  -0.503  24.687  0.00  0.00    +0.030 C 
ATOM     10  C   UNL     1       1.140   1.623  24.045  0.00  0.00    +0.012 C 
ATOM     11  C   UNL     1       0.212   2.486  24.920  0.00  0.00    +0.025 C 
ATOM     13  C   UNL     1      -0.542   1.651  25.936  0.00  0.00    -0.073 C 
ATOM     14  C   UNL     1      -0.650   0.315  25.823  0.00  0.00    -0.023 C 
ATOM     19  C   UNL     1      -1.129   2.382  27.111  0.00  0.00    +0.039 C 
ENDROOT
BRANCH   8  12
ATOM     12  C   UNL     1       1.387  -0.416  22.601  0.00  0.00    -0.013 C 
ATOM     17  C   UNL     1       2.760   0.247  22.573  0.00  0.00    +0.007 C 
ATOM     18  C   UNL     1       0.808  -0.521  21.194  0.00  0.00    +0.007 C 
ENDBRANCH   8  12
BRANCH   9  15
ATOM     15  C   UNL     1      -1.130  -1.512  24.208  0.00  0.00    +0.113 C 
BRANCH  15   7
ATOM      7  N   UNL     1      -2.352  -0.789  23.824  0.00  0.00    -0.189 NA
ATOM     27  H   UNL     1      -2.217   0.135  23.396  0.00  0.00    +0.148 HD
BRANCH   7   1
ATOM      1  S   UNL     1      -3.805  -1.049  24.675  0.00  0.00    +0.059 S 
ATOM      5  O   UNL     1      -3.500  -1.554  26.000  0.00  0.00    -0.153 OA
ATOM      6  O   UNL     1      -4.737  -1.760  23.820  0.00  0.00    -0.153 OA
BRANCH   1  21
ATOM      2  F   UNL     1      -3.965   3.890  23.365  0.00  0.00    -0.205 F 
ATOM     21  C   UNL     1      -4.420   0.600  24.849  0.00  0.00    +0.108 A 
ATOM     22  C   UNL     1      -3.940   1.614  24.021  0.00  0.00    +0.066 A 
ATOM     23  C   UNL     1      -5.385   0.886  25.816  0.00  0.00    +0.029 A 
ATOM     24  C   UNL     1      -4.425   2.915  24.160  0.00  0.00    +0.125 A 
ATOM     25  C   UNL     1      -5.869   2.186  25.955  0.00  0.00    +0.005 A 
ATOM     26  C   UNL     1      -5.389   3.201  25.127  0.00  0.00    +0.038 A 
ENDBRANCH   1  21
ENDBRANCH   7   1
ENDBRANCH  15   7
ENDBRANCH   9  15
BRANCH  11  16
ATOM     16  C   UNL     1      -0.755   3.305  24.058  0.00  0.00    +0.128 C 
BRANCH  16  20
ATOM      4  O   UNL     1      -2.022   4.868  25.433  0.00  0.00    -0.251 OA
ATOM     20  C   UNL     1      -1.078   4.626  24.696  0.00  0.00    +0.305 C 
BRANCH  20   3
ATOM      3  O   UNL     1      -0.148   5.547  24.332  0.00  0.00    -0.481 OA
ATOM     28  H   UNL     1      -0.561   6.386  24.038  0.00  0.00    +0.295 HD
ENDBRANCH  20   3
ENDBRANCH  16  20
ENDBRANCH  11  16
TORSDOF 8
ENDMDL
MODEL 4
REMARK VINA RESULT:      -4.3      2.308      4.842
REMARK  Name = 38029578
REMARK  11 active torsions:
REMARK  status: ('A' for Active; 'I' for Inactive)
REMARK    1  A    between atoms: S_1  and  N_7
REMARK    2  A    between atoms: S_1  and  C_21
REMARK    3  A    between atoms: O_3  and  C_20
REMARK    4  A    between atoms: N_7  and  C_15
REMARK    5  A    between atoms: C_8  and  C_12
REMARK    6  A    between atoms: C_9  and  C_15
REMARK    7  A    between atoms: C_11  and  C_16
REMARK    8  A    between atoms: C_12  and  C_17
REMARK    9  A    between atoms: C_12  and  C_18
REMARK   10  A    between atoms: C_13  and  C_19
REMARK   11  A    between atoms: C_16  and  C_20
REMARK                            x       y       z     vdW  Elec       q    Type
REMARK                         _______ _______ _______ _____ _____    ______ ____
ROOT
ATOM      8  C   UNL     1      -2.372  -1.465  24.431  0.00  0.00    +0.000 C 
ATOM      9  C   UNL     1      -2.908  -0.721  25.680  0.00  0.00    +0.030 C 
ATOM     10  C   UNL     1      -0.850  -1.652  24.531  0.00  0.00    +0.012 C 
ATOM     11  C   UNL     1      -0.104  -0.310  24.657  0.00  0.00    +0.025 C 
ATOM     13  C   UNL     1      -0.744   0.595  25.691  0.00  0.00    -0.073 C 
ATOM     14  C   UNL     1      -1.993   0.387  26.146  0.00  0.00    -0.023 C 
ATOM     19  C   UNL     1       0.101   1.717  26.224  0.00  0.00    +0.039 C 
ENDROOT
BRANCH   8  12
ATOM     12  C   UNL     1      -3.051  -2.825  24.244  0.00  0.00    -0.013 C 
ATOM     17  C   UNL     1      -4.361  -2.665  23.480  0.00  0.00    +0.007 C 
ATOM     18  C   UNL     1      -3.291  -3.490  25.596  0.00  0.00    +0.007 C 
ENDBRANCH   8  12
BRANCH   9  15
ATOM     15  C   UNL     1      -4.309  -0.154  25.426  0.00  0.00    +0.113 C 
BRANCH  15   7
ATOM      7  N   UNL     1      -4.226   0.887  24.390  0.00  0.00    -0.189 NA
ATOM     27  H   UNL     1      -3.446   0.805  23.726  0.00  0.00    +0.148 HD
BRANCH   7   1
ATOM      1  S   UNL     1      -4.827   2.452  24.696  0.00  0.00    +0.059 S 
ATOM      5  O   UNL     1      -5.478   2.469  25.992  0.00  0.00    -0.153 OA
ATOM      6  O   UNL     1      -5.529   2.930  23.520  0.00  0.00    -0.153 OA
BRANCH   1  21
ATOM      2  F   UNL     1      -0.058   3.602  23.260  0.00  0.00    -0.205 F 
ATOM     21  C   UNL     1      -3.335   3.391  24.825  0.00  0.00    +0.108 A 
ATOM     22  C   UNL     1      -2.264   3.121  23.974  0.00  0.00    +0.066 A 
ATOM     23  C   UNL     1      -3.229   4.405  25.779  0.00  0.00    +0.029 A 
ATOM     24  C   UNL     1      -1.086   3.862  24.076  0.00  0.00    +0.125 A 
ATOM     25  C   UNL     1      -2.052   5.145  25.882  0.00  0.00    +0.005 A 
ATOM     26  C   UNL     1      -0.981   4.874  25.030  0.00  0.00    +0.038 A 
ENDBRANCH   1  21
ENDBRANCH   7   1
ENDBRANCH  15   7
ENDBRANCH   9  15
BRANCH  11  16
ATOM     16  C   UNL     1      -0.002   0.394  23.300  0.00  0.00    +0.128 C 
BRANCH  16  20
ATOM      4  O   UNL     1       1.809  -0.306  21.827  0.00  0.00    -0.251 OA
ATOM     20  C   UNL     1       1.401   0.361  22.766  0.00  0.00    +0.305 C 
BRANCH  20   3
ATOM      3  O   UNL     1       2.183   1.203  23.491  0.00  0.00    -0.481 OA
ATOM     28  H   UNL     1       2.482   0.792  24.330  0.00  0.00    +0.295 HD
ENDBRANCH  20   3
ENDBRANCH  16  20
ENDBRANCH  11  16
TORSDOF 8
ENDMDL
MODEL 5
REMARK VINA RESULT:      -4.1      3.792      5.551
REMARK  Name = 38029578
REMARK  11 active torsions:
REMARK  status: ('A' for Active; 'I' for Inactive)
REMARK    1  A    between atoms: S_1  and  N_7
REMARK    2  A    between atoms: S_1  and  C_21
REMARK    3  A    between atoms: O_3  and  C_20
REMARK    4  A    between atoms: N_7  and  C_15
REMARK    5  A    between atoms: C_8  and  C_12
REMARK    6  A    between atoms: C_9  and  C_15
REMARK    7  A    between atoms: C_11  and  C_16
REMARK    8  A    between atoms: C_12  and  C_17
REMARK    9  A    between atoms: C_12  and  C_18
REMARK   10  A    between atoms: C_13  and  C_19
REMARK   11  A    between atoms: C_16  and  C_20
REMARK                            x       y       z     vdW  Elec       q    Type
REMARK                         _______ _______ _______ _____ _____    ______ ____
ROOT
ATOM      8  C   UNL     1      -2.224   2.377  25.061  0.00  0.00    +0.000 C 
ATOM      9  C   UNL     1      -1.491   1.239  24.307  0.00  0.00    +0.030 C 
ATOM     10  C   UNL     1      -3.238   1.794  26.057  0.00  0.00    +0.012 C 
ATOM     11  C   UNL     1      -4.291   0.908  25.367  0.00  0.00    +0.025 C 
ATOM     13  C   UNL     1      -3.657  -0.069  24.396  0.00  0.00    -0.073 C 
ATOM     14  C   UNL     1      -2.399   0.088  23.945  0.00  0.00    -0.023 C 
ATOM     19  C   UNL     1      -4.485  -1.257  23.993  0.00  0.00    +0.039 C 
ENDROOT
BRANCH   8  12
ATOM     12  C   UNL     1      -1.244   3.297  25.795  0.00  0.00    -0.013 C 
ATOM     17  C   UNL     1      -0.905   4.509  24.934  0.00  0.00    +0.007 C 
ATOM     18  C   UNL     1       0.020   2.533  26.175  0.00  0.00    +0.007 C 
ENDBRANCH   8  12
BRANCH   9  15
ATOM     15  C   UNL     1      -0.805   1.767  23.042  0.00  0.00    +0.113 C 
BRANCH  15   7
ATOM      7  N   UNL     1       0.620   1.401  23.079  0.00  0.00    -0.189 NA
ATOM     27  H   UNL     1       1.287   2.154  22.873  0.00  0.00    +0.148 HD
BRANCH   7   1
ATOM      1  S   UNL     1       1.105  -0.192  22.716  0.00  0.00    +0.059 S 
ATOM      5  O   UNL     1       0.932  -0.432  21.296  0.00  0.00    -0.153 OA
ATOM      6  O   UNL     1       0.524  -1.099  23.686  0.00  0.00    -0.153 OA
BRANCH   1  21
ATOM      2  F   UNL     1       5.501  -2.265  24.300  0.00  0.00    -0.205 F 
ATOM     21  C   UNL     1       2.840  -0.123  23.048  0.00  0.00    +0.108 A 
ATOM     22  C   UNL     1       3.499  -1.244  23.553  0.00  0.00    +0.066 A 
ATOM     23  C   UNL     1       3.552   1.053  22.805  0.00  0.00    +0.029 A 
ATOM     24  C   UNL     1       4.868  -1.189  23.815  0.00  0.00    +0.125 A 
ATOM     25  C   UNL     1       4.919   1.108  23.068  0.00  0.00    +0.005 A 
ATOM     26  C   UNL     1       5.578  -0.013  23.573  0.00  0.00    +0.038 A 
ENDBRANCH   1  21
ENDBRANCH   7   1
ENDBRANCH  15   7
ENDBRANCH   9  15
BRANCH  11  16
ATOM     16  C   UNL     1      -5.357   1.759  24.669  0.00  0.00    +0.128 C 
BRANCH  16  20
ATOM      4  O   UNL     1      -5.710   4.063  25.380  0.00  0.00    -0.251 OA
ATOM     20  C   UNL     1      -5.851   2.863  25.560  0.00  0.00    +0.305 C 
BRANCH  20   3
ATOM      3  O   UNL     1      -6.499   2.330  26.628  0.00  0.00    -0.481 OA
ATOM     28  H   UNL     1      -7.388   1.996  26.386  0.00  0.00    +0.295 HD
ENDBRANCH  20   3
ENDBRANCH  16  20
ENDBRANCH  11  16
TORSDOF 8
ENDMDL
MODEL 6
REMARK VINA RESULT:      -4.0      3.694      4.845
REMARK  Name = 38029578
REMARK  11 active torsions:
REMARK  status: ('A' for Active; 'I' for Inactive)
REMARK    1  A    between atoms: S_1  and  N_7
REMARK    2  A    between atoms: S_1  and  C_21
REMARK    3  A    between atoms: O_3  and  C_20
REMARK    4  A    between atoms: N_7  and  C_15
REMARK    5  A    between atoms: C_8  and  C_12
REMARK    6  A    between atoms: C_9  and  C_15
REMARK    7  A    between atoms: C_11  and  C_16
REMARK    8  A    between atoms: C_12  and  C_17
REMARK    9  A    between atoms: C_12  and  C_18
REMARK   10  A    between atoms: C_13  and  C_19
REMARK   11  A    between atoms: C_16  and  C_20
REMARK                            x       y       z     vdW  Elec       q    Type
REMARK                         _______ _______ _______ _____ _____    ______ ____
ROOT
ATOM      8  C   UNL     1      -3.148   0.134  24.973  0.00  0.00    +0.000 C 
ATOM      9  C   UNL     1      -2.075   0.924  24.181  0.00  0.00    +0.030 C 
ATOM     10  C   UNL     1      -4.536   0.339  24.347  0.00  0.00    +0.012 C 
ATOM     11  C   UNL     1      -4.948   1.823  24.315  0.00  0.00    +0.025 C 
ATOM     13  C   UNL     1      -3.832   2.706  23.792  0.00  0.00    -0.073 C 
ATOM     14  C   UNL     1      -2.557   2.282  23.726  0.00  0.00    -0.023 C 
ATOM     19  C   UNL     1      -4.224   4.072  23.302  0.00  0.00    +0.039 C 
ENDROOT
BRANCH   8  12
ATOM     12  C   UNL     1      -2.822  -1.361  25.034  0.00  0.00    -0.013 C 
ATOM     17  C   UNL     1      -3.748  -2.146  24.110  0.00  0.00    +0.007 C 
ATOM     18  C   UNL     1      -2.930  -1.871  26.468  0.00  0.00    +0.007 C 
ENDBRANCH   8  12
BRANCH   9  15
ATOM     15  C   UNL     1      -0.790   1.086  25.000  0.00  0.00    +0.113 C 
BRANCH  15   7
ATOM      7  N   UNL     1       0.362   1.113  24.086  0.00  0.00    -0.189 NA
ATOM     27  H   UNL     1       0.562   2.015  23.635  0.00  0.00    +0.148 HD
BRANCH   7   1
ATOM      1  S   UNL     1       0.828  -0.297  23.251  0.00  0.00    +0.059 S 
ATOM      5  O   UNL     1       0.383  -0.205  21.873  0.00  0.00    -0.153 OA
ATOM      6  O   UNL     1       0.490  -1.457  24.052  0.00  0.00    -0.153 OA
BRANCH   1  21
ATOM      2  F   UNL     1       5.514  -2.125  24.164  0.00  0.00    -0.205 F 
ATOM     21  C   UNL     1       2.591  -0.156  23.263  0.00  0.00    +0.108 A 
ATOM     22  C   UNL     1       3.372  -1.218  23.718  0.00  0.00    +0.066 A 
ATOM     23  C   UNL     1       3.200   1.017  22.816  0.00  0.00    +0.029 A 
ATOM     24  C   UNL     1       4.763  -1.106  23.727  0.00  0.00    +0.125 A 
ATOM     25  C   UNL     1       4.590   1.129  22.826  0.00  0.00    +0.005 A 
ATOM     26  C   UNL     1       5.371   0.067  23.281  0.00  0.00    +0.038 A 
ENDBRANCH   1  21
ENDBRANCH   7   1
ENDBRANCH  15   7
ENDBRANCH   9  15
BRANCH  11  16
ATOM     16  C   UNL     1      -5.419   2.295  25.694  0.00  0.00    +0.128 C 
BRANCH  16  20
ATOM      4  O   UNL     1      -3.960   4.149  26.301  0.00  0.00    -0.251 OA
ATOM     20  C   UNL     1      -5.049   3.729  25.942  0.00  0.00    +0.305 C 
BRANCH  20   3
ATOM      3  O   UNL     1      -6.125   4.524  25.706  0.00  0.00    -0.481 OA
ATOM     28  H   UNL     1      -6.955   4.007  25.646  0.00  0.00    +0.295 HD
ENDBRANCH  20   3
ENDBRANCH  16  20
ENDBRANCH  11  16
TORSDOF 8
ENDMDL
MODEL 7
REMARK VINA RESULT:      -4.0      3.064      5.027
REMARK  Name = 38029578
REMARK  11 active torsions:
REMARK  status: ('A' for Active; 'I' for Inactive)
REMARK    1  A    between atoms: S_1  and  N_7
REMARK    2  A    between atoms: S_1  and  C_21
REMARK    3  A    between atoms: O_3  and  C_20
REMARK    4  A    between atoms: N_7  and  C_15
REMARK    5  A    between atoms: C_8  and  C_12
REMARK    6  A    between atoms: C_9  and  C_15
REMARK    7  A    between atoms: C_11  and  C_16
REMARK    8  A    between atoms: C_12  and  C_17
REMARK    9  A    between atoms: C_12  and  C_18
REMARK   10  A    between atoms: C_13  and  C_19
REMARK   11  A    between atoms: C_16  and  C_20
REMARK                            x       y       z     vdW  Elec       q    Type
REMARK                         _______ _______ _______ _____ _____    ______ ____
ROOT
ATOM      8  C   UNL     1      -4.267   2.524  25.177  0.00  0.00    +0.000 C 
ATOM      9  C   UNL     1      -4.524   1.230  24.362  0.00  0.00    +0.030 C 
ATOM     10  C   UNL     1      -4.004   3.708  24.234  0.00  0.00    +0.012 C 
ATOM     11  C   UNL     1      -2.794   3.463  23.313  0.00  0.00    +0.025 C 
ATOM     13  C   UNL     1      -2.840   2.088  22.676  0.00  0.00    -0.073 C 
ATOM     14  C   UNL     1      -3.630   1.108  23.150  0.00  0.00    -0.023 C 
ATOM     19  C   UNL     1      -1.992   1.880  21.453  0.00  0.00    +0.039 C 
ENDROOT
BRANCH   8  12
ATOM     12  C   UNL     1      -5.438   2.851  26.108  0.00  0.00    -0.013 C 
ATOM     17  C   UNL     1      -6.513   1.773  26.010  0.00  0.00    +0.007 C 
ATOM     18  C   UNL     1      -6.017   4.223  25.773  0.00  0.00    +0.007 C 
ENDBRANCH   8  12
BRANCH   9  15
ATOM     15  C   UNL     1      -4.370  -0.016  25.240  0.00  0.00    +0.113 C 
BRANCH  15   7
ATOM      7  N   UNL     1      -3.522  -0.995  24.541  0.00  0.00    -0.189 NA
ATOM     27  H   UNL     1      -3.998  -1.609  23.869  0.00  0.00    +0.148 HD
BRANCH   7   1
ATOM      1  S   UNL     1      -2.116  -1.600  25.289  0.00  0.00    +0.059 S 
ATOM      5  O   UNL     1      -1.812  -2.910  24.746  0.00  0.00    -0.153 OA
ATOM      6  O   UNL     1      -2.220  -1.410  26.722  0.00  0.00    -0.153 OA
BRANCH   1  21
ATOM      2  F   UNL     1       1.536  -0.175  22.007  0.00  0.00    -0.205 F 
ATOM     21  C   UNL     1      -0.885  -0.472  24.706  0.00  0.00    +0.108 A 
ATOM     22  C   UNL     1      -0.145  -0.775  23.563  0.00  0.00    +0.066 A 
ATOM     23  C   UNL     1      -0.654   0.723  25.390  0.00  0.00    +0.029 A 
ATOM     24  C   UNL     1       0.826   0.116  23.104  0.00  0.00    +0.125 A 
ATOM     25  C   UNL     1       0.317   1.612  24.932  0.00  0.00    +0.005 A 
ATOM     26  C   UNL     1       1.057   1.309  23.789  0.00  0.00    +0.038 A 
ENDBRANCH   1  21
ENDBRANCH   7   1
ENDBRANCH  15   7
ENDBRANCH   9  15
BRANCH  11  16
ATOM     16  C   UNL     1      -1.476   3.674  24.066  0.00  0.00    +0.128 C 
BRANCH  16  20
ATOM      4  O   UNL     1      -1.615   5.871  25.110  0.00  0.00    -0.251 OA
ATOM     20  C   UNL     1      -1.636   4.653  25.194  0.00  0.00    +0.305 C 
BRANCH  20   3
ATOM      3  O   UNL     1      -1.815   3.978  26.359  0.00  0.00    -0.481 OA
ATOM     28  H   UNL     1      -1.035   4.054  26.948  0.00  0.00    +0.295 HD
ENDBRANCH  20   3
ENDBRANCH  16  20
ENDBRANCH  11  16
TORSDOF 8
ENDMDL
MODEL 8
REMARK VINA RESULT:      -3.5      1.989      4.741
REMARK  Name = 38029578
REMARK  11 active torsions:
REMARK  status: ('A' for Active; 'I' for Inactive)
REMARK    1  A    between atoms: S_1  and  N_7
REMARK    2  A    between atoms: S_1  and  C_21
REMARK    3  A    between atoms: O_3  and  C_20
REMARK    4  A    between atoms: N_7  and  C_15
REMARK    5  A    between atoms: C_8  and  C_12
REMARK    6  A    between atoms: C_9  and  C_15
REMARK    7  A    between atoms: C_11  and  C_16
REMARK    8  A    between atoms: C_12  and  C_17
REMARK    9  A    between atoms: C_12  and  C_18
REMARK   10  A    between atoms: C_13  and  C_19
REMARK   11  A    between atoms: C_16  and  C_20
REMARK                            x       y       z     vdW  Elec       q    Type
REMARK                         _______ _______ _______ _____ _____    ______ ____
ROOT
ATOM      8  C   UNL     1      -2.401   2.381  23.572  0.00  0.00    +0.000 C 
ATOM      9  C   UNL     1      -1.191   2.970  24.341  0.00  0.00    +0.030 C 
ATOM     10  C   UNL     1      -3.626   3.297  23.717  0.00  0.00    +0.012 C 
ATOM     11  C   UNL     1      -4.034   3.498  25.189  0.00  0.00    +0.025 C 
ATOM     13  C   UNL     1      -2.840   3.821  26.065  0.00  0.00    -0.073 C 
ATOM     14  C   UNL     1      -1.577   3.591  25.663  0.00  0.00    -0.023 C 
ATOM     19  C   UNL     1      -3.129   4.458  27.395  0.00  0.00    +0.039 C 
ENDROOT
BRANCH   8  12
ATOM     12  C   UNL     1      -2.084   2.169  22.089  0.00  0.00    -0.013 C 
ATOM     17  C   UNL     1      -3.048   2.969  21.219  0.00  0.00    +0.007 C 
ATOM     18  C   UNL     1      -2.144   0.686  21.738  0.00  0.00    +0.007 C 
ENDBRANCH   8  12
BRANCH   9  15
ATOM     15  C   UNL     1      -0.112   1.907  24.570  0.00  0.00    +0.113 C 
BRANCH  15   7
ATOM      7  N   UNL     1      -0.694   0.784  25.321  0.00  0.00    -0.189 NA
ATOM     27  H   UNL     1      -0.872   0.950  26.320  0.00  0.00    +0.148 HD
BRANCH   7   1
ATOM      1  S   UNL     1      -0.386  -0.821  24.841  0.00  0.00    +0.059 S 
ATOM      5  O   UNL     1       0.144  -1.564  25.968  0.00  0.00    -0.153 OA
ATOM      6  O   UNL     1       0.323  -0.811  23.576  0.00  0.00    -0.153 OA
BRANCH   1  21
ATOM      2  F   UNL     1      -5.412  -0.151  24.194  0.00  0.00    -0.205 F 
ATOM     21  C   UNL     1      -2.017  -1.419  24.514  0.00  0.00    +0.108 A 
ATOM     22  C   UNL     1      -3.092  -0.531  24.482  0.00  0.00    +0.066 A 
ATOM     23  C   UNL     1      -2.230  -2.779  24.287  0.00  0.00    +0.029 A 
ATOM     24  C   UNL     1      -4.380  -1.003  24.224  0.00  0.00    +0.125 A 
ATOM     25  C   UNL     1      -3.516  -3.251  24.030  0.00  0.00    +0.005 A 
ATOM     26  C   UNL     1      -4.591  -2.363  23.998  0.00  0.00    +0.038 A 
ENDBRANCH   1  21
ENDBRANCH   7   1
ENDBRANCH  15   7
ENDBRANCH   9  15
BRANCH  11  16
ATOM     16  C   UNL     1      -4.792   2.278  25.723  0.00  0.00    +0.128 C 
BRANCH  16  20
ATOM      4  O   UNL     1      -6.941   1.933  26.818  0.00  0.00    -0.251 OA
ATOM     20  C   UNL     1      -6.164   2.651  26.208  0.00  0.00    +0.305 C 
BRANCH  20   3
ATOM      3  O   UNL     1      -6.433   3.937  25.867  0.00  0.00    -0.481 OA
ATOM     28  H   UNL     1      -7.285   4.244  26.243  0.00  0.00    +0.295 HD
ENDBRANCH  20   3
ENDBRANCH  16  20
ENDBRANCH  11  16
TORSDOF 8
ENDMDL
MODEL 9
REMARK VINA RESULT:      -2.9      2.472      4.591
REMARK  Name = 38029578
REMARK  11 active torsions:
REMARK  status: ('A' for Active; 'I' for Inactive)
REMARK    1  A    between atoms: S_1  and  N_7
REMARK    2  A    between atoms: S_1  and  C_21
REMARK    3  A    between atoms: O_3  and  C_20
REMARK    4  A    between atoms: N_7  and  C_15
REMARK    5  A    between atoms: C_8  and  C_12
REMARK    6  A    between atoms: C_9  and  C_15
REMARK    7  A    between atoms: C_11  and  C_16
REMARK    8  A    between atoms: C_12  and  C_17
REMARK    9  A    between atoms: C_12  and  C_18
REMARK   10  A    between atoms: C_13  and  C_19
REMARK   11  A    between atoms: C_16  and  C_20
REMARK                            x       y       z     vdW  Elec       q    Type
REMARK                         _______ _______ _______ _____ _____    ______ ____
ROOT
ATOM      8  C   UNL     1      -2.498   2.105  24.141  0.00  0.00    +0.000 C 
ATOM      9  C   UNL     1      -1.064   2.689  24.055  0.00  0.00    +0.030 C 
ATOM     10  C   UNL     1      -3.537   3.182  23.792  0.00  0.00    +0.012 C 
ATOM     11  C   UNL     1      -3.449   4.402  24.728  0.00  0.00    +0.025 C 
ATOM     13  C   UNL     1      -2.020   4.874  24.907  0.00  0.00    -0.073 C 
ATOM     14  C   UNL     1      -0.967   4.099  24.587  0.00  0.00    -0.023 C 
ATOM     19  C   UNL     1      -1.828   6.274  25.417  0.00  0.00    +0.039 C 
ENDROOT
BRANCH   8  12
ATOM     12  C   UNL     1      -2.675   0.895  23.220  0.00  0.00    -0.013 C 
ATOM     17  C   UNL     1      -2.565   1.318  21.758  0.00  0.00    +0.007 C 
ATOM     18  C   UNL     1      -4.014   0.215  23.487  0.00  0.00    +0.007 C 
ENDBRANCH   8  12
BRANCH   9  15
ATOM     15  C   UNL     1      -0.059   1.795  24.788  0.00  0.00    +0.113 C 
BRANCH  15   7
ATOM      7  N   UNL     1       0.954   1.324  23.831  0.00  0.00    -0.189 NA
ATOM     27  H   UNL     1       1.316   2.025  23.172  0.00  0.00    +0.148 HD
BRANCH   7   1
ATOM      1  S   UNL     1       0.962  -0.302  23.321  0.00  0.00    +0.059 S 
ATOM      5  O   UNL     1       2.192  -0.934  23.757  0.00  0.00    -0.153 OA
ATOM      6  O   UNL     1       0.561  -0.366  21.929  0.00  0.00    -0.153 OA
BRANCH   1  21
ATOM      2  F   UNL     1      -3.006  -3.464  23.950  0.00  0.00    -0.205 F 
ATOM     21  C   UNL     1      -0.365  -0.983  24.272  0.00  0.00    +0.108 A 
ATOM     22  C   UNL     1      -1.178  -1.975  23.725  0.00  0.00    +0.066 A 
ATOM     23  C   UNL     1      -0.598  -0.528  25.570  0.00  0.00    +0.029 A 
ATOM     24  C   UNL     1      -2.225  -2.512  24.475  0.00  0.00    +0.125 A 
ATOM     25  C   UNL     1      -1.644  -1.064  26.320  0.00  0.00    +0.005 A 
ATOM     26  C   UNL     1      -2.457  -2.056  25.773  0.00  0.00    +0.038 A 
ENDBRANCH   1  21
ENDBRANCH   7   1
ENDBRANCH  15   7
ENDBRANCH   9  15
BRANCH  11  16
ATOM     16  C   UNL     1      -4.102   4.107  26.082  0.00  0.00    +0.128 C 
BRANCH  16  20
ATOM      4  O   UNL     1      -5.627   2.211  25.938  0.00  0.00    -0.251 OA
ATOM     20  C   UNL     1      -5.426   3.416  25.917  0.00  0.00    +0.305 C 
BRANCH  20   3
ATOM      3  O   UNL     1      -6.403   4.342  25.737  0.00  0.00    -0.481 OA
ATOM     28  H   UNL     1      -7.227   3.940  25.389  0.00  0.00    +0.295 HD
ENDBRANCH  20   3
ENDBRANCH  16  20
ENDBRANCH  11  16
TORSDOF 8
ENDMDL
MODEL 10
REMARK VINA RESULT:      -2.9      2.795      3.870
REMARK  Name = 38029578
REMARK  11 active torsions:
REMARK  status: ('A' for Active; 'I' for Inactive)
REMARK    1  A    between atoms: S_1  and  N_7
REMARK    2  A    between atoms: S_1  and  C_21
REMARK    3  A    between atoms: O_3  and  C_20
REMARK    4  A    between atoms: N_7  and  C_15
REMARK    5  A    between atoms: C_8  and  C_12
REMARK    6  A    between atoms: C_9  and  C_15
REMARK    7  A    between atoms: C_11  and  C_16
REMARK    8  A    between atoms: C_12  and  C_17
REMARK    9  A    between atoms: C_12  and  C_18
REMARK   10  A    between atoms: C_13  and  C_19
REMARK   11  A    between atoms: C_16  and  C_20
REMARK                            x       y       z     vdW  Elec       q    Type
REMARK                         _______ _______ _______ _____ _____    ______ ____
ROOT
ATOM      8  C   UNL     1      -3.570  -0.082  25.146  0.00  0.00    +0.000 C 
ATOM      9  C   UNL     1      -2.638  -0.131  23.909  0.00  0.00    +0.030 C 
ATOM     10  C   UNL     1      -4.908   0.580  24.784  0.00  0.00    +0.012 C 
ATOM     11  C   UNL     1      -4.725   2.015  24.254  0.00  0.00    +0.025 C 
ATOM     13  C   UNL     1      -3.627   2.094  23.212  0.00  0.00    -0.073 C 
ATOM     14  C   UNL     1      -2.712   1.119  23.063  0.00  0.00    -0.023 C 
ATOM     19  C   UNL     1      -3.632   3.299  22.313  0.00  0.00    +0.039 C 
ENDROOT
BRANCH   8  12
ATOM     12  C   UNL     1      -3.821  -1.477  25.725  0.00  0.00    -0.013 C 
ATOM     17  C   UNL     1      -2.908  -1.729  26.920  0.00  0.00    +0.007 C 
ATOM     18  C   UNL     1      -3.615  -2.543  24.653  0.00  0.00    +0.007 C 
ENDBRANCH   8  12
BRANCH   9  15
ATOM     15  C   UNL     1      -1.184  -0.384  24.321  0.00  0.00    +0.113 C 
BRANCH  15   7
ATOM      7  N   UNL     1      -0.788   0.616  25.325  0.00  0.00    -0.189 NA
ATOM     27  H   UNL     1      -1.435   0.750  26.112  0.00  0.00    +0.148 HD
BRANCH   7   1
ATOM      1  S   UNL     1       0.178   1.945  24.876  0.00  0.00    +0.059 S 
ATOM      5  O   UNL     1       0.967   2.370  26.018  0.00  0.00    -0.153 OA
ATOM      6  O   UNL     1      -0.636   2.903  24.154  0.00  0.00    -0.153 OA
BRANCH   1  21
ATOM      2  F   UNL     1       1.170  -1.073  20.871  0.00  0.00    -0.205 F 
ATOM     21  C   UNL     1       1.277   1.211  23.701  0.00  0.00    +0.108 A 
ATOM     22  C   UNL     1       0.780   0.341  22.730  0.00  0.00    +0.066 A 
ATOM     23  C   UNL     1       2.641   1.501  23.744  0.00  0.00    +0.029 A 
ATOM     24  C   UNL     1       1.647  -0.238  21.804  0.00  0.00    +0.125 A 
ATOM     25  C   UNL     1       3.507   0.922  22.819  0.00  0.00    +0.005 A 
ATOM     26  C   UNL     1       3.010   0.052  21.848  0.00  0.00    +0.038 A 
ENDBRANCH   1  21
ENDBRANCH   7   1
ENDBRANCH  15   7
ENDBRANCH   9  15
BRANCH  11  16
ATOM     16  C   UNL     1      -4.466   2.998  25.400  0.00  0.00    +0.128 C 
BRANCH  16  20
ATOM      4  O   UNL     1      -6.239   4.637  25.730  0.00  0.00    -0.251 OA
ATOM     20  C   UNL     1      -5.749   3.542  25.960  0.00  0.00    +0.305 C 
BRANCH  20   3
ATOM      3  O   UNL     1      -6.312   2.621  26.784  0.00  0.00    -0.481 OA
ATOM     28  H   UNL     1      -5.732   1.840  26.909  0.00  0.00    +0.295 HD
ENDBRANCH  20   3
ENDBRANCH  16  20
ENDBRANCH  11  16
TORSDOF 8
ENDMDL
