MODEL 1
REMARK VINA RESULT:      16.8      0.000      0.000
REMARK  Name = 7134988
REMARK  11 active torsions:
REMARK  status: ('A' for Active; 'I' for Inactive)
REMARK    1  A    between atoms: O_2  and  C_15
REMARK    2  A    between atoms: O_3  and  C_20
REMARK    3  A    between atoms: O_6  and  C_38
REMARK    4  A    between atoms: O_6  and  C_39
REMARK    5  A    between atoms: C_10  and  C_18
REMARK    6  A    between atoms: C_12  and  C_20
REMARK    7  A    between atoms: C_12  and  C_21
REMARK    8  A    between atoms: C_13  and  C_23
REMARK    9  A    between atoms: C_23  and  C_24
REMARK   10  A    between atoms: C_30  and  C_31
REMARK   11  A    between atoms: C_32  and  C_33
REMARK                            x       y       z     vdW  Elec       q    Type
REMARK                         _______ _______ _______ _____ _____    ______ ____
ROOT
ATOM      1  S   UNL     1       0.346   2.226  25.865  0.00  0.00    -0.057 S 
ATOM      5  O   UNL     1       1.834   0.038  22.035  0.00  0.00    -0.270 OA
ATOM      7  N   UNL     1      -0.357   1.337  23.538  0.00  0.00    -0.229 NA
ATOM      9  N   UNL     1       1.942   1.003  24.182  0.00  0.00    -0.261 N 
ATOM     10  C   UNL     1      -3.990   2.287  24.415  0.00  0.00    -0.019 C 
ATOM     11  C   UNL     1      -3.532   3.506  25.332  0.00  0.00    +0.011 C 
ATOM     12  C   UNL     1      -4.664   4.271  26.122  0.00  0.00    +0.021 C 
ATOM     13  C   UNL     1      -2.798   1.959  23.403  0.00  0.00    +0.054 C 
ATOM     14  C   UNL     1      -5.233   2.703  23.588  0.00  0.00    +0.010 C 
ATOM     15  C   UNL     1      -5.849   4.568  25.159  0.00  0.00    +0.123 C 
ATOM     16  C   UNL     1      -2.303   3.128  26.209  0.00  0.00    +0.049 C 
ATOM     17  C   UNL     1      -6.344   3.332  24.417  0.00  0.00    +0.032 C 
ATOM     18  C   UNL     1      -4.336   1.017  25.230  0.00  0.00    +0.012 C 
ATOM     19  C   UNL     1      -1.474   1.904  24.123  0.00  0.00    +0.058 A 
ATOM     21  C   UNL     1      -4.106   5.640  26.607  0.00  0.00    +0.016 C 
ATOM     22  C   UNL     1      -1.269   2.451  25.372  0.00  0.00    +0.015 A 
ATOM     25  C   UNL     1       0.659   1.443  24.369  0.00  0.00    +0.165 A 
ATOM     32  C   UNL     1       2.448   0.341  23.052  0.00  0.00    +0.250 C 
ATOM     42  H   UNL     1       2.565   1.236  24.949  0.00  0.00    +0.157 HD
ENDROOT
BRANCH  32  33
ATOM     33  C   UNL     1       3.896   0.003  23.107  0.00  0.00    +0.037 A 
ATOM     34  C   UNL     1       4.301  -1.255  23.552  0.00  0.00    +0.016 A 
ATOM     35  C   UNL     1       4.847   0.944  22.712  0.00  0.00    +0.016 A 
ATOM     36  C   UNL     1       5.659  -1.572  23.603  0.00  0.00    +0.046 A 
ATOM     37  C   UNL     1       6.204   0.627  22.763  0.00  0.00    +0.046 A 
ATOM     38  C   UNL     1       6.610  -0.630  23.208  0.00  0.00    +0.120 A 
BRANCH  38   6
ATOM      6  O   UNL     1       7.934  -0.941  23.255  0.00  0.00    -0.495 OA
ATOM     39  C   UNL     1       8.858   0.140  23.145  0.00  0.00    +0.277 C 
ENDBRANCH  38   6
ENDBRANCH  32  33
BRANCH  15   2
ATOM      2  O   UNL     1      -6.942   5.144  25.873  0.00  0.00    -0.391 OA
ATOM     40  H   UNL     1      -7.739   5.039  25.325  0.00  0.00    +0.210 HD
ENDBRANCH  15   2
BRANCH  12  20
ATOM     20  C   UNL     1      -5.156   3.549  27.396  0.00  0.00    +0.165 C 
BRANCH  20   3
ATOM      3  O   UNL     1      -6.176   2.652  27.016  0.00  0.00    -0.394 OA
ATOM     41  H   UNL     1      -6.065   2.474  26.066  0.00  0.00    +0.209 HD
ENDBRANCH  20   3
ENDBRANCH  12  20
BRANCH  13  23
ATOM     23  C   UNL     1      -3.020   0.709  22.540  0.00  0.00    +0.106 C 
BRANCH  23  24
ATOM      4  O   UNL     1      -4.638  -0.444  23.831  0.00  0.00    -0.276 OA
ATOM      8  N   UNL     1      -2.540  -1.431  23.676  0.00  0.00    -0.301 N 
ATOM     24  C   UNL     1      -3.479  -0.436  23.406  0.00  0.00    +0.216 C 
ATOM     26  C   UNL     1      -1.157  -1.450  23.185  0.00  0.00    +0.108 C 
ATOM     27  C   UNL     1      -2.921  -2.595  24.477  0.00  0.00    +0.108 C 
ATOM     28  C   UNL     1      -0.173  -1.606  24.344  0.00  0.00    +0.022 C 
ATOM     29  C   UNL     1      -1.975  -2.774  25.663  0.00  0.00    +0.022 C 
ATOM     30  C   UNL     1      -0.511  -2.835  25.202  0.00  0.00    -0.011 C 
ATOM     31  C   UNL     1       0.432  -2.940  26.397  0.00  0.00    +0.007 C 
ENDBRANCH  23  24
ENDBRANCH  13  23
TORSDOF 7
ENDMDL
MODEL 2
REMARK VINA RESULT:      20.3     15.049     17.588
REMARK  Name = 7134988
REMARK  11 active torsions:
REMARK  status: ('A' for Active; 'I' for Inactive)
REMARK    1  A    between atoms: O_2  and  C_15
REMARK    2  A    between atoms: O_3  and  C_20
REMARK    3  A    between atoms: O_6  and  C_38
REMARK    4  A    between atoms: O_6  and  C_39
REMARK    5  A    between atoms: C_10  and  C_18
REMARK    6  A    between atoms: C_12  and  C_20
REMARK    7  A    between atoms: C_12  and  C_21
REMARK    8  A    between atoms: C_13  and  C_23
REMARK    9  A    between atoms: C_23  and  C_24
REMARK   10  A    between atoms: C_30  and  C_31
REMARK   11  A    between atoms: C_32  and  C_33
REMARK                            x       y       z     vdW  Elec       q    Type
REMARK                         _______ _______ _______ _____ _____    ______ ____
ROOT
ATOM      1  S   UNL     1      11.563  -5.650  28.240  0.00  0.00    -0.057 S 
ATOM      5  O   UNL     1      16.032  -6.507  27.256  0.00  0.00    -0.270 OA
ATOM      7  N   UNL     1      13.572  -7.202  28.744  0.00  0.00    -0.229 NA
ATOM      9  N   UNL     1      13.943  -5.420  27.163  0.00  0.00    -0.261 N 
ATOM     10  C   UNL     1      11.421  -8.892  31.462  0.00  0.00    -0.019 C 
ATOM     11  C   UNL     1      10.067  -8.622  30.668  0.00  0.00    +0.011 C 
ATOM     12  C   UNL     1       8.722  -9.019  31.391  0.00  0.00    +0.021 C 
ATOM     13  C   UNL     1      12.625  -8.839  30.413  0.00  0.00    +0.054 C 
ATOM     14  C   UNL     1      11.378 -10.310  32.087  0.00  0.00    +0.010 C 
ATOM     15  C   UNL     1       8.868 -10.443  31.998  0.00  0.00    +0.123 C 
ATOM     16  C   UNL     1      10.047  -7.195  30.046  0.00  0.00    +0.049 C 
ATOM     17  C   UNL     1      10.107 -10.600  32.872  0.00  0.00    +0.032 C 
ATOM     18  C   UNL     1      11.674  -7.859  32.587  0.00  0.00    +0.012 C 
ATOM     19  C   UNL     1      12.507  -7.637  29.511  0.00  0.00    +0.058 A 
ATOM     21  C   UNL     1       7.579  -9.079  30.338  0.00  0.00    +0.016 C 
ATOM     22  C   UNL     1      11.337  -6.926  29.347  0.00  0.00    +0.015 A 
ATOM     25  C   UNL     1      13.193  -6.156  28.041  0.00  0.00    +0.165 A 
ATOM     32  C   UNL     1      15.289  -5.631  26.826  0.00  0.00    +0.250 C 
ATOM     42  H   UNL     1      13.419  -4.681  26.704  0.00  0.00    +0.157 HD
ENDROOT
BRANCH  32  33
ATOM     33  C   UNL     1      15.846  -4.693  25.815  0.00  0.00    +0.037 A 
ATOM     34  C   UNL     1      15.709  -3.316  25.992  0.00  0.00    +0.016 A 
ATOM     35  C   UNL     1      16.506  -5.190  24.691  0.00  0.00    +0.016 A 
ATOM     36  C   UNL     1      16.233  -2.436  25.044  0.00  0.00    +0.046 A 
ATOM     37  C   UNL     1      17.029  -4.310  23.743  0.00  0.00    +0.046 A 
ATOM     38  C   UNL     1      16.893  -2.934  23.919  0.00  0.00    +0.120 A 
BRANCH  38   6
ATOM      6  O   UNL     1      17.405  -2.075  22.996  0.00  0.00    -0.495 OA
ATOM     39  C   UNL     1      16.569  -0.997  22.580  0.00  0.00    +0.277 C 
ENDBRANCH  38   6
ENDBRANCH  32  33
BRANCH  15   2
ATOM      2  O   UNL     1       7.715 -10.780  32.770  0.00  0.00    -0.391 OA
ATOM     40  H   UNL     1       6.966 -10.270  32.418  0.00  0.00    +0.210 HD
ENDBRANCH  15   2
BRANCH  12  20
ATOM     20  C   UNL     1       8.248  -8.010  32.461  0.00  0.00    +0.165 C 
BRANCH  20   3
ATOM      3  O   UNL     1       6.845  -8.112  32.558  0.00  0.00    -0.394 OA
ATOM     41  H   UNL     1       6.499  -8.217  31.655  0.00  0.00    +0.209 HD
ENDBRANCH  20   3
ENDBRANCH  12  20
BRANCH  13  23
ATOM     23  C   UNL     1      14.023  -8.936  31.040  0.00  0.00    +0.106 C 
BRANCH  23  24
ATOM      4  O   UNL     1      15.819  -7.714  30.096  0.00  0.00    -0.276 OA
ATOM      8  N   UNL     1      15.134  -9.608  28.939  0.00  0.00    -0.301 N 
ATOM     24  C   UNL     1      15.074  -8.692  29.988  0.00  0.00    +0.216 C 
ATOM     26  C   UNL     1      14.263 -10.780  28.784  0.00  0.00    +0.108 C 
ATOM     27  C   UNL     1      16.153  -9.462  27.899  0.00  0.00    +0.108 C 
ATOM     28  C   UNL     1      13.586 -10.774  27.414  0.00  0.00    +0.022 C 
ATOM     29  C   UNL     1      15.515  -9.427  26.512  0.00  0.00    +0.022 C 
ATOM     30  C   UNL     1      14.618 -10.652  26.282  0.00  0.00    -0.011 C 
ATOM     31  C   UNL     1      13.927 -10.573  24.923  0.00  0.00    +0.007 C 
ENDBRANCH  23  24
ENDBRANCH  13  23
TORSDOF 7
ENDMDL
