MODEL 1
REMARK VINA RESULT:      -5.2      0.000      0.000
REMARK  Name = 38027204
REMARK  12 active torsions:
REMARK  status: ('A' for Active; 'I' for Inactive)
REMARK    1  A    between atoms: N_3  and  C_10
REMARK    2  A    between atoms: N_4  and  C_22
REMARK    3  A    between atoms: N_4  and  C_23
REMARK    4  A    between atoms: C_5  and  C_9
REMARK    5  A    between atoms: C_6  and  C_10
REMARK    6  A    between atoms: C_8  and  C_16
REMARK    7  A    between atoms: C_9  and  C_17
REMARK    8  A    between atoms: C_9  and  C_18
REMARK    9  A    between atoms: C_11  and  C_20
REMARK   10  A    between atoms: C_13  and  C_19
REMARK   11  A    between atoms: C_16  and  C_21
REMARK   12  A    between atoms: C_22  and  C_24
REMARK                            x       y       z     vdW  Elec       q    Type
REMARK                         _______ _______ _______ _____ _____    ______ ____
ROOT
ATOM      5  C   UNL     1      -0.602   0.829  24.219  0.00  0.00    +0.000 C 
ATOM      6  C   UNL     1       0.337  -0.381  23.989  0.00  0.00    +0.032 C 
ATOM      7  C   UNL     1      -1.621   0.515  25.325  0.00  0.00    +0.012 C 
ATOM      8  C   UNL     1      -2.485  -0.715  24.989  0.00  0.00    +0.023 C 
ATOM     11  C   UNL     1      -1.644  -1.876  24.494  0.00  0.00    -0.073 C 
ATOM     12  C   UNL     1      -0.380  -1.708  24.064  0.00  0.00    -0.022 C 
ATOM     20  C   UNL     1      -2.274  -3.239  24.548  0.00  0.00    +0.039 C 
ENDROOT
BRANCH   5   9
ATOM      9  C   UNL     1       0.181   2.096  24.579  0.00  0.00    -0.013 C 
ATOM     17  C   UNL     1      -0.274   3.266  23.713  0.00  0.00    +0.007 C 
ATOM     18  C   UNL     1       0.014   2.421  26.060  0.00  0.00    +0.007 C 
ENDBRANCH   5   9
BRANCH   6  10
ATOM     10  C   UNL     1       1.065  -0.269  22.645  0.00  0.00    +0.112 C 
BRANCH  10   3
ATOM      1  O   UNL     1       3.175   1.717  22.889  0.00  0.00    -0.276 OA
ATOM      3  N   UNL     1       2.466  -0.502  22.807  0.00  0.00    -0.315 N 
ATOM     19  C   UNL     1       3.409   0.514  22.916  0.00  0.00    +0.216 C 
ATOM     30  H   UNL     1       2.787  -1.462  22.891  0.00  0.00    +0.149 HD
BRANCH  19  13
ATOM     13  C   UNL     1       4.815   0.042  23.081  0.00  0.00    +0.075 C 
ATOM     14  C   UNL     1       5.588   0.460  24.297  0.00  0.00    +0.013 C 
ATOM     15  C   UNL     1       5.128  -0.961  24.153  0.00  0.00    +0.013 C 
ENDBRANCH  19  13
ENDBRANCH  10   3
ENDBRANCH   6  10
BRANCH   8  16
ATOM     16  C   UNL     1      -3.581  -0.362  23.978  0.00  0.00    +0.103 C 
BRANCH  16  21
ATOM      2  O   UNL     1      -3.262   1.869  23.160  0.00  0.00    -0.276 OA
ATOM      4  N   UNL     1      -4.847   1.582  24.829  0.00  0.00    -0.300 N 
ATOM     21  C   UNL     1      -3.868   1.128  23.938  0.00  0.00    +0.216 C 
ATOM     23  C   UNL     1      -5.550   0.687  25.740  0.00  0.00    +0.132 C 
BRANCH   4  22
ATOM     22  C   UNL     1      -5.237   2.987  24.912  0.00  0.00    +0.142 C 
BRANCH  22  24
ATOM     24  C   UNL     1      -4.048   3.895  25.036  0.00  0.00    -0.030 A 
ATOM     25  C   UNL     1      -3.736   4.779  24.004  0.00  0.00    +0.005 A 
ATOM     26  C   UNL     1      -3.254   3.852  26.182  0.00  0.00    +0.005 A 
ATOM     27  C   UNL     1      -2.630   5.622  24.118  0.00  0.00    +0.000 A 
ATOM     28  C   UNL     1      -2.147   4.695  26.296  0.00  0.00    +0.000 A 
ATOM     29  C   UNL     1      -1.836   5.580  25.264  0.00  0.00    +0.000 A 
ENDBRANCH  22  24
ENDBRANCH   4  22
ENDBRANCH  16  21
ENDBRANCH   8  16
TORSDOF 8
ENDMDL
MODEL 2
REMARK VINA RESULT:      -2.7      1.874      6.481
REMARK  Name = 38027204
REMARK  12 active torsions:
REMARK  status: ('A' for Active; 'I' for Inactive)
REMARK    1  A    between atoms: N_3  and  C_10
REMARK    2  A    between atoms: N_4  and  C_22
REMARK    3  A    between atoms: N_4  and  C_23
REMARK    4  A    between atoms: C_5  and  C_9
REMARK    5  A    between atoms: C_6  and  C_10
REMARK    6  A    between atoms: C_8  and  C_16
REMARK    7  A    between atoms: C_9  and  C_17
REMARK    8  A    between atoms: C_9  and  C_18
REMARK    9  A    between atoms: C_11  and  C_20
REMARK   10  A    between atoms: C_13  and  C_19
REMARK   11  A    between atoms: C_16  and  C_21
REMARK   12  A    between atoms: C_22  and  C_24
REMARK                            x       y       z     vdW  Elec       q    Type
REMARK                         _______ _______ _______ _____ _____    ______ ____
ROOT
ATOM      5  C   UNL     1      -3.026   1.898  23.826  0.00  0.00    +0.000 C 
ATOM      6  C   UNL     1      -4.221   1.895  24.812  0.00  0.00    +0.032 C 
ATOM      7  C   UNL     1      -2.832   0.502  23.215  0.00  0.00    +0.012 C 
ATOM      8  C   UNL     1      -2.574  -0.572  24.290  0.00  0.00    +0.023 C 
ATOM     11  C   UNL     1      -3.558  -0.467  25.438  0.00  0.00    -0.073 C 
ATOM     12  C   UNL     1      -4.295   0.638  25.648  0.00  0.00    -0.022 C 
ATOM     20  C   UNL     1      -3.707  -1.680  26.314  0.00  0.00    +0.039 C 
ENDROOT
BRANCH   5   9
ATOM      9  C   UNL     1      -3.215   2.931  22.710  0.00  0.00    -0.013 C 
ATOM     17  C   UNL     1      -2.764   2.354  21.371  0.00  0.00    +0.007 C 
ATOM     18  C   UNL     1      -4.670   3.381  22.642  0.00  0.00    +0.007 C 
ENDBRANCH   5   9
BRANCH   6  10
ATOM     10  C   UNL     1      -4.181   3.119  25.735  0.00  0.00    +0.112 C 
BRANCH  10   3
ATOM      1  O   UNL     1      -1.405   2.677  26.483  0.00  0.00    -0.276 OA
ATOM      3  N   UNL     1      -3.054   3.945  25.432  0.00  0.00    -0.315 N 
ATOM     19  C   UNL     1      -1.755   3.655  25.832  0.00  0.00    +0.216 C 
ATOM     30  H   UNL     1      -3.204   4.767  24.854  0.00  0.00    +0.149 HD
BRANCH  19  13
ATOM     13  C   UNL     1      -0.734   4.655  25.402  0.00  0.00    +0.075 C 
ATOM     14  C   UNL     1      -0.444   4.820  23.939  0.00  0.00    +0.013 C 
ATOM     15  C   UNL     1      -1.182   5.895  24.683  0.00  0.00    +0.013 C 
ENDBRANCH  19  13
ENDBRANCH  10   3
ENDBRANCH   6  10
BRANCH   8  16
ATOM     16  C   UNL     1      -1.129  -0.512  24.796  0.00  0.00    +0.103 C 
BRANCH  16  21
ATOM      2  O   UNL     1      -0.096  -1.960  23.190  0.00  0.00    -0.276 OA
ATOM      4  N   UNL     1       0.745   0.196  23.350  0.00  0.00    -0.300 N 
ATOM     21  C   UNL     1      -0.123  -0.841  23.709  0.00  0.00    +0.216 C 
ATOM     23  C   UNL     1       0.693   1.511  23.977  0.00  0.00    +0.132 C 
BRANCH   4  22
ATOM     22  C   UNL     1       1.769   0.038  22.320  0.00  0.00    +0.142 C 
BRANCH  22  24
ATOM     24  C   UNL     1       3.141  -0.111  22.910  0.00  0.00    -0.030 A 
ATOM     25  C   UNL     1       4.032   0.961  22.881  0.00  0.00    +0.005 A 
ATOM     26  C   UNL     1       3.525  -1.322  23.487  0.00  0.00    +0.005 A 
ATOM     27  C   UNL     1       5.308   0.823  23.428  0.00  0.00    +0.000 A 
ATOM     28  C   UNL     1       4.801  -1.460  24.035  0.00  0.00    +0.000 A 
ATOM     29  C   UNL     1       5.691  -0.387  24.006  0.00  0.00    +0.000 A 
ENDBRANCH  22  24
ENDBRANCH   4  22
ENDBRANCH  16  21
ENDBRANCH   8  16
TORSDOF 8
ENDMDL
MODEL 3
REMARK VINA RESULT:      -2.6      1.474      3.351
REMARK  Name = 38027204
REMARK  12 active torsions:
REMARK  status: ('A' for Active; 'I' for Inactive)
REMARK    1  A    between atoms: N_3  and  C_10
REMARK    2  A    between atoms: N_4  and  C_22
REMARK    3  A    between atoms: N_4  and  C_23
REMARK    4  A    between atoms: C_5  and  C_9
REMARK    5  A    between atoms: C_6  and  C_10
REMARK    6  A    between atoms: C_8  and  C_16
REMARK    7  A    between atoms: C_9  and  C_17
REMARK    8  A    between atoms: C_9  and  C_18
REMARK    9  A    between atoms: C_11  and  C_20
REMARK   10  A    between atoms: C_13  and  C_19
REMARK   11  A    between atoms: C_16  and  C_21
REMARK   12  A    between atoms: C_22  and  C_24
REMARK                            x       y       z     vdW  Elec       q    Type
REMARK                         _______ _______ _______ _____ _____    ______ ____
ROOT
ATOM      5  C   UNL     1      -2.899  -1.087  24.601  0.00  0.00    +0.000 C 
ATOM      6  C   UNL     1      -1.782  -0.378  23.795  0.00  0.00    +0.032 C 
ATOM      7  C   UNL     1      -4.262  -0.886  23.919  0.00  0.00    +0.012 C 
ATOM      8  C   UNL     1      -4.630   0.603  23.781  0.00  0.00    +0.023 C 
ATOM     11  C   UNL     1      -3.475   1.421  23.238  0.00  0.00    -0.073 C 
ATOM     12  C   UNL     1      -2.211   0.960  23.240  0.00  0.00    -0.022 C 
ATOM     20  C   UNL     1      -3.813   2.763  22.651  0.00  0.00    +0.039 C 
ENDROOT
BRANCH   5   9
ATOM      9  C   UNL     1      -2.617  -2.584  24.767  0.00  0.00    -0.013 C 
ATOM     17  C   UNL     1      -3.827  -3.404  24.331  0.00  0.00    +0.007 C 
ATOM     18  C   UNL     1      -1.378  -2.982  23.973  0.00  0.00    +0.007 C 
ENDBRANCH   5   9
BRANCH   6  10
ATOM     10  C   UNL     1      -0.517  -0.198  24.643  0.00  0.00    +0.112 C 
BRANCH  10   3
ATOM      1  O   UNL     1       1.440   1.750  23.729  0.00  0.00    -0.276 OA
ATOM      3  N   UNL     1       0.655  -0.441  23.862  0.00  0.00    -0.315 N 
ATOM     19  C   UNL     1       1.540   0.557  23.469  0.00  0.00    +0.216 C 
ATOM     30  H   UNL     1       0.879  -1.401  23.618  0.00  0.00    +0.149 HD
BRANCH  19  13
ATOM     13  C   UNL     1       2.699   0.076  22.660  0.00  0.00    +0.075 C 
ATOM     14  C   UNL     1       3.960   0.887  22.638  0.00  0.00    +0.013 C 
ATOM     15  C   UNL     1       3.925  -0.424  23.367  0.00  0.00    +0.013 C 
ENDBRANCH  19  13
ENDBRANCH  10   3
ENDBRANCH   6  10
BRANCH   8  16
ATOM     16  C   UNL     1      -5.129   1.175  25.112  0.00  0.00    +0.103 C 
BRANCH  16  21
ATOM      2  O   UNL     1      -3.006   1.582  26.148  0.00  0.00    -0.276 OA
ATOM      4  N   UNL     1      -4.447   3.390  25.967  0.00  0.00    -0.300 N 
ATOM     21  C   UNL     1      -4.090   2.050  25.789  0.00  0.00    +0.216 C 
ATOM     23  C   UNL     1      -5.733   3.921  25.534  0.00  0.00    +0.132 C 
BRANCH   4  22
ATOM     22  C   UNL     1      -3.556   4.360  26.601  0.00  0.00    +0.142 C 
BRANCH  22  24
ATOM     24  C   UNL     1      -2.261   4.504  25.855  0.00  0.00    -0.030 A 
ATOM     25  C   UNL     1      -2.005   5.663  25.123  0.00  0.00    +0.005 A 
ATOM     26  C   UNL     1      -1.315   3.480  25.894  0.00  0.00    +0.005 A 
ATOM     27  C   UNL     1      -0.802   5.798  24.429  0.00  0.00    +0.000 A 
ATOM     28  C   UNL     1      -0.112   3.615  25.200  0.00  0.00    +0.000 A 
ATOM     29  C   UNL     1       0.144   4.774  24.468  0.00  0.00    +0.000 A 
ENDBRANCH  22  24
ENDBRANCH   4  22
ENDBRANCH  16  21
ENDBRANCH   8  16
TORSDOF 8
ENDMDL
MODEL 4
REMARK VINA RESULT:      -2.4      1.200      7.373
REMARK  Name = 38027204
REMARK  12 active torsions:
REMARK  status: ('A' for Active; 'I' for Inactive)
REMARK    1  A    between atoms: N_3  and  C_10
REMARK    2  A    between atoms: N_4  and  C_22
REMARK    3  A    between atoms: N_4  and  C_23
REMARK    4  A    between atoms: C_5  and  C_9
REMARK    5  A    between atoms: C_6  and  C_10
REMARK    6  A    between atoms: C_8  and  C_16
REMARK    7  A    between atoms: C_9  and  C_17
REMARK    8  A    between atoms: C_9  and  C_18
REMARK    9  A    between atoms: C_11  and  C_20
REMARK   10  A    between atoms: C_13  and  C_19
REMARK   11  A    between atoms: C_16  and  C_21
REMARK   12  A    between atoms: C_22  and  C_24
REMARK                            x       y       z     vdW  Elec       q    Type
REMARK                         _______ _______ _______ _____ _____    ______ ____
ROOT
ATOM      5  C   UNL     1      -2.778  -1.248  24.526  0.00  0.00    +0.000 C 
ATOM      6  C   UNL     1      -3.349  -0.380  25.676  0.00  0.00    +0.032 C 
ATOM      7  C   UNL     1      -1.271  -1.477  24.725  0.00  0.00    +0.012 C 
ATOM      8  C   UNL     1      -0.483  -0.154  24.777  0.00  0.00    +0.023 C 
ATOM     11  C   UNL     1      -1.141   0.858  25.694  0.00  0.00    -0.073 C 
ATOM     12  C   UNL     1      -2.418   0.733  26.096  0.00  0.00    -0.022 C 
ATOM     20  C   UNL     1      -0.281   1.994  26.175  0.00  0.00    +0.039 C 
ENDROOT
BRANCH   5   9
ATOM      9  C   UNL     1      -3.498  -2.596  24.420  0.00  0.00    -0.013 C 
ATOM     17  C   UNL     1      -4.682  -2.491  23.463  0.00  0.00    +0.007 C 
ATOM     18  C   UNL     1      -2.529  -3.682  23.965  0.00  0.00    +0.007 C 
ENDBRANCH   5   9
BRANCH   6  10
ATOM     10  C   UNL     1      -4.713   0.210  25.299  0.00  0.00    +0.112 C 
BRANCH  10   3
ATOM      1  O   UNL     1      -3.586   1.776  23.123  0.00  0.00    -0.276 OA
ATOM      3  N   UNL     1      -4.639   1.633  25.198  0.00  0.00    -0.315 N 
ATOM     19  C   UNL     1      -4.080   2.301  24.115  0.00  0.00    +0.216 C 
ATOM     30  H   UNL     1      -5.058   2.190  25.938  0.00  0.00    +0.149 HD
BRANCH  19  13
ATOM     13  C   UNL     1      -4.112   3.790  24.219  0.00  0.00    +0.075 C 
ATOM     14  C   UNL     1      -4.222   4.425  25.573  0.00  0.00    +0.013 C 
ATOM     15  C   UNL     1      -2.933   4.507  24.808  0.00  0.00    +0.013 C 
ENDBRANCH  19  13
ENDBRANCH  10   3
ENDBRANCH   6  10
BRANCH   8  16
ATOM     16  C   UNL     1      -0.285   0.426  23.372  0.00  0.00    +0.103 C 
BRANCH  16  21
ATOM      2  O   UNL     1       1.753   1.619  23.789  0.00  0.00    -0.276 OA
ATOM      4  N   UNL     1       1.764   0.110  22.028  0.00  0.00    -0.300 N 
ATOM     21  C   UNL     1       1.165   0.783  23.097  0.00  0.00    +0.216 C 
ATOM     23  C   UNL     1       1.049  -0.874  21.224  0.00  0.00    +0.132 C 
BRANCH   4  22
ATOM     22  C   UNL     1       3.152   0.342  21.636  0.00  0.00    +0.142 C 
BRANCH  22  24
ATOM     24  C   UNL     1       4.114  -0.043  22.723  0.00  0.00    -0.030 A 
ATOM     25  C   UNL     1       5.017   0.897  23.219  0.00  0.00    +0.005 A 
ATOM     26  C   UNL     1       4.105  -1.339  23.237  0.00  0.00    +0.005 A 
ATOM     27  C   UNL     1       5.912   0.541  24.228  0.00  0.00    +0.000 A 
ATOM     28  C   UNL     1       5.000  -1.696  24.247  0.00  0.00    +0.000 A 
ATOM     29  C   UNL     1       5.902  -0.755  24.742  0.00  0.00    +0.000 A 
ENDBRANCH  22  24
ENDBRANCH   4  22
ENDBRANCH  16  21
ENDBRANCH   8  16
TORSDOF 8
ENDMDL
