MODEL 1
REMARK VINA RESULT:       1.2      0.000      0.000
REMARK  Name = 45783635
REMARK  9 active torsions:
REMARK  status: ('A' for Active; 'I' for Inactive)
REMARK    1  A    between atoms: O_4  and  C_31
REMARK    2  A    between atoms: O_4  and  C_32
REMARK    3  A    between atoms: N_6  and  C_16
REMARK    4  A    between atoms: N_9  and  C_24
REMARK    5  A    between atoms: N_11  and  C_29
REMARK    6  A    between atoms: C_12  and  C_17
REMARK    7  A    between atoms: C_16  and  C_18
REMARK    8  A    between atoms: C_21  and  C_25
REMARK    9  A    between atoms: C_30  and  C_31
REMARK                            x       y       z     vdW  Elec       q    Type
REMARK                         _______ _______ _______ _____ _____    ______ ____
ROOT
ATOM      1  O   UNL     1      -3.812   2.675  22.390  0.00  0.00    -0.336 OA
ATOM      7  N   UNL     1      -2.772   2.105  24.289  0.00  0.00    -0.190 NA
ATOM      8  N   UNL     1      -2.498   2.348  22.031  0.00  0.00    -0.056 NA
ATOM     17  C   UNL     1      -3.887   2.507  23.736  0.00  0.00    +0.245 A 
ATOM     21  C   UNL     1      -1.949   2.022  23.204  0.00  0.00    +0.204 A 
ENDROOT
BRANCH  21  25
ATOM     10  N   UNL     1       1.686   2.141  23.987  0.00  0.00    -0.239 NA
ATOM     25  C   UNL     1      -0.580   1.611  23.327  0.00  0.00    +0.041 A 
ATOM     26  C   UNL     1      -0.174   0.341  22.930  0.00  0.00    +0.016 A 
ATOM     27  C   UNL     1       0.380   2.466  23.845  0.00  0.00    +0.124 A 
ATOM     28  C   UNL     1       1.160  -0.029  23.062  0.00  0.00    +0.044 A 
ATOM     29  C   UNL     1       2.042   0.899  23.590  0.00  0.00    +0.125 A 
BRANCH  29  11
ATOM      5  O   UNL     1       4.250   0.815  21.548  0.00  0.00    -0.273 OA
ATOM     11  N   UNL     1       3.382   0.516  23.718  0.00  0.00    -0.268 N 
ATOM     30  C   UNL     1       4.370   0.497  22.728  0.00  0.00    +0.244 C 
ATOM     33  H   UNL     1       3.647   0.218  24.653  0.00  0.00    +0.156 HD
BRANCH  30  31
ATOM     31  C   UNL     1       5.700   0.010  23.260  0.00  0.00    +0.255 C 
BRANCH  31   4
ATOM      4  O   UNL     1       5.464  -0.876  24.334  0.00  0.00    -0.374 OA
ATOM     32  C   UNL     1       4.666  -1.988  23.940  0.00  0.00    +0.194 C 
ENDBRANCH  31   4
ENDBRANCH  30  31
ENDBRANCH  29  11
ENDBRANCH  21  25
BRANCH  17  12
ATOM      6  N   UNL     1      -5.364   2.185  25.712  0.00  0.00    -0.287 NA
ATOM     12  C   UNL     1      -5.227   2.801  24.378  0.00  0.00    +0.146 C 
ATOM     13  C   UNL     1      -5.454   4.306  24.617  0.00  0.00    +0.030 C 
ATOM     14  C   UNL     1      -5.770   4.430  26.100  0.00  0.00    +0.017 C 
ATOM     15  C   UNL     1      -6.266   3.048  26.476  0.00  0.00    +0.085 C 
BRANCH   6  16
ATOM     16  C   UNL     1      -5.835   0.807  25.663  0.00  0.00    +0.120 C 
BRANCH  16  18
ATOM     18  C   UNL     1      -4.726  -0.152  25.319  0.00  0.00    -0.033 A 
ATOM     19  C   UNL     1      -4.775  -0.876  24.128  0.00  0.00    +0.007 A 
ATOM     20  C   UNL     1      -3.651  -0.317  26.193  0.00  0.00    +0.007 A 
ATOM     22  C   UNL     1      -3.747  -1.765  23.810  0.00  0.00    +0.033 A 
ATOM     23  C   UNL     1      -2.624  -1.205  25.875  0.00  0.00    +0.033 A 
ATOM     24  C   UNL     1      -2.672  -1.930  24.684  0.00  0.00    +0.126 A 
BRANCH  24   9
ATOM      2  O   UNL     1      -1.767  -3.599  23.375  0.00  0.00    -0.126 OA
ATOM      3  O   UNL     1      -0.591  -2.845  25.069  0.00  0.00    -0.126 OA
ATOM      9  N   UNL     1      -1.626  -2.835  24.360  0.00  0.00    +0.056 N 
ENDBRANCH  24   9
ENDBRANCH  16  18
ENDBRANCH   6  16
ENDBRANCH  17  12
TORSDOF 8
ENDMDL
MODEL 2
REMARK VINA RESULT:       1.6      1.245      1.838
REMARK  Name = 45783635
REMARK  9 active torsions:
REMARK  status: ('A' for Active; 'I' for Inactive)
REMARK    1  A    between atoms: O_4  and  C_31
REMARK    2  A    between atoms: O_4  and  C_32
REMARK    3  A    between atoms: N_6  and  C_16
REMARK    4  A    between atoms: N_9  and  C_24
REMARK    5  A    between atoms: N_11  and  C_29
REMARK    6  A    between atoms: C_12  and  C_17
REMARK    7  A    between atoms: C_16  and  C_18
REMARK    8  A    between atoms: C_21  and  C_25
REMARK    9  A    between atoms: C_30  and  C_31
REMARK                            x       y       z     vdW  Elec       q    Type
REMARK                         _______ _______ _______ _____ _____    ______ ____
ROOT
ATOM      1  O   UNL     1      -2.593   2.968  25.884  0.00  0.00    -0.336 OA
ATOM      7  N   UNL     1      -2.258   2.175  23.817  0.00  0.00    -0.190 NA
ATOM      8  N   UNL     1      -1.252   2.567  25.834  0.00  0.00    -0.056 NA
ATOM     17  C   UNL     1      -3.112   2.701  24.657  0.00  0.00    +0.245 A 
ATOM     21  C   UNL     1      -1.131   2.111  24.584  0.00  0.00    +0.204 A 
ENDROOT
BRANCH  21  25
ATOM     10  N   UNL     1       2.432   1.934  23.531  0.00  0.00    -0.239 NA
ATOM     25  C   UNL     1       0.100   1.584  24.070  0.00  0.00    +0.041 A 
ATOM     26  C   UNL     1       0.187   0.271  23.623  0.00  0.00    +0.016 A 
ATOM     27  C   UNL     1       1.241   2.369  24.004  0.00  0.00    +0.124 A 
ATOM     28  C   UNL     1       1.395  -0.212  23.130  0.00  0.00    +0.044 A 
ATOM     29  C   UNL     1       2.477   0.652  23.105  0.00  0.00    +0.125 A 
BRANCH  29  11
ATOM      5  O   UNL     1       5.234   0.665  24.309  0.00  0.00    -0.273 OA
ATOM     11  N   UNL     1       3.688   0.157  22.607  0.00  0.00    -0.268 N 
ATOM     30  C   UNL     1       4.947   0.190  23.215  0.00  0.00    +0.244 C 
ATOM     33  H   UNL     1       3.619  -0.276  21.689  0.00  0.00    +0.156 HD
BRANCH  30  31
ATOM     31  C   UNL     1       6.013  -0.445  22.349  0.00  0.00    +0.255 C 
BRANCH  31   4
ATOM      4  O   UNL     1       7.047  -0.929  23.181  0.00  0.00    -0.374 OA
ATOM     32  C   UNL     1       8.304  -0.341  22.860  0.00  0.00    +0.194 C 
ENDBRANCH  31   4
ENDBRANCH  30  31
ENDBRANCH  29  11
ENDBRANCH  21  25
BRANCH  17  12
ATOM      6  N   UNL     1      -5.455   2.390  25.432  0.00  0.00    -0.287 NA
ATOM     12  C   UNL     1      -4.571   3.051  24.451  0.00  0.00    +0.146 C 
ATOM     13  C   UNL     1      -4.852   4.555  24.623  0.00  0.00    +0.030 C 
ATOM     14  C   UNL     1      -5.948   4.638  25.675  0.00  0.00    +0.017 C 
ATOM     15  C   UNL     1      -6.607   3.274  25.611  0.00  0.00    +0.085 C 
BRANCH   6  16
ATOM     16  C   UNL     1      -5.854   1.046  25.032  0.00  0.00    +0.120 C 
BRANCH  16  18
ATOM     18  C   UNL     1      -4.674   0.116  24.943  0.00  0.00    -0.033 A 
ATOM     19  C   UNL     1      -3.897  -0.136  26.075  0.00  0.00    +0.007 A 
ATOM     20  C   UNL     1      -4.356  -0.494  23.729  0.00  0.00    +0.007 A 
ATOM     22  C   UNL     1      -2.804  -0.999  25.992  0.00  0.00    +0.033 A 
ATOM     23  C   UNL     1      -3.263  -1.357  23.647  0.00  0.00    +0.033 A 
ATOM     24  C   UNL     1      -2.487  -1.609  24.778  0.00  0.00    +0.126 A 
BRANCH  24   9
ATOM      2  O   UNL     1      -0.447  -2.376  25.532  0.00  0.00    -0.126 OA
ATOM      3  O   UNL     1      -1.347  -3.349  23.783  0.00  0.00    -0.126 OA
ATOM      9  N   UNL     1      -1.373  -2.487  24.694  0.00  0.00    +0.056 N 
ENDBRANCH  24   9
ENDBRANCH  16  18
ENDBRANCH   6  16
ENDBRANCH  17  12
TORSDOF 8
ENDMDL
