MODEL 1
REMARK VINA RESULT:       6.4      0.000      0.000
REMARK  Name = 11882033
REMARK  12 active torsions:
REMARK  status: ('A' for Active; 'I' for Inactive)
REMARK    1  A    between atoms: S_1  and  C_20
REMARK    2  A    between atoms: S_1  and  C_30
REMARK    3  A    between atoms: S_2  and  C_36
REMARK    4  A    between atoms: S_2  and  C_39
REMARK    5  A    between atoms: N_8  and  C_13
REMARK    6  A    between atoms: N_9  and  C_19
REMARK    7  A    between atoms: N_10  and  C_28
REMARK    8  A    between atoms: C_14  and  C_17
REMARK    9  A    between atoms: C_18  and  C_20
REMARK   10  A    between atoms: C_19  and  C_22
REMARK   11  A    between atoms: C_19  and  C_24
REMARK   12  A    between atoms: C_22  and  C_23
REMARK                            x       y       z     vdW  Elec       q    Type
REMARK                         _______ _______ _______ _____ _____    ______ ____
ROOT
ATOM      4  O   UNL     1      -5.847   0.526  24.782  0.00  0.00    -0.275 OA
ATOM      7  N   UNL     1      -4.113   2.001  24.359  0.00  0.00    -0.287 N 
ATOM     13  C   UNL     1      -2.154   3.180  23.716  0.00  0.00    +0.094 C 
ATOM     14  C   UNL     1      -3.546   1.264  23.239  0.00  0.00    +0.164 C 
ATOM     15  C   UNL     1      -2.560   2.231  22.586  0.00  0.00    +0.055 C 
ATOM     16  C   UNL     1      -3.411   3.265  24.577  0.00  0.00    +0.131 C 
ATOM     18  C   UNL     1      -5.280   1.600  24.991  0.00  0.00    +0.226 C 
ENDROOT
BRANCH  13   8
ATOM      5  O   UNL     1      -1.394   3.918  26.377  0.00  0.00    -0.253 OA
ATOM      8  N   UNL     1      -1.027   2.678  24.460  0.00  0.00    -0.295 N 
ATOM     10  N   UNL     1       0.421   2.437  26.228  0.00  0.00    -0.269 N 
ATOM     21  C   UNL     1      -0.722   3.092  25.763  0.00  0.00    +0.304 C 
ATOM     40  H   UNL     1      -0.386   2.041  23.997  0.00  0.00    +0.151 HD
ATOM     42  H   UNL     1       0.862   1.779  25.589  0.00  0.00    +0.156 HD
BRANCH  10  28
ATOM     28  C   UNL     1       1.051   2.577  27.487  0.00  0.00    +0.036 A 
ATOM     34  C   UNL     1       0.289   2.551  28.656  0.00  0.00    +0.038 A 
ATOM     35  C   UNL     1       2.434   2.741  27.561  0.00  0.00    +0.023 A 
ATOM     36  C   UNL     1       0.910   2.689  29.896  0.00  0.00    +0.009 A 
ATOM     37  C   UNL     1       3.056   2.879  28.802  0.00  0.00    +0.003 A 
ATOM     38  C   UNL     1       2.293   2.853  29.970  0.00  0.00    +0.015 A 
BRANCH  36   2
ATOM      2  S   UNL     1      -0.062   2.654  31.390  0.00  0.00    -0.129 S 
ATOM     39  C   UNL     1       1.096   1.899  32.566  0.00  0.00    +0.090 C 
ENDBRANCH  36   2
ENDBRANCH  10  28
ENDBRANCH  13   8
BRANCH  14  17
ATOM      3  O   UNL     1      -3.426  -1.039  23.857  0.00  0.00    -0.274 OA
ATOM      9  N   UNL     1      -1.546   0.304  24.141  0.00  0.00    -0.302 N 
ATOM     17  C   UNL     1      -2.853   0.043  23.766  0.00  0.00    +0.234 C 
ATOM     41  H   UNL     1      -1.151   1.218  23.941  0.00  0.00    +0.150 HD
BRANCH   9  19
ATOM     19  C   UNL     1      -0.670  -0.699  24.702  0.00  0.00    +0.163 C 
BRANCH  19  24
ATOM      6  O   UNL     1      -1.605  -2.941  24.624  0.00  0.00    -0.274 OA
ATOM     12  N   UNL     1      -2.243  -1.544  26.332  0.00  0.00    -0.328 N 
ATOM     24  C   UNL     1      -1.550  -1.846  25.178  0.00  0.00    +0.231 C 
ATOM     44  H   UNL     1      -2.857  -2.225  26.764  0.00  0.00    +0.145 HD
ATOM     45  H   UNL     1      -2.168  -0.642  26.792  0.00  0.00    +0.145 HD
ENDBRANCH  19  24
BRANCH  19  22
ATOM     22  C   UNL     1       0.364  -1.203  23.687  0.00  0.00    +0.069 C 
BRANCH  22  23
ATOM     11  N   UNL     1       2.585   1.644  22.997  0.00  0.00    -0.360 N 
ATOM     23  C   UNL     1       1.482  -0.228  23.451  0.00  0.00    -0.020 A 
ATOM     25  C   UNL     1       2.876  -0.504  23.524  0.00  0.00    +0.003 A 
ATOM     26  C   UNL     1       1.335   1.101  23.125  0.00  0.00    +0.087 A 
ATOM     27  C   UNL     1       3.545   0.686  23.234  0.00  0.00    +0.047 A 
ATOM     29  C   UNL     1       3.636  -1.657  23.808  0.00  0.00    +0.010 A 
ATOM     31  C   UNL     1       4.941   0.783  23.214  0.00  0.00    +0.026 A 
ATOM     32  C   UNL     1       5.033  -1.575  23.793  0.00  0.00    +0.001 A 
ATOM     33  C   UNL     1       5.674  -0.373  23.500  0.00  0.00    +0.002 A 
ATOM     43  H   UNL     1       2.775   2.608  22.760  0.00  0.00    +0.165 HD
ENDBRANCH  22  23
ENDBRANCH  19  22
ENDBRANCH   9  19
ENDBRANCH  14  17
BRANCH  18  20
ATOM     20  C   UNL     1      -5.842   2.573  25.998  0.00  0.00    +0.164 C 
BRANCH  20   1
ATOM      1  S   UNL     1      -4.907   4.102  25.862  0.00  0.00    -0.155 S 
ATOM     30  C   UNL     1      -6.261   5.220  25.424  0.00  0.00    +0.085 C 
ENDBRANCH  20   1
ENDBRANCH  18  20
TORSDOF 10
ENDMDL
MODEL 2
REMARK VINA RESULT:       7.1      1.029      1.558
REMARK  Name = 11882033
REMARK  12 active torsions:
REMARK  status: ('A' for Active; 'I' for Inactive)
REMARK    1  A    between atoms: S_1  and  C_20
REMARK    2  A    between atoms: S_1  and  C_30
REMARK    3  A    between atoms: S_2  and  C_36
REMARK    4  A    between atoms: S_2  and  C_39
REMARK    5  A    between atoms: N_8  and  C_13
REMARK    6  A    between atoms: N_9  and  C_19
REMARK    7  A    between atoms: N_10  and  C_28
REMARK    8  A    between atoms: C_14  and  C_17
REMARK    9  A    between atoms: C_18  and  C_20
REMARK   10  A    between atoms: C_19  and  C_22
REMARK   11  A    between atoms: C_19  and  C_24
REMARK   12  A    between atoms: C_22  and  C_23
REMARK                            x       y       z     vdW  Elec       q    Type
REMARK                         _______ _______ _______ _____ _____    ______ ____
ROOT
ATOM      4  O   UNL     1      -5.582   0.265  24.885  0.00  0.00    -0.275 OA
ATOM      7  N   UNL     1      -4.085   1.942  24.333  0.00  0.00    -0.287 N 
ATOM     13  C   UNL     1      -2.334   3.350  23.561  0.00  0.00    +0.094 C 
ATOM     14  C   UNL     1      -3.469   1.245  23.213  0.00  0.00    +0.164 C 
ATOM     15  C   UNL     1      -2.653   2.310  22.484  0.00  0.00    +0.055 C 
ATOM     16  C   UNL     1      -3.554   3.297  24.476  0.00  0.00    +0.131 C 
ATOM     18  C   UNL     1      -5.159   1.414  25.032  0.00  0.00    +0.226 C 
ENDROOT
BRANCH  13   8
ATOM      5  O   UNL     1      -1.920   3.476  26.392  0.00  0.00    -0.253 OA
ATOM      8  N   UNL     1      -1.119   3.034  24.268  0.00  0.00    -0.295 N 
ATOM     10  N   UNL     1       0.290   2.756  26.063  0.00  0.00    -0.269 N 
ATOM     21  C   UNL     1      -0.998   3.122  25.661  0.00  0.00    +0.304 C 
ATOM     40  H   UNL     1      -0.292   2.797  23.729  0.00  0.00    +0.151 HD
ATOM     42  H   UNL     1       0.939   2.488  25.326  0.00  0.00    +0.156 HD
BRANCH  10  28
ATOM     28  C   UNL     1       0.810   2.711  27.377  0.00  0.00    +0.036 A 
ATOM     34  C   UNL     1       2.168   2.945  27.599  0.00  0.00    +0.038 A 
ATOM     35  C   UNL     1      -0.034   2.433  28.452  0.00  0.00    +0.023 A 
ATOM     36  C   UNL     1       2.681   2.901  28.895  0.00  0.00    +0.009 A 
ATOM     37  C   UNL     1       0.479   2.389  29.749  0.00  0.00    +0.003 A 
ATOM     38  C   UNL     1       1.836   2.623  29.970  0.00  0.00    +0.015 A 
BRANCH  36   2
ATOM      2  S   UNL     1       4.414   3.202  29.180  0.00  0.00    -0.129 S 
ATOM     39  C   UNL     1       5.184   2.121  27.942  0.00  0.00    +0.090 C 
ENDBRANCH  36   2
ENDBRANCH  10  28
ENDBRANCH  13   8
BRANCH  14  17
ATOM      3  O   UNL     1      -3.034  -0.969  23.991  0.00  0.00    -0.274 OA
ATOM      9  N   UNL     1      -1.290   0.572  23.944  0.00  0.00    -0.302 N 
ATOM     17  C   UNL     1      -2.594   0.151  23.748  0.00  0.00    +0.234 C 
ATOM     41  H   UNL     1      -1.021   1.499  23.628  0.00  0.00    +0.150 HD
BRANCH   9  19
ATOM     19  C   UNL     1      -0.255  -0.285  24.474  0.00  0.00    +0.163 C 
BRANCH  19  24
ATOM      6  O   UNL     1      -0.998  -2.583  24.738  0.00  0.00    -0.274 OA
ATOM     12  N   UNL     1      -1.474  -1.077  26.406  0.00  0.00    -0.328 N 
ATOM     24  C   UNL     1      -0.949  -1.439  25.183  0.00  0.00    +0.231 C 
ATOM     44  H   UNL     1      -1.952  -1.756  26.988  0.00  0.00    +0.145 HD
ATOM     45  H   UNL     1      -1.404  -0.132  26.771  0.00  0.00    +0.145 HD
ENDBRANCH  19  24
BRANCH  19  22
ATOM     22  C   UNL     1       0.681  -0.813  23.379  0.00  0.00    +0.069 C 
BRANCH  22  23
ATOM     11  N   UNL     1       3.325   1.689  22.866  0.00  0.00    -0.360 N 
ATOM     23  C   UNL     1       1.939  -0.004  23.238  0.00  0.00    -0.020 A 
ATOM     25  C   UNL     1       3.269  -0.464  23.446  0.00  0.00    +0.003 A 
ATOM     26  C   UNL     1       2.006   1.323  22.883  0.00  0.00    +0.087 A 
ATOM     27  C   UNL     1       4.119   0.617  23.206  0.00  0.00    +0.047 A 
ATOM     29  C   UNL     1       3.834  -1.701  23.817  0.00  0.00    +0.010 A 
ATOM     31  C   UNL     1       5.510   0.524  23.318  0.00  0.00    +0.026 A 
ATOM     32  C   UNL     1       5.225  -1.809  23.933  0.00  0.00    +0.001 A 
ATOM     33  C   UNL     1       6.049  -0.712  23.687  0.00  0.00    +0.002 A 
ATOM     43  H   UNL     1       3.666   2.613  22.636  0.00  0.00    +0.165 HD
ENDBRANCH  22  23
ENDBRANCH  19  22
ENDBRANCH   9  19
ENDBRANCH  14  17
BRANCH  18  20
ATOM     20  C   UNL     1      -5.806   2.340  26.030  0.00  0.00    +0.164 C 
BRANCH  20   1
ATOM      1  S   UNL     1      -4.952   3.920  25.945  0.00  0.00    -0.155 S 
ATOM     30  C   UNL     1      -6.344   4.964  25.450  0.00  0.00    +0.085 C 
ENDBRANCH  20   1
ENDBRANCH  18  20
TORSDOF 10
ENDMDL
MODEL 3
REMARK VINA RESULT:       7.3      3.061      5.787
REMARK  Name = 11882033
REMARK  12 active torsions:
REMARK  status: ('A' for Active; 'I' for Inactive)
REMARK    1  A    between atoms: S_1  and  C_20
REMARK    2  A    between atoms: S_1  and  C_30
REMARK    3  A    between atoms: S_2  and  C_36
REMARK    4  A    between atoms: S_2  and  C_39
REMARK    5  A    between atoms: N_8  and  C_13
REMARK    6  A    between atoms: N_9  and  C_19
REMARK    7  A    between atoms: N_10  and  C_28
REMARK    8  A    between atoms: C_14  and  C_17
REMARK    9  A    between atoms: C_18  and  C_20
REMARK   10  A    between atoms: C_19  and  C_22
REMARK   11  A    between atoms: C_19  and  C_24
REMARK   12  A    between atoms: C_22  and  C_23
REMARK                            x       y       z     vdW  Elec       q    Type
REMARK                         _______ _______ _______ _____ _____    ______ ____
ROOT
ATOM      4  O   UNL     1      -6.009   4.043  25.722  0.00  0.00    -0.275 OA
ATOM      7  N   UNL     1      -3.709   4.205  25.929  0.00  0.00    -0.287 N 
ATOM     13  C   UNL     1      -1.369   4.577  25.762  0.00  0.00    +0.094 C 
ATOM     14  C   UNL     1      -3.539   5.292  24.976  0.00  0.00    +0.164 C 
ATOM     15  C   UNL     1      -2.111   5.788  25.191  0.00  0.00    +0.055 C 
ATOM     16  C   UNL     1      -2.443   3.852  26.569  0.00  0.00    +0.131 C 
ATOM     18  C   UNL     1      -4.960   3.722  26.283  0.00  0.00    +0.226 C 
ENDROOT
BRANCH  13   8
ATOM      5  O   UNL     1       0.503   2.434  26.090  0.00  0.00    -0.253 OA
ATOM      8  N   UNL     1      -0.825   3.741  24.721  0.00  0.00    -0.295 N 
ATOM     10  N   UNL     1       0.439   2.074  23.771  0.00  0.00    -0.269 N 
ATOM     21  C   UNL     1       0.090   2.709  24.966  0.00  0.00    +0.304 C 
ATOM     40  H   UNL     1      -1.068   3.950  23.757  0.00  0.00    +0.151 HD
ATOM     42  H   UNL     1       0.005   2.428  22.921  0.00  0.00    +0.156 HD
BRANCH  10  28
ATOM     28  C   UNL     1       1.331   0.990  23.591  0.00  0.00    +0.036 A 
ATOM     34  C   UNL     1       2.701   1.225  23.482  0.00  0.00    +0.038 A 
ATOM     35  C   UNL     1       0.839  -0.313  23.524  0.00  0.00    +0.023 A 
ATOM     36  C   UNL     1       3.580   0.157  23.304  0.00  0.00    +0.009 A 
ATOM     37  C   UNL     1       1.718  -1.382  23.347  0.00  0.00    +0.003 A 
ATOM     38  C   UNL     1       3.088  -1.147  23.237  0.00  0.00    +0.015 A 
BRANCH  36   2
ATOM      2  S   UNL     1       5.331   0.455  23.166  0.00  0.00    -0.129 S 
ATOM     39  C   UNL     1       6.010  -0.805  24.283  0.00  0.00    +0.090 C 
ENDBRANCH  36   2
ENDBRANCH  10  28
ENDBRANCH  13   8
BRANCH  14  17
ATOM      3  O   UNL     1      -4.017   5.485  22.646  0.00  0.00    -0.274 OA
ATOM      9  N   UNL     1      -3.579   3.380  23.536  0.00  0.00    -0.302 N 
ATOM     17  C   UNL     1      -3.733   4.754  23.591  0.00  0.00    +0.234 C 
ATOM     41  H   UNL     1      -3.261   2.888  24.367  0.00  0.00    +0.150 HD
BRANCH   9  19
ATOM     19  C   UNL     1      -3.738   2.614  22.322  0.00  0.00    +0.163 C 
BRANCH  19  24
ATOM      6  O   UNL     1      -1.384   3.155  22.059  0.00  0.00    -0.274 OA
ATOM     12  N   UNL     1      -2.359   1.733  20.542  0.00  0.00    -0.328 N 
ATOM     24  C   UNL     1      -2.376   2.562  21.645  0.00  0.00    +0.231 C 
ATOM     44  H   UNL     1      -1.509   1.598  20.006  0.00  0.00    +0.145 HD
ATOM     45  H   UNL     1      -3.182   1.230  20.225  0.00  0.00    +0.145 HD
ENDBRANCH  19  24
BRANCH  19  22
ATOM     22  C   UNL     1      -4.257   1.196  22.591  0.00  0.00    +0.069 C 
BRANCH  22  23
ATOM     11  N   UNL     1      -2.201   0.133  25.447  0.00  0.00    -0.360 N 
ATOM     23  C   UNL     1      -3.524   0.502  23.703  0.00  0.00    -0.020 A 
ATOM     25  C   UNL     1      -3.593  -0.881  24.029  0.00  0.00    +0.003 A 
ATOM     26  C   UNL     1      -2.660   1.099  24.592  0.00  0.00    +0.087 A 
ATOM     27  C   UNL     1      -2.754  -1.087  25.126  0.00  0.00    +0.047 A 
ATOM     29  C   UNL     1      -4.290  -1.984  23.495  0.00  0.00    +0.010 A 
ATOM     31  C   UNL     1      -2.576  -2.342  25.718  0.00  0.00    +0.026 A 
ATOM     32  C   UNL     1      -4.123  -3.245  24.077  0.00  0.00    +0.001 A 
ATOM     33  C   UNL     1      -3.278  -3.420  25.172  0.00  0.00    +0.002 A 
ATOM     43  H   UNL     1      -1.549   0.293  26.203  0.00  0.00    +0.165 HD
ENDBRANCH  22  23
ENDBRANCH  19  22
ENDBRANCH   9  19
ENDBRANCH  14  17
BRANCH  18  20
ATOM     20  C   UNL     1      -4.978   2.735  27.423  0.00  0.00    +0.164 C 
BRANCH  20   1
ATOM      1  S   UNL     1      -6.432   1.695  27.223  0.00  0.00    -0.155 S 
ATOM     30  C   UNL     1      -6.231   1.267  25.476  0.00  0.00    +0.085 C 
ENDBRANCH  20   1
ENDBRANCH  18  20
TORSDOF 10
ENDMDL
MODEL 4
REMARK VINA RESULT:       8.7      2.849      6.558
REMARK  Name = 11882033
REMARK  12 active torsions:
REMARK  status: ('A' for Active; 'I' for Inactive)
REMARK    1  A    between atoms: S_1  and  C_20
REMARK    2  A    between atoms: S_1  and  C_30
REMARK    3  A    between atoms: S_2  and  C_36
REMARK    4  A    between atoms: S_2  and  C_39
REMARK    5  A    between atoms: N_8  and  C_13
REMARK    6  A    between atoms: N_9  and  C_19
REMARK    7  A    between atoms: N_10  and  C_28
REMARK    8  A    between atoms: C_14  and  C_17
REMARK    9  A    between atoms: C_18  and  C_20
REMARK   10  A    between atoms: C_19  and  C_22
REMARK   11  A    between atoms: C_19  and  C_24
REMARK   12  A    between atoms: C_22  and  C_23
REMARK                            x       y       z     vdW  Elec       q    Type
REMARK                         _______ _______ _______ _____ _____    ______ ____
ROOT
ATOM      4  O   UNL     1      -4.039   1.502  25.255  0.00  0.00    -0.275 OA
ATOM      7  N   UNL     1      -3.335  -0.628  24.681  0.00  0.00    -0.287 N 
ATOM     13  C   UNL     1      -2.424  -2.812  24.480  0.00  0.00    +0.094 C 
ATOM     14  C   UNL     1      -3.049  -1.073  26.037  0.00  0.00    +0.164 C 
ATOM     15  C   UNL     1      -2.868  -2.585  25.927  0.00  0.00    +0.055 C 
ATOM     16  C   UNL     1      -3.141  -1.705  23.712  0.00  0.00    +0.131 C 
ATOM     18  C   UNL     1      -3.889   0.615  24.413  0.00  0.00    +0.226 C 
ENDROOT
BRANCH  13   8
ATOM      5  O   UNL     1      -0.959  -0.707  23.204  0.00  0.00    -0.253 OA
ATOM      8  N   UNL     1      -0.992  -2.722  24.338  0.00  0.00    -0.295 N 
ATOM     10  N   UNL     1       1.035  -1.838  23.712  0.00  0.00    -0.269 N 
ATOM     21  C   UNL     1      -0.351  -1.654  23.697  0.00  0.00    +0.304 C 
ATOM     40  H   UNL     1      -0.424  -3.499  24.662  0.00  0.00    +0.151 HD
ATOM     42  H   UNL     1       1.379  -2.683  24.163  0.00  0.00    +0.156 HD
BRANCH  10  28
ATOM     28  C   UNL     1       2.029  -0.989  23.172  0.00  0.00    +0.036 A 
ATOM     34  C   UNL     1       3.240  -0.817  23.844  0.00  0.00    +0.038 A 
ATOM     35  C   UNL     1       1.800  -0.325  21.968  0.00  0.00    +0.023 A 
ATOM     36  C   UNL     1       4.220   0.020  23.312  0.00  0.00    +0.009 A 
ATOM     37  C   UNL     1       2.781   0.513  21.435  0.00  0.00    +0.003 A 
ATOM     38  C   UNL     1       3.990   0.685  22.107  0.00  0.00    +0.015 A 
BRANCH  36   2
ATOM      2  S   UNL     1       5.767   0.240  24.168  0.00  0.00    -0.129 S 
ATOM     39  C   UNL     1       6.934  -0.564  23.034  0.00  0.00    +0.090 C 
ENDBRANCH  36   2
ENDBRANCH  10  28
ENDBRANCH  13   8
BRANCH  14  17
ATOM      3  O   UNL     1      -1.182  -0.798  27.497  0.00  0.00    -0.274 OA
ATOM      9  N   UNL     1      -1.461   0.693  25.732  0.00  0.00    -0.302 N 
ATOM     17  C   UNL     1      -1.796  -0.401  26.512  0.00  0.00    +0.234 C 
ATOM     41  H   UNL     1      -1.997   0.878  24.889  0.00  0.00    +0.150 HD
BRANCH   9  19
ATOM     19  C   UNL     1      -0.310   1.527  25.993  0.00  0.00    +0.163 C 
BRANCH  19  24
ATOM      6  O   UNL     1       1.509   2.070  24.477  0.00  0.00    -0.274 OA
ATOM     12  N   UNL     1      -0.613   1.876  23.620  0.00  0.00    -0.328 N 
ATOM     24  C   UNL     1       0.309   1.868  24.646  0.00  0.00    +0.231 C 
ATOM     44  H   UNL     1      -0.330   2.076  22.667  0.00  0.00    +0.145 HD
ATOM     45  H   UNL     1      -1.598   1.682  23.772  0.00  0.00    +0.145 HD
ENDBRANCH  19  24
BRANCH  19  22
ATOM     22  C   UNL     1      -0.679   2.807  26.753  0.00  0.00    +0.069 C 
BRANCH  22  23
ATOM     11  N   UNL     1      -1.837   5.447  24.472  0.00  0.00    -0.360 N 
ATOM     23  C   UNL     1      -1.414   3.805  25.904  0.00  0.00    -0.020 A 
ATOM     25  C   UNL     1      -2.825   3.969  25.819  0.00  0.00    +0.003 A 
ATOM     26  C   UNL     1      -0.835   4.728  25.064  0.00  0.00    +0.087 A 
ATOM     27  C   UNL     1      -3.064   5.006  24.915  0.00  0.00    +0.047 A 
ATOM     29  C   UNL     1      -3.927   3.334  26.428  0.00  0.00    +0.010 A 
ATOM     31  C   UNL     1      -4.352   5.441  24.587  0.00  0.00    +0.026 A 
ATOM     32  C   UNL     1      -5.222   3.759  26.109  0.00  0.00    +0.001 A 
ATOM     33  C   UNL     1      -5.429   4.796  25.202  0.00  0.00    +0.002 A 
ATOM     43  H   UNL     1      -1.697   6.195  23.806  0.00  0.00    +0.165 HD
ENDBRANCH  22  23
ENDBRANCH  19  22
ENDBRANCH   9  19
ENDBRANCH  14  17
BRANCH  18  20
ATOM     20  C   UNL     1      -4.306   0.847  22.982  0.00  0.00    +0.164 C 
BRANCH  20   1
ATOM      1  S   UNL     1      -3.823   2.521  22.537  0.00  0.00    -0.155 S 
ATOM     30  C   UNL     1      -2.546   2.129  21.317  0.00  0.00    +0.085 C 
ENDBRANCH  20   1
ENDBRANCH  18  20
TORSDOF 10
ENDMDL
MODEL 5
REMARK VINA RESULT:      10.1      2.837      4.708
REMARK  Name = 11882033
REMARK  12 active torsions:
REMARK  status: ('A' for Active; 'I' for Inactive)
REMARK    1  A    between atoms: S_1  and  C_20
REMARK    2  A    between atoms: S_1  and  C_30
REMARK    3  A    between atoms: S_2  and  C_36
REMARK    4  A    between atoms: S_2  and  C_39
REMARK    5  A    between atoms: N_8  and  C_13
REMARK    6  A    between atoms: N_9  and  C_19
REMARK    7  A    between atoms: N_10  and  C_28
REMARK    8  A    between atoms: C_14  and  C_17
REMARK    9  A    between atoms: C_18  and  C_20
REMARK   10  A    between atoms: C_19  and  C_22
REMARK   11  A    between atoms: C_19  and  C_24
REMARK   12  A    between atoms: C_22  and  C_23
REMARK                            x       y       z     vdW  Elec       q    Type
REMARK                         _______ _______ _______ _____ _____    ______ ____
ROOT
ATOM      4  O   UNL     1      -4.065   4.671  23.347  0.00  0.00    -0.275 OA
ATOM      7  N   UNL     1      -2.820   4.220  25.246  0.00  0.00    -0.287 N 
ATOM     13  C   UNL     1      -1.203   3.782  26.930  0.00  0.00    +0.094 C 
ATOM     14  C   UNL     1      -1.552   4.711  24.727  0.00  0.00    +0.164 C 
ATOM     15  C   UNL     1      -0.636   4.806  25.945  0.00  0.00    +0.055 C 
ATOM     16  C   UNL     1      -2.702   3.808  26.644  0.00  0.00    +0.131 C 
ATOM     18  C   UNL     1      -4.001   4.318  24.526  0.00  0.00    +0.226 C 
ENDROOT
BRANCH  13   8
ATOM      5  O   UNL     1      -2.570   1.470  25.934  0.00  0.00    -0.253 OA
ATOM      8  N   UNL     1      -0.641   2.470  26.723  0.00  0.00    -0.295 N 
ATOM     10  N   UNL     1      -0.575   0.250  26.136  0.00  0.00    -0.269 N 
ATOM     21  C   UNL     1      -1.381   1.388  26.231  0.00  0.00    +0.304 C 
ATOM     40  H   UNL     1       0.320   2.306  27.007  0.00  0.00    +0.151 HD
ATOM     42  H   UNL     1       0.395   0.352  26.425  0.00  0.00    +0.156 HD
BRANCH  10  28
ATOM     28  C   UNL     1      -0.943  -1.040  25.686  0.00  0.00    +0.036 A 
ATOM     34  C   UNL     1      -2.193  -1.245  25.101  0.00  0.00    +0.038 A 
ATOM     35  C   UNL     1      -0.056  -2.107  25.827  0.00  0.00    +0.023 A 
ATOM     36  C   UNL     1      -2.555  -2.517  24.658  0.00  0.00    +0.009 A 
ATOM     37  C   UNL     1      -0.418  -3.379  25.384  0.00  0.00    +0.003 A 
ATOM     38  C   UNL     1      -1.668  -3.584  24.799  0.00  0.00    +0.015 A 
BRANCH  36   2
ATOM      2  S   UNL     1      -4.151  -2.780  23.909  0.00  0.00    -0.129 S 
ATOM     39  C   UNL     1      -4.880  -1.120  24.000  0.00  0.00    +0.090 C 
ENDBRANCH  36   2
ENDBRANCH  10  28
ENDBRANCH  13   8
BRANCH  14  17
ATOM      3  O   UNL     1      -0.225   4.058  22.854  0.00  0.00    -0.274 OA
ATOM      9  N   UNL     1      -1.580   2.470  23.883  0.00  0.00    -0.302 N 
ATOM     17  C   UNL     1      -1.031   3.731  23.720  0.00  0.00    +0.234 C 
ATOM     41  H   UNL     1      -2.173   2.294  24.689  0.00  0.00    +0.150 HD
BRANCH   9  19
ATOM     19  C   UNL     1      -1.260   1.352  23.026  0.00  0.00    +0.163 C 
BRANCH  19  24
ATOM      6  O   UNL     1      -3.265   0.495  21.955  0.00  0.00    -0.274 OA
ATOM     12  N   UNL     1      -2.176   2.270  20.986  0.00  0.00    -0.328 N 
ATOM     24  C   UNL     1      -2.333   1.294  21.948  0.00  0.00    +0.231 C 
ATOM     44  H   UNL     1      -2.832   2.352  20.217  0.00  0.00    +0.145 HD
ATOM     45  H   UNL     1      -1.413   2.940  21.008  0.00  0.00    +0.145 HD
ENDBRANCH  19  24
BRANCH  19  22
ATOM     22  C   UNL     1       0.131   1.484  22.392  0.00  0.00    +0.069 C 
BRANCH  22  23
ATOM     11  N   UNL     1       1.852  -1.594  23.429  0.00  0.00    -0.360 N 
ATOM     23  C   UNL     1       1.071   0.386  22.801  0.00  0.00    -0.020 A 
ATOM     25  C   UNL     1       2.483   0.489  22.941  0.00  0.00    +0.003 A 
ATOM     26  C   UNL     1       0.713  -0.907  23.108  0.00  0.00    +0.087 A 
ATOM     27  C   UNL     1       2.949  -0.767  23.336  0.00  0.00    +0.047 A 
ATOM     29  C   UNL     1       3.414   1.533  22.770  0.00  0.00    +0.010 A 
ATOM     31  C   UNL     1       4.302  -1.032  23.570  0.00  0.00    +0.026 A 
ATOM     32  C   UNL     1       4.772   1.282  22.999  0.00  0.00    +0.001 A 
ATOM     33  C   UNL     1       5.207   0.018  23.393  0.00  0.00    +0.002 A 
ATOM     43  H   UNL     1       1.883  -2.569  23.697  0.00  0.00    +0.165 HD
ENDBRANCH  22  23
ENDBRANCH  19  22
ENDBRANCH   9  19
ENDBRANCH  14  17
BRANCH  18  20
ATOM     20  C   UNL     1      -5.255   3.946  25.277  0.00  0.00    +0.164 C 
BRANCH  20   1
ATOM      1  S   UNL     1      -5.630   2.229  24.898  0.00  0.00    -0.155 S 
ATOM     30  C   UNL     1      -6.321   1.734  26.496  0.00  0.00    +0.085 C 
ENDBRANCH  20   1
ENDBRANCH  18  20
TORSDOF 10
ENDMDL
MODEL 6
REMARK VINA RESULT:      10.2      1.726      2.378
REMARK  Name = 11882033
REMARK  12 active torsions:
REMARK  status: ('A' for Active; 'I' for Inactive)
REMARK    1  A    between atoms: S_1  and  C_20
REMARK    2  A    between atoms: S_1  and  C_30
REMARK    3  A    between atoms: S_2  and  C_36
REMARK    4  A    between atoms: S_2  and  C_39
REMARK    5  A    between atoms: N_8  and  C_13
REMARK    6  A    between atoms: N_9  and  C_19
REMARK    7  A    between atoms: N_10  and  C_28
REMARK    8  A    between atoms: C_14  and  C_17
REMARK    9  A    between atoms: C_18  and  C_20
REMARK   10  A    between atoms: C_19  and  C_22
REMARK   11  A    between atoms: C_19  and  C_24
REMARK   12  A    between atoms: C_22  and  C_23
REMARK                            x       y       z     vdW  Elec       q    Type
REMARK                         _______ _______ _______ _____ _____    ______ ____
ROOT
ATOM      4  O   UNL     1      -6.316   1.844  24.677  0.00  0.00    -0.275 OA
ATOM      7  N   UNL     1      -4.170   2.532  24.147  0.00  0.00    -0.287 N 
ATOM     13  C   UNL     1      -1.899   2.822  23.513  0.00  0.00    +0.094 C 
ATOM     14  C   UNL     1      -3.824   1.372  23.339  0.00  0.00    +0.164 C 
ATOM     15  C   UNL     1      -2.540   1.765  22.611  0.00  0.00    +0.055 C 
ATOM     16  C   UNL     1      -3.099   3.528  24.140  0.00  0.00    +0.131 C 
ATOM     18  C   UNL     1      -5.435   2.705  24.688  0.00  0.00    +0.226 C 
ENDROOT
BRANCH  13   8
ATOM      5  O   UNL     1      -0.757   4.136  25.787  0.00  0.00    -0.253 OA
ATOM      8  N   UNL     1      -1.044   2.230  24.511  0.00  0.00    -0.295 N 
ATOM     10  N   UNL     1       0.267   2.113  26.394  0.00  0.00    -0.269 N 
ATOM     21  C   UNL     1      -0.524   2.945  25.597  0.00  0.00    +0.304 C 
ATOM     40  H   UNL     1      -0.753   1.265  24.387  0.00  0.00    +0.151 HD
ATOM     42  H   UNL     1       0.359   1.145  26.094  0.00  0.00    +0.156 HD
BRANCH  10  28
ATOM     28  C   UNL     1       0.966   2.451  27.577  0.00  0.00    +0.036 A 
ATOM     34  C   UNL     1       0.284   2.533  28.791  0.00  0.00    +0.038 A 
ATOM     35  C   UNL     1       2.336   2.703  27.529  0.00  0.00    +0.023 A 
ATOM     36  C   UNL     1       0.972   2.866  29.957  0.00  0.00    +0.009 A 
ATOM     37  C   UNL     1       3.026   3.037  28.695  0.00  0.00    +0.003 A 
ATOM     38  C   UNL     1       2.343   3.118  29.909  0.00  0.00    +0.015 A 
BRANCH  36   2
ATOM      2  S   UNL     1       0.102   2.969  31.509  0.00  0.00    -0.129 S 
ATOM     39  C   UNL     1       1.061   1.828  32.545  0.00  0.00    +0.090 C 
ENDBRANCH  36   2
ENDBRANCH  10  28
ENDBRANCH  13   8
BRANCH  14  17
ATOM      3  O   UNL     1      -3.414   0.339  25.451  0.00  0.00    -0.274 OA
ATOM      9  N   UNL     1      -3.627  -1.004  23.562  0.00  0.00    -0.302 N 
ATOM     17  C   UNL     1      -3.606   0.199  24.246  0.00  0.00    +0.234 C 
ATOM     41  H   UNL     1      -3.880  -1.004  22.578  0.00  0.00    +0.150 HD
BRANCH   9  19
ATOM     19  C   UNL     1      -3.419  -2.282  24.203  0.00  0.00    +0.163 C 
BRANCH  19  24
ATOM      6  O   UNL     1      -5.611  -2.946  23.391  0.00  0.00    -0.274 OA
ATOM     12  N   UNL     1      -3.904  -4.481  23.325  0.00  0.00    -0.328 N 
ATOM     24  C   UNL     1      -4.442  -3.246  23.620  0.00  0.00    +0.231 C 
ATOM     44  H   UNL     1      -4.475  -5.214  22.918  0.00  0.00    +0.145 HD
ATOM     45  H   UNL     1      -2.929  -4.707  23.497  0.00  0.00    +0.145 HD
ENDBRANCH  19  24
BRANCH  19  22
ATOM     22  C   UNL     1      -1.997  -2.815  23.988  0.00  0.00    +0.069 C 
BRANCH  22  23
ATOM     11  N   UNL     1       0.371  -0.401  25.429  0.00  0.00    -0.360 N 
ATOM     23  C   UNL     1      -0.933  -1.804  24.308  0.00  0.00    -0.020 A 
ATOM     25  C   UNL     1      -0.027  -1.208  23.388  0.00  0.00    +0.003 A 
ATOM     26  C   UNL     1      -0.664  -1.288  25.555  0.00  0.00    +0.087 A 
ATOM     27  C   UNL     1       0.780  -0.332  24.117  0.00  0.00    +0.047 A 
ATOM     29  C   UNL     1       0.186  -1.329  22.000  0.00  0.00    +0.010 A 
ATOM     31  C   UNL     1       1.792   0.432  23.525  0.00  0.00    +0.026 A 
ATOM     32  C   UNL     1       1.195  -0.572  21.395  0.00  0.00    +0.001 A 
ATOM     33  C   UNL     1       1.986   0.295  22.148  0.00  0.00    +0.002 A 
ATOM     43  H   UNL     1       0.776   0.128  26.191  0.00  0.00    +0.165 HD
ENDBRANCH  22  23
ENDBRANCH  19  22
ENDBRANCH   9  19
ENDBRANCH  14  17
BRANCH  18  20
ATOM     20  C   UNL     1      -5.691   4.045  25.331  0.00  0.00    +0.164 C 
BRANCH  20   1
ATOM      1  S   UNL     1      -4.793   4.086  26.889  0.00  0.00    -0.155 S 
ATOM     30  C   UNL     1      -3.442   5.189  26.404  0.00  0.00    +0.085 C 
ENDBRANCH  20   1
ENDBRANCH  18  20
TORSDOF 10
ENDMDL
