MODEL 1
REMARK VINA RESULT:       6.6      0.000      0.000
REMARK  Name = 51138078
REMARK  12 active torsions:
REMARK  status: ('A' for Active; 'I' for Inactive)
REMARK    1  A    between atoms: O_2  and  C_26
REMARK    2  A    between atoms: O_2  and  C_33
REMARK    3  A    between atoms: N_4  and  C_22
REMARK    4  A    between atoms: N_5  and  C_23
REMARK    5  A    between atoms: C_6  and  C_10
REMARK    6  A    between atoms: C_8  and  C_17
REMARK    7  A    between atoms: C_10  and  C_13
REMARK    8  A    between atoms: C_13  and  C_20
REMARK    9  A    between atoms: C_13  and  C_21
REMARK   10  A    between atoms: C_22  and  C_24
REMARK   11  A    between atoms: C_23  and  C_25
REMARK   12  A    between atoms: C_28  and  C_32
REMARK                            x       y       z     vdW  Elec       q    Type
REMARK                         _______ _______ _______ _____ _____    ______ ____
ROOT
ATOM      3  N   UNL     1      -1.437  -0.661  24.886  0.00  0.00    -0.299 NA
ATOM      4  N   UNL     1      -2.195   4.294  25.501  0.00  0.00    -0.335 N 
ATOM      6  C   UNL     1      -2.875  -0.448  24.671  0.00  0.00    +0.085 C 
ATOM      7  C   UNL     1      -3.397   0.957  24.982  0.00  0.00    -0.021 A 
ATOM      8  C   UNL     1      -0.570   0.130  24.025  0.00  0.00    +0.145 C 
ATOM      9  C   UNL     1      -2.587   2.121  25.125  0.00  0.00    +0.008 A 
ATOM     11  C   UNL     1      -0.088   1.397  24.729  0.00  0.00    +0.065 C 
ATOM     12  C   UNL     1      -1.174   2.374  25.029  0.00  0.00    -0.020 A 
ATOM     14  C   UNL     1      -3.192   3.353  25.397  0.00  0.00    +0.050 A 
ATOM     15  C   UNL     1      -0.979   3.718  25.277  0.00  0.00    +0.091 A 
ATOM     16  C   UNL     1      -4.799   1.158  25.064  0.00  0.00    +0.006 A 
ATOM     18  C   UNL     1      -4.572   3.522  25.521  0.00  0.00    +0.026 A 
ATOM     19  C   UNL     1      -5.370   2.399  25.336  0.00  0.00    +0.002 A 
ATOM     34  H   UNL     1      -1.195  -0.538  25.868  0.00  0.00    +0.123 HD
ENDROOT
BRANCH   8  17
ATOM      1  O   UNL     1       0.902  -1.696  24.463  0.00  0.00    -0.274 OA
ATOM      5  N   UNL     1       1.296  -0.350  22.606  0.00  0.00    -0.310 N 
ATOM     17  C   UNL     1       0.608  -0.751  23.738  0.00  0.00    +0.231 C 
ATOM     35  H   UNL     1       0.961   0.440  22.064  0.00  0.00    +0.149 HD
BRANCH   5  23
ATOM     23  C   UNL     1       2.484  -1.020  22.125  0.00  0.00    +0.143 C 
BRANCH  23  25
ATOM     25  C   UNL     1       3.695  -0.673  22.943  0.00  0.00    +0.011 A 
ATOM     26  C   UNL     1       4.168   0.638  22.995  0.00  0.00    +0.125 A 
ATOM     27  C   UNL     1       4.347  -1.680  23.655  0.00  0.00    +0.009 A 
ATOM     29  C   UNL     1       5.294   0.943  23.759  0.00  0.00    +0.046 A 
ATOM     30  C   UNL     1       5.473  -1.374  24.419  0.00  0.00    +0.001 A 
ATOM     31  C   UNL     1       5.947  -0.064  24.471  0.00  0.00    +0.004 A 
BRANCH  26   2
ATOM      2  O   UNL     1       3.543   1.633  22.304  0.00  0.00    -0.495 OA
ATOM     33  C   UNL     1       2.537   2.369  22.997  0.00  0.00    +0.277 C 
ENDBRANCH  26   2
ENDBRANCH  23  25
ENDBRANCH   5  23
ENDBRANCH   8  17
BRANCH   6  10
ATOM     10  C   UNL     1      -3.560  -1.534  25.520  0.00  0.00    +0.026 C 
BRANCH  10  13
ATOM     13  C   UNL     1      -3.676  -2.878  24.793  0.00  0.00    -0.015 C 
ATOM     20  C   UNL     1      -2.284  -3.330  24.343  0.00  0.00    +0.007 C 
ATOM     21  C   UNL     1      -4.614  -2.815  23.586  0.00  0.00    +0.007 C 
ENDBRANCH  10  13
ENDBRANCH   6  10
BRANCH   4  22
ATOM     22  C   UNL     1      -2.388   5.700  25.787  0.00  0.00    +0.210 C 
BRANCH  22  24
ATOM     24  C   UNL     1      -2.489   6.502  24.561  0.00  0.00    -0.081 C 
ATOM     28  C   UNL     1      -2.569   7.158  23.559  0.00  0.00    -0.104 C 
ATOM     32  C   UNL     1      -2.669   7.957  22.338  0.00  0.00    +0.106 C 
ENDBRANCH  22  24
ENDBRANCH   4  22
TORSDOF 8
ENDMDL
MODEL 2
REMARK VINA RESULT:       7.8      1.193      1.406
REMARK  Name = 51138078
REMARK  12 active torsions:
REMARK  status: ('A' for Active; 'I' for Inactive)
REMARK    1  A    between atoms: O_2  and  C_26
REMARK    2  A    between atoms: O_2  and  C_33
REMARK    3  A    between atoms: N_4  and  C_22
REMARK    4  A    between atoms: N_5  and  C_23
REMARK    5  A    between atoms: C_6  and  C_10
REMARK    6  A    between atoms: C_8  and  C_17
REMARK    7  A    between atoms: C_10  and  C_13
REMARK    8  A    between atoms: C_13  and  C_20
REMARK    9  A    between atoms: C_13  and  C_21
REMARK   10  A    between atoms: C_22  and  C_24
REMARK   11  A    between atoms: C_23  and  C_25
REMARK   12  A    between atoms: C_28  and  C_32
REMARK                            x       y       z     vdW  Elec       q    Type
REMARK                         _______ _______ _______ _____ _____    ______ ____
ROOT
ATOM      3  N   UNL     1      -1.098  -1.010  24.706  0.00  0.00    -0.299 NA
ATOM      4  N   UNL     1      -2.601   3.715  25.663  0.00  0.00    -0.335 N 
ATOM      6  C   UNL     1      -2.555  -1.009  24.515  0.00  0.00    +0.085 C 
ATOM      7  C   UNL     1      -3.283   0.274  24.925  0.00  0.00    -0.021 A 
ATOM      8  C   UNL     1      -0.378  -0.039  23.895  0.00  0.00    +0.145 C 
ATOM      9  C   UNL     1      -2.660   1.537  25.142  0.00  0.00    +0.008 A 
ATOM     11  C   UNL     1      -0.085   1.239  24.681  0.00  0.00    +0.065 C 
ATOM     12  C   UNL     1      -1.305   2.013  25.055  0.00  0.00    -0.020 A 
ATOM     14  C   UNL     1      -3.443   2.639  25.502  0.00  0.00    +0.050 A 
ATOM     15  C   UNL     1      -1.316   3.351  25.392  0.00  0.00    +0.091 A 
ATOM     16  C   UNL     1      -4.696   0.249  25.029  0.00  0.00    +0.006 A 
ATOM     18  C   UNL     1      -4.830   2.583  25.645  0.00  0.00    +0.026 A 
ATOM     19  C   UNL     1      -5.448   1.365  25.389  0.00  0.00    +0.002 A 
ATOM     34  H   UNL     1      -0.861  -0.917  25.692  0.00  0.00    +0.123 HD
ENDROOT
BRANCH   8  17
ATOM      1  O   UNL     1       1.421  -1.563  24.258  0.00  0.00    -0.274 OA
ATOM      5  N   UNL     1       1.448  -0.219  22.358  0.00  0.00    -0.310 N 
ATOM     17  C   UNL     1       0.917  -0.705  23.541  0.00  0.00    +0.231 C 
ATOM     35  H   UNL     1       0.942   0.485  21.829  0.00  0.00    +0.149 HD
BRANCH   5  23
ATOM     23  C   UNL     1       2.702  -0.681  21.807  0.00  0.00    +0.143 C 
BRANCH  23  25
ATOM     25  C   UNL     1       3.836  -0.521  22.779  0.00  0.00    +0.011 A 
ATOM     26  C   UNL     1       4.382   0.736  23.036  0.00  0.00    +0.125 A 
ATOM     27  C   UNL     1       4.342  -1.648  23.426  0.00  0.00    +0.009 A 
ATOM     29  C   UNL     1       5.435   0.867  23.940  0.00  0.00    +0.046 A 
ATOM     30  C   UNL     1       5.395  -1.517  24.332  0.00  0.00    +0.001 A 
ATOM     31  C   UNL     1       5.942  -0.260  24.589  0.00  0.00    +0.004 A 
BRANCH  26   2
ATOM      2  O   UNL     1       3.900   1.847  22.411  0.00  0.00    -0.495 OA
ATOM     33  C   UNL     1       2.717   2.432  22.951  0.00  0.00    +0.277 C 
ENDBRANCH  26   2
ENDBRANCH  23  25
ENDBRANCH   5  23
ENDBRANCH   8  17
BRANCH   6  10
ATOM     10  C   UNL     1      -3.049  -2.243  25.292  0.00  0.00    +0.026 C 
BRANCH  10  13
ATOM     13  C   UNL     1      -3.586  -3.350  24.379  0.00  0.00    -0.015 C 
ATOM     20  C   UNL     1      -2.454  -3.857  23.482  0.00  0.00    +0.007 C 
ATOM     21  C   UNL     1      -4.760  -2.884  23.516  0.00  0.00    +0.007 C 
ENDBRANCH  10  13
ENDBRANCH   6  10
BRANCH   4  22
ATOM     22  C   UNL     1      -3.004   5.051  26.046  0.00  0.00    +0.210 C 
BRANCH  22  24
ATOM     24  C   UNL     1      -4.425   5.299  25.766  0.00  0.00    -0.081 C 
ATOM     28  C   UNL     1      -5.586   5.498  25.536  0.00  0.00    -0.104 C 
ATOM     32  C   UNL     1      -7.001   5.743  25.257  0.00  0.00    +0.106 C 
ENDBRANCH  22  24
ENDBRANCH   4  22
TORSDOF 8
ENDMDL
MODEL 3
REMARK VINA RESULT:       8.3      0.885      1.592
REMARK  Name = 51138078
REMARK  12 active torsions:
REMARK  status: ('A' for Active; 'I' for Inactive)
REMARK    1  A    between atoms: O_2  and  C_26
REMARK    2  A    between atoms: O_2  and  C_33
REMARK    3  A    between atoms: N_4  and  C_22
REMARK    4  A    between atoms: N_5  and  C_23
REMARK    5  A    between atoms: C_6  and  C_10
REMARK    6  A    between atoms: C_8  and  C_17
REMARK    7  A    between atoms: C_10  and  C_13
REMARK    8  A    between atoms: C_13  and  C_20
REMARK    9  A    between atoms: C_13  and  C_21
REMARK   10  A    between atoms: C_22  and  C_24
REMARK   11  A    between atoms: C_23  and  C_25
REMARK   12  A    between atoms: C_28  and  C_32
REMARK                            x       y       z     vdW  Elec       q    Type
REMARK                         _______ _______ _______ _____ _____    ______ ____
ROOT
ATOM      3  N   UNL     1      -1.528  -0.553  24.831  0.00  0.00    -0.299 NA
ATOM      4  N   UNL     1      -2.515   4.360  25.458  0.00  0.00    -0.335 N 
ATOM      6  C   UNL     1      -2.981  -0.413  24.658  0.00  0.00    +0.085 C 
ATOM      7  C   UNL     1      -3.564   0.965  24.983  0.00  0.00    -0.021 A 
ATOM      8  C   UNL     1      -0.728   0.277  23.942  0.00  0.00    +0.145 C 
ATOM      9  C   UNL     1      -2.809   2.168  25.099  0.00  0.00    +0.008 A 
ATOM     11  C   UNL     1      -0.289   1.570  24.629  0.00  0.00    +0.065 C 
ATOM     12  C   UNL     1      -1.414   2.492  24.960  0.00  0.00    -0.020 A 
ATOM     14  C   UNL     1      -3.466   3.370  25.387  0.00  0.00    +0.050 A 
ATOM     15  C   UNL     1      -1.279   3.844  25.199  0.00  0.00    +0.091 A 
ATOM     16  C   UNL     1      -4.970   1.096  25.106  0.00  0.00    +0.006 A 
ATOM     18  C   UNL     1      -4.849   3.469  25.551  0.00  0.00    +0.026 A 
ATOM     19  C   UNL     1      -5.595   2.308  25.392  0.00  0.00    +0.002 A 
ATOM     34  H   UNL     1      -1.263  -0.415  25.805  0.00  0.00    +0.123 HD
ENDROOT
BRANCH   8  17
ATOM      1  O   UNL     1       0.774  -1.548  24.265  0.00  0.00    -0.274 OA
ATOM      5  N   UNL     1       1.205  -0.020  22.563  0.00  0.00    -0.310 N 
ATOM     17  C   UNL     1       0.483  -0.544  23.622  0.00  0.00    +0.231 C 
ATOM     35  H   UNL     1       0.870   0.811  22.086  0.00  0.00    +0.149 HD
BRANCH   5  23
ATOM     23  C   UNL     1       2.428  -0.613  22.071  0.00  0.00    +0.143 C 
BRANCH  23  25
ATOM     25  C   UNL     1       3.639  -0.071  22.775  0.00  0.00    +0.011 A 
ATOM     26  C   UNL     1       4.359  -0.865  23.667  0.00  0.00    +0.125 A 
ATOM     27  C   UNL     1       4.039   1.242  22.528  0.00  0.00    +0.009 A 
ATOM     29  C   UNL     1       5.481  -0.346  24.313  0.00  0.00    +0.046 A 
ATOM     30  C   UNL     1       5.162   1.761  23.174  0.00  0.00    +0.001 A 
ATOM     31  C   UNL     1       5.882   0.968  24.067  0.00  0.00    +0.004 A 
BRANCH  26   2
ATOM      2  O   UNL     1       3.981  -2.149  23.920  0.00  0.00    -0.495 OA
ATOM     33  C   UNL     1       5.014  -3.132  23.964  0.00  0.00    +0.277 C 
ENDBRANCH  26   2
ENDBRANCH  23  25
ENDBRANCH   5  23
ENDBRANCH   8  17
BRANCH   6  10
ATOM     10  C   UNL     1      -3.585  -1.530  25.530  0.00  0.00    +0.026 C 
BRANCH  10  13
ATOM     13  C   UNL     1      -3.656  -2.879  24.809  0.00  0.00    -0.015 C 
ATOM     20  C   UNL     1      -2.251  -3.282  24.352  0.00  0.00    +0.007 C 
ATOM     21  C   UNL     1      -4.603  -2.856  23.607  0.00  0.00    +0.007 C 
ENDBRANCH  10  13
ENDBRANCH   6  10
BRANCH   4  22
ATOM     22  C   UNL     1      -2.769   5.755  25.747  0.00  0.00    +0.210 C 
BRANCH  22  24
ATOM     24  C   UNL     1      -2.697   6.589  24.540  0.00  0.00    -0.081 C 
ATOM     28  C   UNL     1      -2.634   7.269  23.553  0.00  0.00    -0.104 C 
ATOM     32  C   UNL     1      -2.561   8.098  22.351  0.00  0.00    +0.106 C 
ENDBRANCH  22  24
ENDBRANCH   4  22
TORSDOF 8
ENDMDL
MODEL 4
REMARK VINA RESULT:       8.4      2.034      3.894
REMARK  Name = 51138078
REMARK  12 active torsions:
REMARK  status: ('A' for Active; 'I' for Inactive)
REMARK    1  A    between atoms: O_2  and  C_26
REMARK    2  A    between atoms: O_2  and  C_33
REMARK    3  A    between atoms: N_4  and  C_22
REMARK    4  A    between atoms: N_5  and  C_23
REMARK    5  A    between atoms: C_6  and  C_10
REMARK    6  A    between atoms: C_8  and  C_17
REMARK    7  A    between atoms: C_10  and  C_13
REMARK    8  A    between atoms: C_13  and  C_20
REMARK    9  A    between atoms: C_13  and  C_21
REMARK   10  A    between atoms: C_22  and  C_24
REMARK   11  A    between atoms: C_23  and  C_25
REMARK   12  A    between atoms: C_28  and  C_32
REMARK                            x       y       z     vdW  Elec       q    Type
REMARK                         _______ _______ _______ _____ _____    ______ ____
ROOT
ATOM      3  N   UNL     1      -0.326   0.704  24.034  0.00  0.00    -0.299 NA
ATOM      4  N   UNL     1      -4.828   2.464  25.497  0.00  0.00    -0.335 N 
ATOM      6  C   UNL     1      -1.315  -0.251  23.514  0.00  0.00    +0.085 C 
ATOM      7  C   UNL     1      -2.758  -0.040  23.981  0.00  0.00    -0.021 A 
ATOM      8  C   UNL     1      -0.532   2.082  23.612  0.00  0.00    +0.145 C 
ATOM      9  C   UNL     1      -3.263   1.155  24.572  0.00  0.00    +0.008 A 
ATOM     11  C   UNL     1      -1.283   2.886  24.672  0.00  0.00    +0.065 C 
ATOM     12  C   UNL     1      -2.687   2.433  24.893  0.00  0.00    -0.020 A 
ATOM     14  C   UNL     1      -4.611   1.224  24.944  0.00  0.00    +0.050 A 
ATOM     15  C   UNL     1      -3.680   3.200  25.467  0.00  0.00    +0.091 A 
ATOM     16  C   UNL     1      -3.704  -1.070  23.748  0.00  0.00    +0.006 A 
ATOM     18  C   UNL     1      -5.517   0.180  24.748  0.00  0.00    +0.026 A 
ATOM     19  C   UNL     1      -5.041  -0.969  24.130  0.00  0.00    +0.002 A 
ATOM     34  H   UNL     1      -0.252   0.635  25.048  0.00  0.00    +0.123 HD
ENDROOT
BRANCH   8  17
ATOM      1  O   UNL     1       1.048   3.862  23.443  0.00  0.00    -0.274 OA
ATOM      5  N   UNL     1       1.803   1.666  23.286  0.00  0.00    -0.310 N 
ATOM     17  C   UNL     1       0.844   2.652  23.447  0.00  0.00    +0.231 C 
ATOM     35  H   UNL     1       1.531   0.688  23.320  0.00  0.00    +0.149 HD
BRANCH   5  23
ATOM     23  C   UNL     1       3.206   1.952  23.086  0.00  0.00    +0.143 C 
BRANCH  23  25
ATOM     25  C   UNL     1       4.069   0.756  23.366  0.00  0.00    +0.011 A 
ATOM     26  C   UNL     1       3.548  -0.534  23.281  0.00  0.00    +0.125 A 
ATOM     27  C   UNL     1       5.406   0.948  23.715  0.00  0.00    +0.009 A 
ATOM     29  C   UNL     1       4.363  -1.635  23.544  0.00  0.00    +0.046 A 
ATOM     30  C   UNL     1       6.222  -0.153  23.978  0.00  0.00    +0.001 A 
ATOM     31  C   UNL     1       5.701  -1.444  23.894  0.00  0.00    +0.004 A 
BRANCH  26   2
ATOM      2  O   UNL     1       2.244  -0.739  22.943  0.00  0.00    -0.495 OA
ATOM     33  C   UNL     1       1.912  -0.650  21.558  0.00  0.00    +0.277 C 
ENDBRANCH  26   2
ENDBRANCH  23  25
ENDBRANCH   5  23
ENDBRANCH   8  17
BRANCH   6  10
ATOM     10  C   UNL     1      -0.764  -1.634  23.907  0.00  0.00    +0.026 C 
BRANCH  10  13
ATOM     13  C   UNL     1      -0.207  -1.672  25.333  0.00  0.00    -0.015 C 
ATOM     20  C   UNL     1       0.385  -3.058  25.606  0.00  0.00    +0.007 C 
ATOM     21  C   UNL     1      -1.265  -1.345  26.388  0.00  0.00    +0.007 C 
ENDBRANCH  10  13
ENDBRANCH   6  10
BRANCH   4  22
ATOM     22  C   UNL     1      -6.088   2.944  26.023  0.00  0.00    +0.210 C 
BRANCH  22  24
ATOM     24  C   UNL     1      -6.671   2.008  26.994  0.00  0.00    -0.081 C 
ATOM     28  C   UNL     1      -7.145   1.241  27.786  0.00  0.00    -0.104 C 
ATOM     32  C   UNL     1      -7.725   0.309  28.753  0.00  0.00    +0.106 C 
ENDBRANCH  22  24
ENDBRANCH   4  22
TORSDOF 8
ENDMDL
MODEL 5
REMARK VINA RESULT:       8.7      1.935      3.062
REMARK  Name = 51138078
REMARK  12 active torsions:
REMARK  status: ('A' for Active; 'I' for Inactive)
REMARK    1  A    between atoms: O_2  and  C_26
REMARK    2  A    between atoms: O_2  and  C_33
REMARK    3  A    between atoms: N_4  and  C_22
REMARK    4  A    between atoms: N_5  and  C_23
REMARK    5  A    between atoms: C_6  and  C_10
REMARK    6  A    between atoms: C_8  and  C_17
REMARK    7  A    between atoms: C_10  and  C_13
REMARK    8  A    between atoms: C_13  and  C_20
REMARK    9  A    between atoms: C_13  and  C_21
REMARK   10  A    between atoms: C_22  and  C_24
REMARK   11  A    between atoms: C_23  and  C_25
REMARK   12  A    between atoms: C_28  and  C_32
REMARK                            x       y       z     vdW  Elec       q    Type
REMARK                         _______ _______ _______ _____ _____    ______ ____
ROOT
ATOM      3  N   UNL     1      -0.339   0.758  24.090  0.00  0.00    -0.299 NA
ATOM      4  N   UNL     1      -4.718   2.714  25.672  0.00  0.00    -0.335 N 
ATOM      6  C   UNL     1      -1.382  -0.158  23.607  0.00  0.00    +0.085 C 
ATOM      7  C   UNL     1      -2.801   0.116  24.114  0.00  0.00    -0.021 A 
ATOM      8  C   UNL     1      -0.500   2.141  23.664  0.00  0.00    +0.145 C 
ATOM      9  C   UNL     1      -3.238   1.334  24.711  0.00  0.00    +0.008 A 
ATOM     11  C   UNL     1      -1.185   2.982  24.739  0.00  0.00    +0.065 C 
ATOM     12  C   UNL     1      -2.600   2.590  25.006  0.00  0.00    -0.020 A 
ATOM     14  C   UNL     1      -4.569   1.462  25.122  0.00  0.00    +0.050 A 
ATOM     15  C   UNL     1      -3.543   3.401  25.603  0.00  0.00    +0.091 A 
ATOM     16  C   UNL     1      -3.795  -0.875  23.917  0.00  0.00    +0.006 A 
ATOM     18  C   UNL     1      -5.524   0.456  24.961  0.00  0.00    +0.026 A 
ATOM     19  C   UNL     1      -5.115  -0.716  24.337  0.00  0.00    +0.002 A 
ATOM     34  H   UNL     1      -0.238   0.692  25.101  0.00  0.00    +0.123 HD
ENDROOT
BRANCH   8  17
ATOM      1  O   UNL     1       1.147   3.852  23.436  0.00  0.00    -0.274 OA
ATOM      5  N   UNL     1       1.804   1.625  23.270  0.00  0.00    -0.310 N 
ATOM     17  C   UNL     1       0.893   2.651  23.454  0.00  0.00    +0.231 C 
ATOM     35  H   UNL     1       1.493   0.660  23.318  0.00  0.00    +0.149 HD
BRANCH   5  23
ATOM     23  C   UNL     1       3.211   1.852  23.027  0.00  0.00    +0.143 C 
BRANCH  23  25
ATOM     25  C   UNL     1       4.039   0.641  23.347  0.00  0.00    +0.011 A 
ATOM     26  C   UNL     1       3.485  -0.637  23.285  0.00  0.00    +0.125 A 
ATOM     27  C   UNL     1       5.375   0.806  23.710  0.00  0.00    +0.009 A 
ATOM     29  C   UNL     1       4.268  -1.752  23.586  0.00  0.00    +0.046 A 
ATOM     30  C   UNL     1       6.159  -0.308  24.010  0.00  0.00    +0.001 A 
ATOM     31  C   UNL     1       5.606  -1.587  23.949  0.00  0.00    +0.004 A 
BRANCH  26   2
ATOM      2  O   UNL     1       2.181  -0.816  22.934  0.00  0.00    -0.495 OA
ATOM     33  C   UNL     1       1.859  -0.685  21.550  0.00  0.00    +0.277 C 
ENDBRANCH  26   2
ENDBRANCH  23  25
ENDBRANCH   5  23
ENDBRANCH   8  17
BRANCH   6  10
ATOM     10  C   UNL     1      -0.878  -1.560  23.993  0.00  0.00    +0.026 C 
BRANCH  10  13
ATOM     13  C   UNL     1      -0.249  -1.605  25.389  0.00  0.00    -0.015 C 
ATOM     20  C   UNL     1       0.282  -3.016  25.658  0.00  0.00    +0.007 C 
ATOM     21  C   UNL     1      -1.231  -1.205  26.492  0.00  0.00    +0.007 C 
ENDBRANCH  10  13
ENDBRANCH   6  10
BRANCH   4  22
ATOM     22  C   UNL     1      -5.941   3.249  26.232  0.00  0.00    +0.210 C 
BRANCH  22  24
ATOM     24  C   UNL     1      -6.300   4.542  25.634  0.00  0.00    -0.081 C 
ATOM     28  C   UNL     1      -6.590   5.598  25.144  0.00  0.00    -0.104 C 
ATOM     32  C   UNL     1      -6.946   6.886  24.548  0.00  0.00    +0.106 C 
ENDBRANCH  22  24
ENDBRANCH   4  22
TORSDOF 8
ENDMDL
MODEL 6
REMARK VINA RESULT:       9.4      1.755      4.619
REMARK  Name = 51138078
REMARK  12 active torsions:
REMARK  status: ('A' for Active; 'I' for Inactive)
REMARK    1  A    between atoms: O_2  and  C_26
REMARK    2  A    between atoms: O_2  and  C_33
REMARK    3  A    between atoms: N_4  and  C_22
REMARK    4  A    between atoms: N_5  and  C_23
REMARK    5  A    between atoms: C_6  and  C_10
REMARK    6  A    between atoms: C_8  and  C_17
REMARK    7  A    between atoms: C_10  and  C_13
REMARK    8  A    between atoms: C_13  and  C_20
REMARK    9  A    between atoms: C_13  and  C_21
REMARK   10  A    between atoms: C_22  and  C_24
REMARK   11  A    between atoms: C_23  and  C_25
REMARK   12  A    between atoms: C_28  and  C_32
REMARK                            x       y       z     vdW  Elec       q    Type
REMARK                         _______ _______ _______ _____ _____    ______ ____
ROOT
ATOM      3  N   UNL     1      -0.119   1.670  24.195  0.00  0.00    -0.299 NA
ATOM      4  N   UNL     1      -5.065   1.633  25.217  0.00  0.00    -0.335 N 
ATOM      6  C   UNL     1      -0.323   2.709  25.215  0.00  0.00    +0.085 C 
ATOM      7  C   UNL     1      -1.780   3.025  25.566  0.00  0.00    -0.021 A 
ATOM      8  C   UNL     1      -0.583   0.344  24.576  0.00  0.00    +0.145 C 
ATOM      9  C   UNL     1      -2.897   2.195  25.258  0.00  0.00    +0.008 A 
ATOM     11  C   UNL     1      -1.979   0.059  24.024  0.00  0.00    +0.065 C 
ATOM     12  C   UNL     1      -3.048   0.923  24.604  0.00  0.00    -0.020 A 
ATOM     14  C   UNL     1      -4.180   2.594  25.648  0.00  0.00    +0.050 A 
ATOM     15  C   UNL     1      -4.395   0.623  24.593  0.00  0.00    +0.091 A 
ATOM     16  C   UNL     1      -2.058   4.190  26.325  0.00  0.00    +0.006 A 
ATOM     18  C   UNL     1      -4.439   3.770  26.355  0.00  0.00    +0.026 A 
ATOM     19  C   UNL     1      -3.348   4.559  26.700  0.00  0.00    +0.002 A 
ATOM     34  H   UNL     1      -0.515   1.957  23.301  0.00  0.00    +0.123 HD
ENDROOT
BRANCH   8  17
ATOM      1  O   UNL     1       0.474  -1.778  24.314  0.00  0.00    -0.274 OA
ATOM      5  N   UNL     1       1.171   0.001  22.985  0.00  0.00    -0.310 N 
ATOM     17  C   UNL     1       0.394  -0.607  23.956  0.00  0.00    +0.231 C 
ATOM     35  H   UNL     1       1.015   0.977  22.752  0.00  0.00    +0.149 HD
BRANCH   5  23
ATOM     23  C   UNL     1       2.205  -0.694  22.251  0.00  0.00    +0.143 C 
BRANCH  23  25
ATOM     25  C   UNL     1       3.532  -0.627  22.950  0.00  0.00    +0.011 A 
ATOM     26  C   UNL     1       4.319   0.521  22.878  0.00  0.00    +0.125 A 
ATOM     27  C   UNL     1       3.974  -1.732  23.679  0.00  0.00    +0.009 A 
ATOM     29  C   UNL     1       5.550   0.566  23.533  0.00  0.00    +0.046 A 
ATOM     30  C   UNL     1       5.204  -1.687  24.335  0.00  0.00    +0.001 A 
ATOM     31  C   UNL     1       5.993  -0.538  24.261  0.00  0.00    +0.004 A 
BRANCH  26   2
ATOM      2  O   UNL     1       3.903   1.608  22.169  0.00  0.00    -0.495 OA
ATOM     33  C   UNL     1       2.983   2.488  22.814  0.00  0.00    +0.277 C 
ENDBRANCH  26   2
ENDBRANCH  23  25
ENDBRANCH   5  23
ENDBRANCH   8  17
BRANCH   6  10
ATOM     10  C   UNL     1       0.434   3.936  24.677  0.00  0.00    +0.026 C 
BRANCH  10  13
ATOM     13  C   UNL     1      -0.416   4.799  23.739  0.00  0.00    -0.015 C 
ATOM     20  C   UNL     1       0.449   5.274  22.569  0.00  0.00    +0.007 C 
ATOM     21  C   UNL     1      -1.033   6.007  24.448  0.00  0.00    +0.007 C 
ENDBRANCH  10  13
ENDBRANCH   6  10
BRANCH   4  22
ATOM     22  C   UNL     1      -6.500   1.663  25.405  0.00  0.00    +0.210 C 
BRANCH  22  24
ATOM     24  C   UNL     1      -6.892   1.160  26.729  0.00  0.00    -0.081 C 
ATOM     28  C   UNL     1      -7.208   0.748  27.811  0.00  0.00    -0.104 C 
ATOM     32  C   UNL     1      -7.597   0.247  29.129  0.00  0.00    +0.106 C 
ENDBRANCH  22  24
ENDBRANCH   4  22
TORSDOF 8
ENDMDL
MODEL 7
REMARK VINA RESULT:       9.4      1.475      5.481
REMARK  Name = 51138078
REMARK  12 active torsions:
REMARK  status: ('A' for Active; 'I' for Inactive)
REMARK    1  A    between atoms: O_2  and  C_26
REMARK    2  A    between atoms: O_2  and  C_33
REMARK    3  A    between atoms: N_4  and  C_22
REMARK    4  A    between atoms: N_5  and  C_23
REMARK    5  A    between atoms: C_6  and  C_10
REMARK    6  A    between atoms: C_8  and  C_17
REMARK    7  A    between atoms: C_10  and  C_13
REMARK    8  A    between atoms: C_13  and  C_20
REMARK    9  A    between atoms: C_13  and  C_21
REMARK   10  A    between atoms: C_22  and  C_24
REMARK   11  A    between atoms: C_23  and  C_25
REMARK   12  A    between atoms: C_28  and  C_32
REMARK                            x       y       z     vdW  Elec       q    Type
REMARK                         _______ _______ _______ _____ _____    ______ ____
ROOT
ATOM      3  N   UNL     1      -1.245   3.263  24.864  0.00  0.00    -0.299 NA
ATOM      4  N   UNL     1      -4.386  -0.646  24.257  0.00  0.00    -0.335 N 
ATOM      6  C   UNL     1      -2.420   3.563  25.694  0.00  0.00    +0.085 C 
ATOM      7  C   UNL     1      -3.609   2.610  25.541  0.00  0.00    -0.021 A 
ATOM      8  C   UNL     1      -0.596   1.995  25.165  0.00  0.00    +0.145 C 
ATOM      9  C   UNL     1      -3.551   1.315  24.948  0.00  0.00    +0.008 A 
ATOM     11  C   UNL     1      -1.059   0.890  24.217  0.00  0.00    +0.065 C 
ATOM     12  C   UNL     1      -2.498   0.527  24.366  0.00  0.00    -0.020 A 
ATOM     14  C   UNL     1      -4.711   0.535  24.882  0.00  0.00    +0.050 A 
ATOM     15  C   UNL     1      -3.058  -0.663  23.948  0.00  0.00    +0.091 A 
ATOM     16  C   UNL     1      -4.858   2.990  26.092  0.00  0.00    +0.006 A 
ATOM     18  C   UNL     1      -5.945   0.947  25.390  0.00  0.00    +0.026 A 
ATOM     19  C   UNL     1      -5.996   2.189  26.010  0.00  0.00    +0.002 A 
ATOM     34  H   UNL     1      -1.472   3.335  23.873  0.00  0.00    +0.123 HD
ENDROOT
BRANCH   8  17
ATOM      1  O   UNL     1       1.580   2.705  25.838  0.00  0.00    -0.274 OA
ATOM      5  N   UNL     1       1.272   1.913  23.671  0.00  0.00    -0.310 N 
ATOM     17  C   UNL     1       0.867   2.243  24.953  0.00  0.00    +0.231 C 
ATOM     35  H   UNL     1       0.603   1.521  23.015  0.00  0.00    +0.149 HD
BRANCH   5  23
ATOM     23  C   UNL     1       2.631   2.078  23.205  0.00  0.00    +0.143 C 
BRANCH  23  25
ATOM     25  C   UNL     1       3.447   0.833  23.401  0.00  0.00    +0.011 A 
ATOM     26  C   UNL     1       2.879  -0.427  23.220  0.00  0.00    +0.125 A 
ATOM     27  C   UNL     1       4.788   0.949  23.767  0.00  0.00    +0.009 A 
ATOM     29  C   UNL     1       3.652  -1.574  23.406  0.00  0.00    +0.046 A 
ATOM     30  C   UNL     1       5.561  -0.198  23.953  0.00  0.00    +0.001 A 
ATOM     31  C   UNL     1       4.993  -1.459  23.773  0.00  0.00    +0.004 A 
BRANCH  26   2
ATOM      2  O   UNL     1       1.571  -0.558  22.864  0.00  0.00    -0.495 OA
ATOM     33  C   UNL     1       1.282  -0.614  21.468  0.00  0.00    +0.277 C 
ENDBRANCH  26   2
ENDBRANCH  23  25
ENDBRANCH   5  23
ENDBRANCH   8  17
BRANCH   6  10
ATOM     10  C   UNL     1      -2.781   5.018  25.344  0.00  0.00    +0.026 C 
BRANCH  10  13
ATOM     13  C   UNL     1      -1.933   5.587  24.203  0.00  0.00    -0.015 C 
ATOM     20  C   UNL     1      -0.516   5.861  24.715  0.00  0.00    +0.007 C 
ATOM     21  C   UNL     1      -2.525   6.868  23.611  0.00  0.00    +0.007 C 
ENDBRANCH  10  13
ENDBRANCH   6  10
BRANCH   4  22
ATOM     22  C   UNL     1      -5.300  -1.732  23.976  0.00  0.00    +0.210 C 
BRANCH  22  24
ATOM     24  C   UNL     1      -4.596  -2.945  23.542  0.00  0.00    -0.081 C 
ATOM     28  C   UNL     1      -4.018  -3.937  23.189  0.00  0.00    -0.104 C 
ATOM     32  C   UNL     1      -3.316  -5.145  22.758  0.00  0.00    +0.106 C 
ENDBRANCH  22  24
ENDBRANCH   4  22
TORSDOF 8
ENDMDL
MODEL 8
REMARK VINA RESULT:       9.5      1.843      2.465
REMARK  Name = 51138078
REMARK  12 active torsions:
REMARK  status: ('A' for Active; 'I' for Inactive)
REMARK    1  A    between atoms: O_2  and  C_26
REMARK    2  A    between atoms: O_2  and  C_33
REMARK    3  A    between atoms: N_4  and  C_22
REMARK    4  A    between atoms: N_5  and  C_23
REMARK    5  A    between atoms: C_6  and  C_10
REMARK    6  A    between atoms: C_8  and  C_17
REMARK    7  A    between atoms: C_10  and  C_13
REMARK    8  A    between atoms: C_13  and  C_20
REMARK    9  A    between atoms: C_13  and  C_21
REMARK   10  A    between atoms: C_22  and  C_24
REMARK   11  A    between atoms: C_23  and  C_25
REMARK   12  A    between atoms: C_28  and  C_32
REMARK                            x       y       z     vdW  Elec       q    Type
REMARK                         _______ _______ _______ _____ _____    ______ ____
ROOT
ATOM      3  N   UNL     1      -0.609  -0.924  23.281  0.00  0.00    -0.299 NA
ATOM      4  N   UNL     1      -2.316   3.336  25.390  0.00  0.00    -0.335 N 
ATOM      6  C   UNL     1      -2.072  -1.060  23.326  0.00  0.00    +0.085 C 
ATOM      7  C   UNL     1      -2.822   0.031  24.095  0.00  0.00    -0.021 A 
ATOM      8  C   UNL     1      -0.131   0.258  22.578  0.00  0.00    +0.145 C 
ATOM      9  C   UNL     1      -2.280   1.299  24.459  0.00  0.00    +0.008 A 
ATOM     11  C   UNL     1       0.187   1.396  23.547  0.00  0.00    +0.065 C 
ATOM     12  C   UNL     1      -1.008   1.939  24.256  0.00  0.00    -0.020 A 
ATOM     14  C   UNL     1      -3.078   2.216  25.152  0.00  0.00    +0.050 A 
ATOM     15  C   UNL     1      -1.073   3.182  24.852  0.00  0.00    +0.091 A 
ATOM     16  C   UNL     1      -4.187  -0.179  24.414  0.00  0.00    +0.006 A 
ATOM     18  C   UNL     1      -4.408   1.971  25.498  0.00  0.00    +0.026 A 
ATOM     19  C   UNL     1      -4.955   0.756  25.105  0.00  0.00    +0.002 A 
ATOM     34  H   UNL     1      -0.209  -0.985  24.216  0.00  0.00    +0.123 HD
ENDROOT
BRANCH   8  17
ATOM      1  O   UNL     1       1.156  -1.118  21.113  0.00  0.00    -0.274 OA
ATOM      5  N   UNL     1       2.221   0.591  22.280  0.00  0.00    -0.310 N 
ATOM     17  C   UNL     1       1.132  -0.174  21.898  0.00  0.00    +0.231 C 
ATOM     35  H   UNL     1       2.092   1.363  22.928  0.00  0.00    +0.149 HD
BRANCH   5  23
ATOM     23  C   UNL     1       3.560   0.365  21.785  0.00  0.00    +0.143 C 
BRANCH  23  25
ATOM     25  C   UNL     1       4.550   0.190  22.901  0.00  0.00    +0.011 A 
ATOM     26  C   UNL     1       4.559  -0.973  23.669  0.00  0.00    +0.125 A 
ATOM     27  C   UNL     1       5.466   1.208  23.163  0.00  0.00    +0.009 A 
ATOM     29  C   UNL     1       5.485  -1.119  24.702  0.00  0.00    +0.046 A 
ATOM     30  C   UNL     1       6.393   1.062  24.196  0.00  0.00    +0.001 A 
ATOM     31  C   UNL     1       6.402  -0.101  24.966  0.00  0.00    +0.004 A 
BRANCH  26   2
ATOM      2  O   UNL     1       3.670  -1.977  23.427  0.00  0.00    -0.495 OA
ATOM     33  C   UNL     1       2.627  -2.164  24.382  0.00  0.00    +0.277 C 
ENDBRANCH  26   2
ENDBRANCH  23  25
ENDBRANCH   5  23
ENDBRANCH   8  17
BRANCH   6  10
ATOM     10  C   UNL     1      -2.313  -2.464  23.909  0.00  0.00    +0.026 C 
BRANCH  10  13
ATOM     13  C   UNL     1      -1.861  -2.592  25.368  0.00  0.00    -0.015 C 
ATOM     20  C   UNL     1      -3.042  -2.280  26.290  0.00  0.00    +0.007 C 
ATOM     21  C   UNL     1      -0.686  -1.672  25.704  0.00  0.00    +0.007 C 
ENDBRANCH  10  13
ENDBRANCH   6  10
BRANCH   4  22
ATOM     22  C   UNL     1      -2.757   4.523  26.091  0.00  0.00    +0.210 C 
BRANCH  22  24
ATOM     24  C   UNL     1      -4.163   4.839  25.806  0.00  0.00    -0.081 C 
ATOM     28  C   UNL     1      -5.312   5.101  25.575  0.00  0.00    -0.104 C 
ATOM     32  C   UNL     1      -6.711   5.417  25.292  0.00  0.00    +0.106 C 
ENDBRANCH  22  24
ENDBRANCH   4  22
TORSDOF 8
ENDMDL
MODEL 9
REMARK VINA RESULT:       9.9      2.380      8.275
REMARK  Name = 51138078
REMARK  12 active torsions:
REMARK  status: ('A' for Active; 'I' for Inactive)
REMARK    1  A    between atoms: O_2  and  C_26
REMARK    2  A    between atoms: O_2  and  C_33
REMARK    3  A    between atoms: N_4  and  C_22
REMARK    4  A    between atoms: N_5  and  C_23
REMARK    5  A    between atoms: C_6  and  C_10
REMARK    6  A    between atoms: C_8  and  C_17
REMARK    7  A    between atoms: C_10  and  C_13
REMARK    8  A    between atoms: C_13  and  C_20
REMARK    9  A    between atoms: C_13  and  C_21
REMARK   10  A    between atoms: C_22  and  C_24
REMARK   11  A    between atoms: C_23  and  C_25
REMARK   12  A    between atoms: C_28  and  C_32
REMARK                            x       y       z     vdW  Elec       q    Type
REMARK                         _______ _______ _______ _____ _____    ______ ____
ROOT
ATOM      3  N   UNL     1      -0.523   0.651  24.404  0.00  0.00    -0.299 NA
ATOM      4  N   UNL     1       3.931  -1.658  23.828  0.00  0.00    -0.335 N 
ATOM      6  C   UNL     1       0.257   1.509  23.502  0.00  0.00    +0.085 C 
ATOM      7  C   UNL     1       1.726   1.120  23.312  0.00  0.00    -0.021 A 
ATOM      8  C   UNL     1      -0.681  -0.724  23.950  0.00  0.00    +0.145 C 
ATOM      9  C   UNL     1       2.289  -0.147  23.644  0.00  0.00    +0.008 A 
ATOM     11  C   UNL     1       0.349  -1.649  24.597  0.00  0.00    +0.065 C 
ATOM     12  C   UNL     1       1.757  -1.365  24.194  0.00  0.00    -0.020 A 
ATOM     14  C   UNL     1       3.648  -0.380  23.407  0.00  0.00    +0.050 A 
ATOM     15  C   UNL     1       2.801  -2.260  24.298  0.00  0.00    +0.091 A 
ATOM     16  C   UNL     1       2.598   2.046  22.686  0.00  0.00    +0.006 A 
ATOM     18  C   UNL     1       4.502   0.563  22.833  0.00  0.00    +0.026 A 
ATOM     19  C   UNL     1       3.948   1.782  22.463  0.00  0.00    +0.002 A 
ATOM     34  H   UNL     1      -0.151   0.686  25.352  0.00  0.00    +0.123 HD
ENDROOT
BRANCH   8  17
ATOM      1  O   UNL     1      -2.317  -2.286  24.706  0.00  0.00    -0.274 OA
ATOM      5  N   UNL     1      -2.942  -0.068  24.379  0.00  0.00    -0.310 N 
ATOM     17  C   UNL     1      -2.053  -1.129  24.394  0.00  0.00    +0.231 C 
ATOM     35  H   UNL     1      -2.618   0.858  24.117  0.00  0.00    +0.149 HD
BRANCH   5  23
ATOM     23  C   UNL     1      -4.335  -0.200  24.743  0.00  0.00    +0.143 C 
BRANCH  23  25
ATOM     25  C   UNL     1      -4.945   1.121  25.118  0.00  0.00    +0.011 A 
ATOM     26  C   UNL     1      -4.440   2.312  24.599  0.00  0.00    +0.125 A 
ATOM     27  C   UNL     1      -6.029   1.145  25.995  0.00  0.00    +0.009 A 
ATOM     29  C   UNL     1      -5.017   3.529  24.958  0.00  0.00    +0.046 A 
ATOM     30  C   UNL     1      -6.607   2.363  26.354  0.00  0.00    +0.001 A 
ATOM     31  C   UNL     1      -6.102   3.555  25.836  0.00  0.00    +0.004 A 
BRANCH  26   2
ATOM      2  O   UNL     1      -3.381   2.305  23.741  0.00  0.00    -0.495 OA
ATOM     33  C   UNL     1      -3.519   3.054  22.535  0.00  0.00    +0.277 C 
ENDBRANCH  26   2
ENDBRANCH  23  25
ENDBRANCH   5  23
ENDBRANCH   8  17
BRANCH   6  10
ATOM     10  C   UNL     1       0.092   2.928  24.077  0.00  0.00    +0.026 C 
BRANCH  10  13
ATOM     13  C   UNL     1      -0.711   2.955  25.380  0.00  0.00    -0.015 C 
ATOM     20  C   UNL     1      -1.382   4.323  25.531  0.00  0.00    +0.007 C 
ATOM     21  C   UNL     1       0.151   2.664  26.610  0.00  0.00    +0.007 C 
ENDBRANCH  10  13
ENDBRANCH   6  10
BRANCH   4  22
ATOM     22  C   UNL     1       5.229  -2.297  23.772  0.00  0.00    +0.210 C 
BRANCH  22  24
ATOM     24  C   UNL     1       6.317  -1.319  23.635  0.00  0.00    -0.081 C 
ATOM     28  C   UNL     1       7.207  -0.521  23.525  0.00  0.00    -0.104 C 
ATOM     32  C   UNL     1       8.291   0.452  23.389  0.00  0.00    +0.106 C 
ENDBRANCH  22  24
ENDBRANCH   4  22
TORSDOF 8
ENDMDL
