MODEL 1
REMARK VINA RESULT:      -3.4      0.000      0.000
REMARK  Name = 75367161
REMARK  5 active torsions:
REMARK  status: ('A' for Active; 'I' for Inactive)
REMARK    1  A    between atoms: N_4  and  C_10
REMARK    2  A    between atoms: C_7  and  C_12
REMARK    3  A    between atoms: C_10  and  C_13
REMARK    4  A    between atoms: C_14  and  C_18
REMARK    5  A    between atoms: C_21  and  C_24
REMARK                            x       y       z     vdW  Elec       q    Type
REMARK                         _______ _______ _______ _____ _____    ______ ____
ROOT
ATOM      3  O   UNL     1      -1.366   4.982  25.368  0.00  0.00    -0.377 OA
ATOM      4  N   UNL     1      -2.673   2.506  24.773  0.00  0.00    -0.285 NA
ATOM      7  C   UNL     1      -1.423   2.907  24.078  0.00  0.00    +0.149 C 
ATOM      8  C   UNL     1      -3.406   3.698  25.234  0.00  0.00    +0.113 C 
ATOM      9  C   UNL     1      -0.596   3.846  24.978  0.00  0.00    +0.186 C 
ATOM     11  C   UNL     1      -2.516   4.574  26.106  0.00  0.00    +0.175 C 
ENDROOT
BRANCH   7  12
ATOM      5  N   UNL     1       0.805   1.757  23.821  0.00  0.00    -0.340 N 
ATOM      6  N   UNL     1      -0.959   0.601  23.123  0.00  0.00    -0.238 NA
ATOM     12  C   UNL     1      -0.553   1.730  23.661  0.00  0.00    +0.127 A 
ATOM     14  C   UNL     1       1.296   0.569  23.356  0.00  0.00    +0.069 A 
ATOM     15  C   UNL     1       0.189  -0.127  22.931  0.00  0.00    +0.139 A 
ATOM     28  H   UNL     1       1.341   2.519  24.214  0.00  0.00    +0.167 HD
BRANCH  14  18
ATOM      1  F   UNL     1       3.276   2.425  22.642  0.00  0.00    -0.205 F 
ATOM      2  F   UNL     1       6.707  -0.745  23.380  0.00  0.00    -0.205 F 
ATOM     18  C   UNL     1       2.695   0.234  23.362  0.00  0.00    +0.035 A 
ATOM     22  C   UNL     1       3.648   1.186  22.998  0.00  0.00    +0.135 A 
ATOM     23  C   UNL     1       3.098  -1.049  23.732  0.00  0.00    +0.015 A 
ATOM     25  C   UNL     1       5.003   0.856  23.004  0.00  0.00    +0.077 A 
ATOM     26  C   UNL     1       4.454  -1.380  23.738  0.00  0.00    +0.039 A 
ATOM     27  C   UNL     1       5.405  -0.428  23.374  0.00  0.00    +0.126 A 
ENDBRANCH  14  18
ENDBRANCH   7  12
BRANCH   4  10
ATOM     10  C   UNL     1      -3.551   1.705  23.911  0.00  0.00    +0.120 C 
BRANCH  10  13
ATOM     13  C   UNL     1      -3.546   0.251  24.302  0.00  0.00    -0.033 A 
ATOM     16  C   UNL     1      -3.105  -0.128  25.571  0.00  0.00    +0.005 A 
ATOM     17  C   UNL     1      -3.982  -0.716  23.398  0.00  0.00    +0.005 A 
ATOM     19  C   UNL     1      -3.102  -1.475  25.934  0.00  0.00    +0.003 A 
ATOM     20  C   UNL     1      -3.979  -2.063  23.761  0.00  0.00    +0.003 A 
ATOM     21  C   UNL     1      -3.539  -2.442  25.028  0.00  0.00    -0.050 A 
ATOM     24  C   UNL     1      -3.533  -3.882  25.416  0.00  0.00    +0.044 C 
ENDBRANCH  10  13
ENDBRANCH   4  10
TORSDOF 4
ENDMDL
MODEL 2
REMARK VINA RESULT:      -2.1      1.848      2.783
REMARK  Name = 75367161
REMARK  5 active torsions:
REMARK  status: ('A' for Active; 'I' for Inactive)
REMARK    1  A    between atoms: N_4  and  C_10
REMARK    2  A    between atoms: C_7  and  C_12
REMARK    3  A    between atoms: C_10  and  C_13
REMARK    4  A    between atoms: C_14  and  C_18
REMARK    5  A    between atoms: C_21  and  C_24
REMARK                            x       y       z     vdW  Elec       q    Type
REMARK                         _______ _______ _______ _____ _____    ______ ____
ROOT
ATOM      3  O   UNL     1      -5.351   4.815  25.961  0.00  0.00    -0.377 OA
ATOM      4  N   UNL     1      -4.510   2.275  24.943  0.00  0.00    -0.285 NA
ATOM      7  C   UNL     1      -3.587   3.439  24.976  0.00  0.00    +0.149 C 
ATOM      8  C   UNL     1      -5.908   2.735  24.872  0.00  0.00    +0.113 C 
ATOM      9  C   UNL     1      -3.993   4.403  26.108  0.00  0.00    +0.186 C 
ATOM     11  C   UNL     1      -6.222   3.688  26.017  0.00  0.00    +0.175 C 
ENDROOT
BRANCH   7  12
ATOM      5  N   UNL     1      -1.456   2.340  24.199  0.00  0.00    -0.340 N 
ATOM      6  N   UNL     1      -1.358   3.332  26.185  0.00  0.00    -0.238 NA
ATOM     12  C   UNL     1      -2.126   3.053  25.155  0.00  0.00    +0.127 A 
ATOM     14  C   UNL     1      -0.179   2.153  24.649  0.00  0.00    +0.069 A 
ATOM     15  C   UNL     1      -0.143   2.774  25.875  0.00  0.00    +0.139 A 
ATOM     28  H   UNL     1      -1.840   2.016  23.322  0.00  0.00    +0.167 HD
BRANCH  14  18
ATOM      1  F   UNL     1      -0.608  -0.444  23.677  0.00  0.00    -0.205 F 
ATOM      2  F   UNL     1       3.721  -0.597  21.778  0.00  0.00    -0.205 F 
ATOM     18  C   UNL     1       0.825   1.439  23.905  0.00  0.00    +0.035 A 
ATOM     22  C   UNL     1       0.572   0.149  23.442  0.00  0.00    +0.135 A 
ATOM     23  C   UNL     1       2.057   2.043  23.651  0.00  0.00    +0.015 A 
ATOM     25  C   UNL     1       1.550  -0.540  22.724  0.00  0.00    +0.077 A 
ATOM     26  C   UNL     1       3.036   1.354  22.932  0.00  0.00    +0.039 A 
ATOM     27  C   UNL     1       2.781   0.063  22.469  0.00  0.00    +0.126 A 
ENDBRANCH  14  18
ENDBRANCH   7  12
BRANCH   4  10
ATOM     10  C   UNL     1      -4.237   1.387  23.807  0.00  0.00    +0.120 C 
BRANCH  10  13
ATOM     13  C   UNL     1      -3.954  -0.023  24.254  0.00  0.00    -0.033 A 
ATOM     16  C   UNL     1      -3.435  -0.260  25.527  0.00  0.00    +0.005 A 
ATOM     17  C   UNL     1      -4.212  -1.092  23.396  0.00  0.00    +0.005 A 
ATOM     19  C   UNL     1      -3.174  -1.566  25.942  0.00  0.00    +0.003 A 
ATOM     20  C   UNL     1      -3.952  -2.398  23.811  0.00  0.00    +0.003 A 
ATOM     21  C   UNL     1      -3.433  -2.635  25.083  0.00  0.00    -0.050 A 
ATOM     24  C   UNL     1      -3.152  -4.031  25.526  0.00  0.00    +0.044 C 
ENDBRANCH  10  13
ENDBRANCH   4  10
TORSDOF 4
ENDMDL
MODEL 3
REMARK VINA RESULT:      -1.7      3.215      6.520
REMARK  Name = 75367161
REMARK  5 active torsions:
REMARK  status: ('A' for Active; 'I' for Inactive)
REMARK    1  A    between atoms: N_4  and  C_10
REMARK    2  A    between atoms: C_7  and  C_12
REMARK    3  A    between atoms: C_10  and  C_13
REMARK    4  A    between atoms: C_14  and  C_18
REMARK    5  A    between atoms: C_21  and  C_24
REMARK                            x       y       z     vdW  Elec       q    Type
REMARK                         _______ _______ _______ _____ _____    ______ ____
ROOT
ATOM      3  O   UNL     1       2.969   0.711  22.344  0.00  0.00    -0.377 OA
ATOM      4  N   UNL     1       0.496  -0.285  23.387  0.00  0.00    -0.285 NA
ATOM      7  C   UNL     1       1.284   0.743  24.114  0.00  0.00    +0.149 C 
ATOM      8  C   UNL     1       1.382  -1.097  22.534  0.00  0.00    +0.113 C 
ATOM      9  C   UNL     1       2.128   1.564  23.119  0.00  0.00    +0.186 C 
ATOM     11  C   UNL     1       2.184  -0.211  21.591  0.00  0.00    +0.175 C 
ENDROOT
BRANCH   7  12
ATOM      5  N   UNL     1      -0.861   1.980  24.588  0.00  0.00    -0.340 N 
ATOM      6  N   UNL     1       0.791   2.333  26.030  0.00  0.00    -0.238 NA
ATOM     12  C   UNL     1       0.430   1.695  24.940  0.00  0.00    +0.127 A 
ATOM     14  C   UNL     1      -1.354   2.856  25.514  0.00  0.00    +0.069 A 
ATOM     15  C   UNL     1      -0.316   3.058  26.394  0.00  0.00    +0.139 A 
ATOM     28  H   UNL     1      -1.354   1.606  23.788  0.00  0.00    +0.167 HD
BRANCH  14  18
ATOM      1  F   UNL     1      -2.772   3.127  23.108  0.00  0.00    -0.205 F 
ATOM      2  F   UNL     1      -6.528   4.907  25.364  0.00  0.00    -0.205 F 
ATOM     18  C   UNL     1      -2.691   3.384  25.471  0.00  0.00    +0.035 A 
ATOM     22  C   UNL     1      -3.360   3.504  24.253  0.00  0.00    +0.135 A 
ATOM     23  C   UNL     1      -3.318   3.778  26.653  0.00  0.00    +0.015 A 
ATOM     25  C   UNL     1      -4.657   4.019  24.216  0.00  0.00    +0.077 A 
ATOM     26  C   UNL     1      -4.615   4.293  26.617  0.00  0.00    +0.039 A 
ATOM     27  C   UNL     1      -5.283   4.413  25.399  0.00  0.00    +0.126 A 
ENDBRANCH  14  18
ENDBRANCH   7  12
BRANCH   4  10
ATOM     10  C   UNL     1      -0.234  -1.169  24.302  0.00  0.00    +0.120 C 
BRANCH  10  13
ATOM     13  C   UNL     1      -1.659  -0.723  24.495  0.00  0.00    -0.033 A 
ATOM     16  C   UNL     1      -2.378  -0.202  23.418  0.00  0.00    +0.005 A 
ATOM     17  C   UNL     1      -2.261  -0.830  25.748  0.00  0.00    +0.005 A 
ATOM     19  C   UNL     1      -3.699   0.211  23.597  0.00  0.00    +0.003 A 
ATOM     20  C   UNL     1      -3.581  -0.418  25.926  0.00  0.00    +0.003 A 
ATOM     21  C   UNL     1      -4.300   0.103  24.851  0.00  0.00    -0.050 A 
ATOM     24  C   UNL     1      -5.711   0.546  25.041  0.00  0.00    +0.044 C 
ENDBRANCH  10  13
ENDBRANCH   4  10
TORSDOF 4
ENDMDL
MODEL 4
REMARK VINA RESULT:      -1.6      2.192      3.310
REMARK  Name = 75367161
REMARK  5 active torsions:
REMARK  status: ('A' for Active; 'I' for Inactive)
REMARK    1  A    between atoms: N_4  and  C_10
REMARK    2  A    between atoms: C_7  and  C_12
REMARK    3  A    between atoms: C_10  and  C_13
REMARK    4  A    between atoms: C_14  and  C_18
REMARK    5  A    between atoms: C_21  and  C_24
REMARK                            x       y       z     vdW  Elec       q    Type
REMARK                         _______ _______ _______ _____ _____    ______ ____
ROOT
ATOM      3  O   UNL     1      -6.158   3.761  25.809  0.00  0.00    -0.377 OA
ATOM      4  N   UNL     1      -4.896   1.217  25.448  0.00  0.00    -0.285 NA
ATOM      7  C   UNL     1      -4.882   2.246  24.377  0.00  0.00    +0.149 C 
ATOM      8  C   UNL     1      -6.070   1.403  26.320  0.00  0.00    +0.113 C 
ATOM      9  C   UNL     1      -4.992   3.654  24.995  0.00  0.00    +0.186 C 
ATOM     11  C   UNL     1      -6.107   2.819  26.879  0.00  0.00    +0.175 C 
ENDROOT
BRANCH   7  12
ATOM      5  N   UNL     1      -2.506   1.550  23.903  0.00  0.00    -0.340 N 
ATOM      6  N   UNL     1      -3.506   2.713  22.296  0.00  0.00    -0.238 NA
ATOM     12  C   UNL     1      -3.644   2.189  23.493  0.00  0.00    +0.127 A 
ATOM     14  C   UNL     1      -1.584   1.675  22.902  0.00  0.00    +0.069 A 
ATOM     15  C   UNL     1      -2.224   2.396  21.921  0.00  0.00    +0.139 A 
ATOM     28  H   UNL     1      -2.378   1.074  24.785  0.00  0.00    +0.167 HD
BRANCH  14  18
ATOM      1  F   UNL     1       0.435   2.854  24.453  0.00  0.00    -0.205 F 
ATOM      2  F   UNL     1       3.550  -0.464  23.170  0.00  0.00    -0.205 F 
ATOM     18  C   UNL     1      -0.257   1.125  22.975  0.00  0.00    +0.035 A 
ATOM     22  C   UNL     1       0.718   1.743  23.757  0.00  0.00    +0.135 A 
ATOM     23  C   UNL     1       0.054  -0.031  22.258  0.00  0.00    +0.015 A 
ATOM     25  C   UNL     1       2.005   1.207  23.823  0.00  0.00    +0.077 A 
ATOM     26  C   UNL     1       1.341  -0.568  22.324  0.00  0.00    +0.039 A 
ATOM     27  C   UNL     1       2.315   0.051  23.106  0.00  0.00    +0.126 A 
ENDBRANCH  14  18
ENDBRANCH   7  12
BRANCH   4  10
ATOM     10  C   UNL     1      -4.913  -0.146  24.904  0.00  0.00    +0.120 C 
BRANCH  10  13
ATOM     13  C   UNL     1      -3.566  -0.811  25.018  0.00  0.00    -0.033 A 
ATOM     16  C   UNL     1      -3.261  -1.909  24.213  0.00  0.00    +0.005 A 
ATOM     17  C   UNL     1      -2.624  -0.330  25.926  0.00  0.00    +0.005 A 
ATOM     19  C   UNL     1      -2.014  -2.525  24.317  0.00  0.00    +0.003 A 
ATOM     20  C   UNL     1      -1.378  -0.945  26.031  0.00  0.00    +0.003 A 
ATOM     21  C   UNL     1      -1.072  -2.043  25.226  0.00  0.00    -0.050 A 
ATOM     24  C   UNL     1       0.260  -2.703  25.339  0.00  0.00    +0.044 C 
ENDBRANCH  10  13
ENDBRANCH   4  10
TORSDOF 4
ENDMDL
MODEL 5
REMARK VINA RESULT:      -1.2      3.494      6.615
REMARK  Name = 75367161
REMARK  5 active torsions:
REMARK  status: ('A' for Active; 'I' for Inactive)
REMARK    1  A    between atoms: N_4  and  C_10
REMARK    2  A    between atoms: C_7  and  C_12
REMARK    3  A    between atoms: C_10  and  C_13
REMARK    4  A    between atoms: C_14  and  C_18
REMARK    5  A    between atoms: C_21  and  C_24
REMARK                            x       y       z     vdW  Elec       q    Type
REMARK                         _______ _______ _______ _____ _____    ______ ____
ROOT
ATOM      3  O   UNL     1       2.965   0.741  22.367  0.00  0.00    -0.377 OA
ATOM      4  N   UNL     1       0.479  -0.251  23.383  0.00  0.00    -0.285 NA
ATOM      7  C   UNL     1       1.260   0.776  24.119  0.00  0.00    +0.149 C 
ATOM      8  C   UNL     1       1.373  -1.065  22.540  0.00  0.00    +0.113 C 
ATOM      9  C   UNL     1       2.117   1.595  23.133  0.00  0.00    +0.186 C 
ATOM     11  C   UNL     1       2.187  -0.180  21.606  0.00  0.00    +0.175 C 
ENDROOT
BRANCH   7  12
ATOM      5  N   UNL     1      -0.880   2.033  24.555  0.00  0.00    -0.340 N 
ATOM      6  N   UNL     1       0.741   2.351  26.040  0.00  0.00    -0.238 NA
ATOM     12  C   UNL     1       0.398   1.729  24.934  0.00  0.00    +0.127 A 
ATOM     14  C   UNL     1      -1.384   2.905  25.479  0.00  0.00    +0.069 A 
ATOM     15  C   UNL     1      -0.366   3.086  26.385  0.00  0.00    +0.139 A 
ATOM     28  H   UNL     1      -1.359   1.675  23.740  0.00  0.00    +0.167 HD
BRANCH  14  18
ATOM      1  F   UNL     1      -2.736   3.831  27.757  0.00  0.00    -0.205 F 
ATOM      2  F   UNL     1      -6.534   5.006  25.195  0.00  0.00    -0.205 F 
ATOM     18  C   UNL     1      -2.714   3.450  25.410  0.00  0.00    +0.035 A 
ATOM     22  C   UNL     1      -3.351   3.897  26.567  0.00  0.00    +0.135 A 
ATOM     23  C   UNL     1      -3.367   3.528  24.180  0.00  0.00    +0.015 A 
ATOM     25  C   UNL     1      -4.642   4.423  26.495  0.00  0.00    +0.077 A 
ATOM     26  C   UNL     1      -4.658   4.054  24.107  0.00  0.00    +0.039 A 
ATOM     27  C   UNL     1      -5.294   4.501  25.265  0.00  0.00    +0.126 A 
ENDBRANCH  14  18
ENDBRANCH   7  12
BRANCH   4  10
ATOM     10  C   UNL     1      -0.263  -1.135  24.290  0.00  0.00    +0.120 C 
BRANCH  10  13
ATOM     13  C   UNL     1      -1.687  -0.681  24.473  0.00  0.00    -0.033 A 
ATOM     16  C   UNL     1      -2.383  -0.119  23.402  0.00  0.00    +0.005 A 
ATOM     17  C   UNL     1      -2.312  -0.824  25.711  0.00  0.00    +0.005 A 
ATOM     19  C   UNL     1      -3.703   0.301  23.571  0.00  0.00    +0.003 A 
ATOM     20  C   UNL     1      -3.631  -0.406  25.880  0.00  0.00    +0.003 A 
ATOM     21  C   UNL     1      -4.327   0.157  24.810  0.00  0.00    -0.050 A 
ATOM     24  C   UNL     1      -5.737   0.607  24.991  0.00  0.00    +0.044 C 
ENDBRANCH  10  13
ENDBRANCH   4  10
TORSDOF 4
ENDMDL
MODEL 6
REMARK VINA RESULT:      -0.8      3.414      6.592
REMARK  Name = 75367161
REMARK  5 active torsions:
REMARK  status: ('A' for Active; 'I' for Inactive)
REMARK    1  A    between atoms: N_4  and  C_10
REMARK    2  A    between atoms: C_7  and  C_12
REMARK    3  A    between atoms: C_10  and  C_13
REMARK    4  A    between atoms: C_14  and  C_18
REMARK    5  A    between atoms: C_21  and  C_24
REMARK                            x       y       z     vdW  Elec       q    Type
REMARK                         _______ _______ _______ _____ _____    ______ ____
ROOT
ATOM      3  O   UNL     1       3.112   1.047  22.670  0.00  0.00    -0.377 OA
ATOM      4  N   UNL     1       0.898  -0.220  23.969  0.00  0.00    -0.285 NA
ATOM      7  C   UNL     1       1.265   1.189  24.265  0.00  0.00    +0.149 C 
ATOM      8  C   UNL     1       2.080  -0.968  23.505  0.00  0.00    +0.113 C 
ATOM      9  C   UNL     1       1.972   1.818  23.048  0.00  0.00    +0.186 C 
ATOM     11  C   UNL     1       2.722  -0.276  22.311  0.00  0.00    +0.175 C 
ENDROOT
BRANCH   7  12
ATOM      5  N   UNL     1      -1.206   1.602  24.541  0.00  0.00    -0.340 N 
ATOM      6  N   UNL     1       0.120   3.291  25.110  0.00  0.00    -0.238 NA
ATOM     12  C   UNL     1       0.078   2.060  24.651  0.00  0.00    +0.127 A 
ATOM     14  C   UNL     1      -2.035   2.606  24.957  0.00  0.00    +0.069 A 
ATOM     15  C   UNL     1      -1.194   3.637  25.304  0.00  0.00    +0.139 A 
ATOM     28  H   UNL     1      -1.484   0.687  24.212  0.00  0.00    +0.167 HD
BRANCH  14  18
ATOM      1  F   UNL     1      -3.657   4.436  26.334  0.00  0.00    -0.205 F 
ATOM      2  F   UNL     1      -7.583   2.135  25.048  0.00  0.00    -0.205 F 
ATOM     18  C   UNL     1      -3.469   2.489  24.982  0.00  0.00    +0.035 A 
ATOM     22  C   UNL     1      -4.238   3.419  25.681  0.00  0.00    +0.135 A 
ATOM     23  C   UNL     1      -4.090   1.438  24.306  0.00  0.00    +0.015 A 
ATOM     25  C   UNL     1      -5.628   3.300  25.704  0.00  0.00    +0.077 A 
ATOM     26  C   UNL     1      -5.480   1.318  24.328  0.00  0.00    +0.039 A 
ATOM     27  C   UNL     1      -6.248   2.249  25.027  0.00  0.00    +0.126 A 
ENDBRANCH  14  18
ENDBRANCH   7  12
BRANCH   4  10
ATOM     10  C   UNL     1       0.327  -0.898  25.138  0.00  0.00    +0.120 C 
BRANCH  10  13
ATOM     13  C   UNL     1      -1.035  -1.470  24.845  0.00  0.00    -0.033 A 
ATOM     16  C   UNL     1      -1.185  -2.440  23.854  0.00  0.00    +0.005 A 
ATOM     17  C   UNL     1      -2.146  -1.031  25.564  0.00  0.00    +0.005 A 
ATOM     19  C   UNL     1      -2.446  -2.971  23.583  0.00  0.00    +0.003 A 
ATOM     20  C   UNL     1      -3.407  -1.561  25.294  0.00  0.00    +0.003 A 
ATOM     21  C   UNL     1      -3.557  -2.531  24.303  0.00  0.00    -0.050 A 
ATOM     24  C   UNL     1      -4.906  -3.097  24.012  0.00  0.00    +0.044 C 
ENDBRANCH  10  13
ENDBRANCH   4  10
TORSDOF 4
ENDMDL
MODEL 7
REMARK VINA RESULT:      -0.7      3.458      7.103
REMARK  Name = 75367161
REMARK  5 active torsions:
REMARK  status: ('A' for Active; 'I' for Inactive)
REMARK    1  A    between atoms: N_4  and  C_10
REMARK    2  A    between atoms: C_7  and  C_12
REMARK    3  A    between atoms: C_10  and  C_13
REMARK    4  A    between atoms: C_14  and  C_18
REMARK    5  A    between atoms: C_21  and  C_24
REMARK                            x       y       z     vdW  Elec       q    Type
REMARK                         _______ _______ _______ _____ _____    ______ ____
ROOT
ATOM      3  O   UNL     1       3.824  -0.955  22.993  0.00  0.00    -0.377 OA
ATOM      4  N   UNL     1       2.045   1.213  23.568  0.00  0.00    -0.285 NA
ATOM      7  C   UNL     1       1.534  -0.114  23.140  0.00  0.00    +0.149 C 
ATOM      8  C   UNL     1       3.411   1.422  23.057  0.00  0.00    +0.113 C 
ATOM      9  C   UNL     1       2.533  -1.219  23.538  0.00  0.00    +0.186 C 
ATOM     11  C   UNL     1       4.328   0.284  23.485  0.00  0.00    +0.175 C 
ENDROOT
BRANCH   7  12
ATOM      5  N   UNL     1      -0.851   0.460  23.720  0.00  0.00    -0.340 N 
ATOM      6  N   UNL     1      -0.202  -1.597  24.251  0.00  0.00    -0.238 NA
ATOM     12  C   UNL     1       0.166  -0.455  23.714  0.00  0.00    +0.127 A 
ATOM     14  C   UNL     1      -1.936  -0.138  24.296  0.00  0.00    +0.069 A 
ATOM     15  C   UNL     1      -1.511  -1.407  24.615  0.00  0.00    +0.139 A 
ATOM     28  H   UNL     1      -0.803   1.404  23.360  0.00  0.00    +0.167 HD
BRANCH  14  18
ATOM      1  F   UNL     1      -3.858  -1.069  26.117  0.00  0.00    -0.205 F 
ATOM      2  F   UNL     1      -6.832   2.428  24.976  0.00  0.00    -0.205 F 
ATOM     18  C   UNL     1      -3.202   0.522  24.476  0.00  0.00    +0.035 A 
ATOM     22  C   UNL     1      -4.130   0.026  25.390  0.00  0.00    +0.135 A 
ATOM     23  C   UNL     1      -3.499   1.663  23.730  0.00  0.00    +0.015 A 
ATOM     25  C   UNL     1      -5.357   0.669  25.560  0.00  0.00    +0.077 A 
ATOM     26  C   UNL     1      -4.726   2.307  23.899  0.00  0.00    +0.039 A 
ATOM     27  C   UNL     1      -5.654   1.809  24.813  0.00  0.00    +0.126 A 
ENDBRANCH  14  18
ENDBRANCH   7  12
BRANCH   4  10
ATOM     10  C   UNL     1       1.186   2.310  23.108  0.00  0.00    +0.120 C 
BRANCH  10  13
ATOM     13  C   UNL     1       0.225   2.755  24.178  0.00  0.00    -0.033 A 
ATOM     16  C   UNL     1      -0.742   3.718  23.889  0.00  0.00    +0.005 A 
ATOM     17  C   UNL     1       0.300   2.205  25.457  0.00  0.00    +0.005 A 
ATOM     19  C   UNL     1      -1.634   4.131  24.880  0.00  0.00    +0.003 A 
ATOM     20  C   UNL     1      -0.591   2.616  26.447  0.00  0.00    +0.003 A 
ATOM     21  C   UNL     1      -1.558   3.579  26.159  0.00  0.00    -0.050 A 
ATOM     24  C   UNL     1      -2.510   4.021  27.218  0.00  0.00    +0.044 C 
ENDBRANCH  10  13
ENDBRANCH   4  10
TORSDOF 4
ENDMDL
MODEL 8
REMARK VINA RESULT:      -0.4      3.035      6.124
REMARK  Name = 75367161
REMARK  5 active torsions:
REMARK  status: ('A' for Active; 'I' for Inactive)
REMARK    1  A    between atoms: N_4  and  C_10
REMARK    2  A    between atoms: C_7  and  C_12
REMARK    3  A    between atoms: C_10  and  C_13
REMARK    4  A    between atoms: C_14  and  C_18
REMARK    5  A    between atoms: C_21  and  C_24
REMARK                            x       y       z     vdW  Elec       q    Type
REMARK                         _______ _______ _______ _____ _____    ______ ____
ROOT
ATOM      3  O   UNL     1      -2.249   6.370  25.226  0.00  0.00    -0.377 OA
ATOM      4  N   UNL     1      -1.149   3.733  25.053  0.00  0.00    -0.285 NA
ATOM      7  C   UNL     1      -2.491   3.974  25.642  0.00  0.00    +0.149 C 
ATOM      8  C   UNL     1      -0.308   4.936  25.190  0.00  0.00    +0.113 C 
ATOM      9  C   UNL     1      -3.112   5.250  25.039  0.00  0.00    +0.186 C 
ATOM     11  C   UNL     1      -0.998   6.148  24.579  0.00  0.00    +0.175 C 
ENDROOT
BRANCH   7  12
ATOM      5  N   UNL     1      -3.010   1.551  25.177  0.00  0.00    -0.340 N 
ATOM      6  N   UNL     1      -4.770   2.864  25.510  0.00  0.00    -0.238 NA
ATOM     12  C   UNL     1      -3.458   2.814  25.449  0.00  0.00    +0.127 A 
ATOM     14  C   UNL     1      -4.106   0.744  25.058  0.00  0.00    +0.069 A 
ATOM     15  C   UNL     1      -5.180   1.577  25.268  0.00  0.00    +0.139 A 
ATOM     28  H   UNL     1      -2.042   1.272  25.084  0.00  0.00    +0.167 HD
BRANCH  14  18
ATOM      1  F   UNL     1      -2.743  -1.043  26.738  0.00  0.00    -0.205 F 
ATOM      2  F   UNL     1      -3.800  -4.701  23.932  0.00  0.00    -0.205 F 
ATOM     18  C   UNL     1      -4.026  -0.663  24.772  0.00  0.00    +0.035 A 
ATOM     22  C   UNL     1      -3.336  -1.517  25.632  0.00  0.00    +0.135 A 
ATOM     23  C   UNL     1      -4.640  -1.173  23.627  0.00  0.00    +0.015 A 
ATOM     25  C   UNL     1      -3.259  -2.881  25.349  0.00  0.00    +0.077 A 
ATOM     26  C   UNL     1      -4.563  -2.537  23.343  0.00  0.00    +0.039 A 
ATOM     27  C   UNL     1      -3.873  -3.391  24.204  0.00  0.00    +0.126 A 
ENDBRANCH  14  18
ENDBRANCH   7  12
BRANCH   4  10
ATOM     10  C   UNL     1      -0.466   2.596  25.680  0.00  0.00    +0.120 C 
BRANCH  10  13
ATOM     13  C   UNL     1       0.181   1.698  24.659  0.00  0.00    -0.033 A 
ATOM     16  C   UNL     1       1.359   2.096  24.027  0.00  0.00    +0.005 A 
ATOM     17  C   UNL     1      -0.396   0.468  24.346  0.00  0.00    +0.005 A 
ATOM     19  C   UNL     1       1.959   1.264  23.082  0.00  0.00    +0.003 A 
ATOM     20  C   UNL     1       0.204  -0.364  23.401  0.00  0.00    +0.003 A 
ATOM     21  C   UNL     1       1.381   0.034  22.769  0.00  0.00    -0.050 A 
ATOM     24  C   UNL     1       2.023  -0.855  21.758  0.00  0.00    +0.044 C 
ENDBRANCH  10  13
ENDBRANCH   4  10
TORSDOF 4
ENDMDL
