MODEL 1
REMARK VINA RESULT:       2.1      0.000      0.000
REMARK  Name = 40779473
REMARK  7 active torsions:
REMARK  status: ('A' for Active; 'I' for Inactive)
REMARK    1  A    between atoms: S_1  and  N_6
REMARK    2  A    between atoms: S_1  and  C_21
REMARK    3  A    between atoms: N_5  and  C_19
REMARK    4  A    between atoms: N_6  and  C_15
REMARK    5  A    between atoms: C_9  and  C_16
REMARK    6  A    between atoms: C_10  and  C_15
REMARK    7  A    between atoms: C_18  and  C_20
REMARK                            x       y       z     vdW  Elec       q    Type
REMARK                         _______ _______ _______ _____ _____    ______ ____
ROOT
ATOM      5  N   UNL     1      -2.343  -1.405  24.414  0.00  0.00    -0.270 N 
ATOM      7  N   UNL     1      -1.042  -1.572  24.124  0.00  0.00    -0.171 NA
ATOM     16  C   UNL     1      -2.720  -0.098  24.522  0.00  0.00    +0.044 A 
ATOM     17  C   UNL     1      -1.586   0.639  24.287  0.00  0.00    +0.053 A 
ATOM     18  C   UNL     1      -0.584  -0.320  24.047  0.00  0.00    +0.093 A 
ATOM     19  C   UNL     1      -3.184  -2.568  24.579  0.00  0.00    +0.172 C 
ENDROOT
BRANCH  18  20
ATOM     20  C   UNL     1       0.800  -0.063  23.748  0.00  0.00    +0.003 A 
ATOM     22  C   UNL     1       1.760  -1.046  23.992  0.00  0.00    +0.018 A 
ATOM     23  C   UNL     1       1.181   1.166  23.218  0.00  0.00    +0.011 A 
ATOM     24  C   UNL     1       3.115  -0.811  23.705  0.00  0.00    -0.017 A 
ATOM     25  C   UNL     1       2.523   1.416  22.928  0.00  0.00    +0.009 A 
ATOM     26  C   UNL     1       3.502   0.439  23.166  0.00  0.00    -0.018 A 
ATOM     27  C   UNL     1       4.094  -1.789  23.943  0.00  0.00    +0.008 A 
ATOM     28  C   UNL     1       4.856   0.673  22.879  0.00  0.00    +0.008 A 
ATOM     29  C   UNL     1       5.436  -1.539  23.653  0.00  0.00    +0.001 A 
ATOM     30  C   UNL     1       5.815  -0.310  23.122  0.00  0.00    +0.001 A 
ENDBRANCH  18  20
BRANCH  16   9
ATOM      4  N   UNL     1      -5.273   2.106  26.235  0.00  0.00    -0.297 NA
ATOM      8  C   UNL     1      -4.894   1.219  23.816  0.00  0.00    +0.002 C 
ATOM      9  C   UNL     1      -4.144   0.329  24.845  0.00  0.00    +0.055 C 
ATOM     10  C   UNL     1      -4.848   3.220  25.346  0.00  0.00    +0.072 C 
ATOM     11  C   UNL     1      -4.420   2.681  23.965  0.00  0.00    +0.024 C 
ATOM     12  C   UNL     1      -6.389   1.186  24.203  0.00  0.00    +0.019 C 
ATOM     13  C   UNL     1      -4.250   1.032  26.229  0.00  0.00    +0.094 C 
ATOM     14  C   UNL     1      -6.534   1.547  25.692  0.00  0.00    +0.085 C 
BRANCH  10  15
ATOM     15  C   UNL     1      -3.761   4.089  25.981  0.00  0.00    +0.124 C 
BRANCH  15   6
ATOM      6  N   UNL     1      -2.937   4.687  24.917  0.00  0.00    -0.193 NA
ATOM     31  H   UNL     1      -3.191   5.659  24.698  0.00  0.00    +0.148 HD
BRANCH   6   1
ATOM      1  S   UNL     1      -1.275   4.303  24.833  0.00  0.00    +0.027 S 
ATOM      2  O   UNL     1      -0.484   5.497  25.058  0.00  0.00    -0.158 OA
ATOM      3  O   UNL     1      -1.051   3.475  23.663  0.00  0.00    -0.158 OA
ATOM     21  C   UNL     1      -1.109   3.259  26.262  0.00  0.00    +0.214 C 
ENDBRANCH   6   1
ENDBRANCH  15   6
ENDBRANCH  10  15
ENDBRANCH  16   9
TORSDOF 5
ENDMDL
MODEL 2
REMARK VINA RESULT:       2.9      1.043      1.750
REMARK  Name = 40779473
REMARK  7 active torsions:
REMARK  status: ('A' for Active; 'I' for Inactive)
REMARK    1  A    between atoms: S_1  and  N_6
REMARK    2  A    between atoms: S_1  and  C_21
REMARK    3  A    between atoms: N_5  and  C_19
REMARK    4  A    between atoms: N_6  and  C_15
REMARK    5  A    between atoms: C_9  and  C_16
REMARK    6  A    between atoms: C_10  and  C_15
REMARK    7  A    between atoms: C_18  and  C_20
REMARK                            x       y       z     vdW  Elec       q    Type
REMARK                         _______ _______ _______ _____ _____    ______ ____
ROOT
ATOM      5  N   UNL     1      -3.240  -1.398  24.153  0.00  0.00    -0.270 N 
ATOM      7  N   UNL     1      -2.000  -1.846  23.894  0.00  0.00    -0.171 NA
ATOM     16  C   UNL     1      -3.275  -0.126  24.646  0.00  0.00    +0.044 A 
ATOM     17  C   UNL     1      -1.966   0.284  24.715  0.00  0.00    +0.053 A 
ATOM     18  C   UNL     1      -1.226  -0.815  24.239  0.00  0.00    +0.093 A 
ATOM     19  C   UNL     1      -4.370  -2.262  23.900  0.00  0.00    +0.172 C 
ENDROOT
BRANCH  18  20
ATOM     20  C   UNL     1       0.205  -0.897  24.109  0.00  0.00    +0.003 A 
ATOM     22  C   UNL     1       0.904   0.114  23.448  0.00  0.00    +0.018 A 
ATOM     23  C   UNL     1       0.891  -1.983  24.643  0.00  0.00    +0.011 A 
ATOM     24  C   UNL     1       2.301   0.050  23.314  0.00  0.00    -0.017 A 
ATOM     25  C   UNL     1       2.279  -2.063  24.519  0.00  0.00    +0.009 A 
ATOM     26  C   UNL     1       2.998  -1.056  23.857  0.00  0.00    -0.018 A 
ATOM     27  C   UNL     1       3.020   1.057  22.651  0.00  0.00    +0.008 A 
ATOM     28  C   UNL     1       4.394  -1.120  23.723  0.00  0.00    +0.008 A 
ATOM     29  C   UNL     1       4.408   0.978  22.527  0.00  0.00    +0.001 A 
ATOM     30  C   UNL     1       5.093  -0.109  23.061  0.00  0.00    +0.001 A 
ENDBRANCH  18  20
BRANCH  16   9
ATOM      4  N   UNL     1      -5.256   2.585  26.388  0.00  0.00    -0.297 NA
ATOM      8  C   UNL     1      -5.171   1.585  23.984  0.00  0.00    +0.002 C 
ATOM      9  C   UNL     1      -4.569   0.586  25.011  0.00  0.00    +0.055 C 
ATOM     10  C   UNL     1      -4.657   3.570  25.448  0.00  0.00    +0.072 C 
ATOM     11  C   UNL     1      -4.408   2.924  24.069  0.00  0.00    +0.024 C 
ATOM     12  C   UNL     1      -6.623   1.862  24.431  0.00  0.00    +0.019 C 
ATOM     13  C   UNL     1      -4.469   1.327  26.375  0.00  0.00    +0.094 C 
ATOM     14  C   UNL     1      -6.626   2.279  25.913  0.00  0.00    +0.085 C 
BRANCH  10  15
ATOM     15  C   UNL     1      -3.390   4.217  26.012  0.00  0.00    +0.124 C 
BRANCH  15   6
ATOM      6  N   UNL     1      -2.291   3.239  25.977  0.00  0.00    -0.193 NA
ATOM     31  H   UNL     1      -2.610   2.262  25.970  0.00  0.00    +0.148 HD
BRANCH   6   1
ATOM      1  S   UNL     1      -0.895   3.584  25.054  0.00  0.00    +0.027 S 
ATOM      2  O   UNL     1      -1.061   3.075  23.706  0.00  0.00    -0.158 OA
ATOM      3  O   UNL     1       0.274   3.238  25.839  0.00  0.00    -0.158 OA
ATOM     21  C   UNL     1      -0.982   5.359  24.984  0.00  0.00    +0.214 C 
ENDBRANCH   6   1
ENDBRANCH  15   6
ENDBRANCH  10  15
ENDBRANCH  16   9
TORSDOF 5
ENDMDL
MODEL 3
REMARK VINA RESULT:       4.3      2.616      4.069
REMARK  Name = 40779473
REMARK  7 active torsions:
REMARK  status: ('A' for Active; 'I' for Inactive)
REMARK    1  A    between atoms: S_1  and  N_6
REMARK    2  A    between atoms: S_1  and  C_21
REMARK    3  A    between atoms: N_5  and  C_19
REMARK    4  A    between atoms: N_6  and  C_15
REMARK    5  A    between atoms: C_9  and  C_16
REMARK    6  A    between atoms: C_10  and  C_15
REMARK    7  A    between atoms: C_18  and  C_20
REMARK                            x       y       z     vdW  Elec       q    Type
REMARK                         _______ _______ _______ _____ _____    ______ ____
ROOT
ATOM      5  N   UNL     1      -0.748   3.932  24.416  0.00  0.00    -0.270 N 
ATOM      7  N   UNL     1       0.467   3.413  24.168  0.00  0.00    -0.171 NA
ATOM     16  C   UNL     1      -1.752   3.009  24.416  0.00  0.00    +0.044 A 
ATOM     17  C   UNL     1      -1.152   1.803  24.149  0.00  0.00    +0.053 A 
ATOM     18  C   UNL     1       0.214   2.112  24.006  0.00  0.00    +0.093 A 
ATOM     19  C   UNL     1      -0.874   5.352  24.646  0.00  0.00    +0.172 C 
ENDROOT
BRANCH  18  20
ATOM     20  C   UNL     1       1.279   1.188  23.717  0.00  0.00    +0.003 A 
ATOM     22  C   UNL     1       2.608   1.597  23.841  0.00  0.00    +0.018 A 
ATOM     23  C   UNL     1       0.985  -0.110  23.313  0.00  0.00    +0.011 A 
ATOM     24  C   UNL     1       3.660   0.708  23.563  0.00  0.00    -0.017 A 
ATOM     25  C   UNL     1       2.017  -1.006  23.033  0.00  0.00    +0.009 A 
ATOM     26  C   UNL     1       3.359  -0.613  23.152  0.00  0.00    -0.018 A 
ATOM     27  C   UNL     1       5.002   1.101  23.683  0.00  0.00    +0.008 A 
ATOM     28  C   UNL     1       4.411  -1.501  22.875  0.00  0.00    +0.008 A 
ATOM     29  C   UNL     1       6.035   0.205  23.403  0.00  0.00    +0.001 A 
ATOM     30  C   UNL     1       5.739  -1.093  22.999  0.00  0.00    +0.001 A 
ENDBRANCH  18  20
BRANCH  16   9
ATOM      4  N   UNL     1      -5.476   2.411  24.122  0.00  0.00    -0.297 NA
ATOM      8  C   UNL     1      -3.825   2.995  26.049  0.00  0.00    +0.002 C 
ATOM      9  C   UNL     1      -3.208   3.369  24.673  0.00  0.00    +0.055 C 
ATOM     10  C   UNL     1      -5.319   1.243  25.028  0.00  0.00    +0.072 C 
ATOM     11  C   UNL     1      -4.193   1.496  26.052  0.00  0.00    +0.024 C 
ATOM     12  C   UNL     1      -5.145   3.786  26.176  0.00  0.00    +0.019 C 
ATOM     13  C   UNL     1      -4.156   2.809  23.573  0.00  0.00    +0.094 C 
ATOM     14  C   UNL     1      -6.005   3.540  24.923  0.00  0.00    +0.085 C 
BRANCH  10  15
ATOM     15  C   UNL     1      -5.109  -0.065  24.262  0.00  0.00    +0.124 C 
BRANCH  15   6
ATOM      6  N   UNL     1      -3.691  -0.451  24.342  0.00  0.00    -0.193 NA
ATOM     31  H   UNL     1      -3.066   0.329  24.583  0.00  0.00    +0.148 HD
BRANCH   6   1
ATOM      1  S   UNL     1      -3.276  -1.978  24.987  0.00  0.00    +0.027 S 
ATOM      2  O   UNL     1      -3.919  -3.026  24.219  0.00  0.00    -0.158 OA
ATOM      3  O   UNL     1      -3.416  -1.923  26.429  0.00  0.00    -0.158 OA
ATOM     21  C   UNL     1      -1.536  -2.023  24.624  0.00  0.00    +0.214 C 
ENDBRANCH   6   1
ENDBRANCH  15   6
ENDBRANCH  10  15
ENDBRANCH  16   9
TORSDOF 5
ENDMDL
