MODEL 1
REMARK VINA RESULT:      -0.5      0.000      0.000
REMARK  Name = 26741977
REMARK  9 active torsions:
REMARK  status: ('A' for Active; 'I' for Inactive)
REMARK    1  A    between atoms: O_1  and  C_11
REMARK    2  A    between atoms: O_4  and  C_26
REMARK    3  A    between atoms: O_4  and  C_27
REMARK    4  A    between atoms: N_7  and  C_10
REMARK    5  A    between atoms: N_8  and  C_18
REMARK    6  A    between atoms: C_17  and  C_19
REMARK    7  A    between atoms: C_18  and  C_20
REMARK    8  A    between atoms: C_18  and  C_21
REMARK    9  A    between atoms: C_27  and  C_28
REMARK                            x       y       z     vdW  Elec       q    Type
REMARK                         _______ _______ _______ _____ _____    ______ ____
ROOT
ATOM      3  O   UNL     1      -1.720   0.891  25.512  0.00  0.00    -0.270 OA
ATOM      7  N   UNL     1      -2.590   0.388  23.423  0.00  0.00    -0.305 N 
ATOM     17  C   UNL     1      -1.567   0.609  24.326  0.00  0.00    +0.244 C 
ATOM     29  H   UNL     1      -2.389   0.168  22.453  0.00  0.00    +0.149 HD
ENDROOT
BRANCH   7  10
ATOM      2  O   UNL     1      -2.344   3.484  23.530  0.00  0.00    -0.253 OA
ATOM      6  N   UNL     1      -4.435   2.879  24.333  0.00  0.00    -0.284 N 
ATOM      8  N   UNL     1      -3.157   4.565  25.387  0.00  0.00    -0.297 N 
ATOM     10  C   UNL     1      -3.989   0.470  23.802  0.00  0.00    +0.119 C 
ATOM     11  C   UNL     1      -4.122   0.128  25.298  0.00  0.00    +0.136 C 
ATOM     12  C   UNL     1      -5.441   0.542  25.961  0.00  0.00    +0.035 C 
ATOM     13  C   UNL     1      -4.581   1.811  23.345  0.00  0.00    +0.134 C 
ATOM     14  C   UNL     1      -5.458   2.002  26.422  0.00  0.00    +0.022 C 
ATOM     15  C   UNL     1      -5.546   3.009  25.283  0.00  0.00    +0.109 C 
ATOM     16  C   UNL     1      -3.249   3.636  24.356  0.00  0.00    +0.302 C 
ATOM     31  H   UNL     1      -3.825   4.551  26.148  0.00  0.00    +0.150 HD
BRANCH   8  18
ATOM     18  C   UNL     1      -1.998   5.412  25.561  0.00  0.00    +0.068 C 
ATOM     20  C   UNL     1      -2.066   6.603  24.613  0.00  0.00    +0.027 C 
ATOM     21  C   UNL     1      -0.717   4.614  25.356  0.00  0.00    +0.027 C 
ENDBRANCH   8  18
BRANCH  11   1
ATOM      1  O   UNL     1      -3.999  -1.297  25.407  0.00  0.00    -0.390 OA
ATOM     30  H   UNL     1      -3.533  -1.612  24.614  0.00  0.00    +0.210 HD
ENDBRANCH  11   1
ENDBRANCH   7  10
BRANCH  17  19
ATOM     19  C   UNL     1      -0.191   0.514  23.775  0.00  0.00    +0.037 A 
ATOM     22  C   UNL     1       0.736   1.523  24.036  0.00  0.00    +0.016 A 
ATOM     23  C   UNL     1       0.174  -0.584  22.996  0.00  0.00    +0.016 A 
ATOM     24  C   UNL     1       2.028   1.435  23.516  0.00  0.00    +0.046 A 
ATOM     25  C   UNL     1       1.466  -0.672  22.477  0.00  0.00    +0.046 A 
ATOM     26  C   UNL     1       2.393   0.337  22.737  0.00  0.00    +0.121 A 
BRANCH  26   4
ATOM      4  O   UNL     1       3.653   0.250  22.231  0.00  0.00    -0.483 OA
BRANCH   4  27
ATOM     27  C   UNL     1       4.706   0.813  23.012  0.00  0.00    +0.324 C 
BRANCH  27  28
ATOM      5  O   UNL     1       6.824  -0.343  23.161  0.00  0.00    -0.272 OA
ATOM      9  N   UNL     1       5.004  -1.210  24.269  0.00  0.00    -0.327 N 
ATOM     28  C   UNL     1       5.637  -0.285  23.469  0.00  0.00    +0.248 C 
ATOM     32  H   UNL     1       4.020  -1.138  24.509  0.00  0.00    +0.145 HD
ATOM     33  H   UNL     1       5.508  -2.005  24.649  0.00  0.00    +0.145 HD
ENDBRANCH  27  28
ENDBRANCH   4  27
ENDBRANCH  26   4
ENDBRANCH  17  19
TORSDOF 7
ENDMDL
MODEL 2
REMARK VINA RESULT:       0.4      1.734      3.952
REMARK  Name = 26741977
REMARK  9 active torsions:
REMARK  status: ('A' for Active; 'I' for Inactive)
REMARK    1  A    between atoms: O_1  and  C_11
REMARK    2  A    between atoms: O_4  and  C_26
REMARK    3  A    between atoms: O_4  and  C_27
REMARK    4  A    between atoms: N_7  and  C_10
REMARK    5  A    between atoms: N_8  and  C_18
REMARK    6  A    between atoms: C_17  and  C_19
REMARK    7  A    between atoms: C_18  and  C_20
REMARK    8  A    between atoms: C_18  and  C_21
REMARK    9  A    between atoms: C_27  and  C_28
REMARK                            x       y       z     vdW  Elec       q    Type
REMARK                         _______ _______ _______ _____ _____    ______ ____
ROOT
ATOM      3  O   UNL     1      -2.252   1.195  22.872  0.00  0.00    -0.270 OA
ATOM      7  N   UNL     1      -1.419   2.456  24.630  0.00  0.00    -0.305 N 
ATOM     17  C   UNL     1      -1.309   1.613  23.540  0.00  0.00    +0.244 C 
ATOM     29  H   UNL     1      -0.595   2.754  25.142  0.00  0.00    +0.149 HD
ENDROOT
BRANCH   7  10
ATOM      2  O   UNL     1      -2.081  -0.396  25.672  0.00  0.00    -0.253 OA
ATOM      6  N   UNL     1      -3.966   0.936  25.910  0.00  0.00    -0.284 N 
ATOM      8  N   UNL     1      -4.127  -1.290  25.133  0.00  0.00    -0.297 N 
ATOM     10  C   UNL     1      -2.701   2.945  25.105  0.00  0.00    +0.119 C 
ATOM     11  C   UNL     1      -3.666   3.059  23.910  0.00  0.00    +0.136 C 
ATOM     12  C   UNL     1      -5.154   3.173  24.264  0.00  0.00    +0.035 C 
ATOM     13  C   UNL     1      -3.176   2.103  26.298  0.00  0.00    +0.134 C 
ATOM     14  C   UNL     1      -5.824   1.820  24.516  0.00  0.00    +0.022 C 
ATOM     15  C   UNL     1      -5.414   1.160  25.825  0.00  0.00    +0.109 C 
ATOM     16  C   UNL     1      -3.305  -0.263  25.582  0.00  0.00    +0.302 C 
ATOM     31  H   UNL     1      -5.096  -1.106  24.903  0.00  0.00    +0.150 HD
BRANCH   8  18
ATOM     18  C   UNL     1      -3.605  -2.581  24.742  0.00  0.00    +0.068 C 
ATOM     20  C   UNL     1      -2.127  -2.471  24.395  0.00  0.00    +0.027 C 
ATOM     21  C   UNL     1      -4.407  -3.151  23.579  0.00  0.00    +0.027 C 
ENDBRANCH   8  18
BRANCH  11   1
ATOM      1  O   UNL     1      -3.289   4.241  23.189  0.00  0.00    -0.390 OA
ATOM     30  H   UNL     1      -3.688   5.002  23.645  0.00  0.00    +0.210 HD
ENDBRANCH  11   1
ENDBRANCH   7  10
BRANCH  17  19
ATOM     19  C   UNL     1       0.071   1.181  23.197  0.00  0.00    +0.037 A 
ATOM     22  C   UNL     1       0.273   0.021  22.449  0.00  0.00    +0.016 A 
ATOM     23  C   UNL     1       1.163   1.935  23.623  0.00  0.00    +0.016 A 
ATOM     24  C   UNL     1       1.568  -0.386  22.129  0.00  0.00    +0.046 A 
ATOM     25  C   UNL     1       2.459   1.529  23.303  0.00  0.00    +0.046 A 
ATOM     26  C   UNL     1       2.661   0.369  22.555  0.00  0.00    +0.121 A 
BRANCH  26   4
ATOM      4  O   UNL     1       3.925  -0.028  22.242  0.00  0.00    -0.483 OA
BRANCH   4  27
ATOM     27  C   UNL     1       4.969   0.375  23.128  0.00  0.00    +0.324 C 
BRANCH  27  28
ATOM      5  O   UNL     1       6.064  -0.640  25.029  0.00  0.00    -0.272 OA
ATOM      9  N   UNL     1       4.368  -1.787  23.981  0.00  0.00    -0.327 N 
ATOM     28  C   UNL     1       5.211  -0.711  24.149  0.00  0.00    +0.248 C 
ATOM     32  H   UNL     1       3.670  -1.820  23.244  0.00  0.00    +0.145 HD
ATOM     33  H   UNL     1       4.418  -2.592  24.596  0.00  0.00    +0.145 HD
ENDBRANCH  27  28
ENDBRANCH   4  27
ENDBRANCH  26   4
ENDBRANCH  17  19
TORSDOF 7
ENDMDL
