MODEL 1
REMARK VINA RESULT:      -0.5      0.000      0.000
REMARK  Name = 40779908
REMARK  9 active torsions:
REMARK  status: ('A' for Active; 'I' for Inactive)
REMARK    1  A    between atoms: O_4  and  C_22
REMARK    2  A    between atoms: O_4  and  C_25
REMARK    3  A    between atoms: N_7  and  C_16
REMARK    4  A    between atoms: N_8  and  C_17
REMARK    5  A    between atoms: C_10  and  C_16
REMARK    6  A    between atoms: C_12  and  C_17
REMARK    7  A    between atoms: C_18  and  C_22
REMARK    8  A    between atoms: C_23  and  C_24
REMARK    9  A    between atoms: C_30  and  C_31
REMARK                            x       y       z     vdW  Elec       q    Type
REMARK                         _______ _______ _______ _____ _____    ______ ____
ROOT
ATOM      6  N   UNL     1      -2.951  -1.263  23.606  0.00  0.00    -0.298 NA
ATOM      9  C   UNL     1      -3.376  -0.994  26.157  0.00  0.00    -0.003 C 
ATOM     10  C   UNL     1      -4.448  -0.240  25.337  0.00  0.00    +0.020 C 
ATOM     11  C   UNL     1      -1.979  -0.476  25.770  0.00  0.00    +0.024 C 
ATOM     12  C   UNL     1      -1.713  -0.788  24.280  0.00  0.00    +0.074 C 
ATOM     13  C   UNL     1      -4.064  -0.313  23.842  0.00  0.00    +0.089 C 
ATOM     14  C   UNL     1      -3.448  -2.473  25.734  0.00  0.00    +0.019 C 
ATOM     15  C   UNL     1      -3.323  -2.569  24.202  0.00  0.00    +0.085 C 
ENDROOT
BRANCH  10  16
ATOM     16  C   UNL     1      -4.652   1.202  25.797  0.00  0.00    +0.089 C 
BRANCH  16   7
ATOM      7  N   UNL     1      -3.937   2.131  24.929  0.00  0.00    -0.297 NA
ATOM     18  C   UNL     1      -3.445   3.323  25.633  0.00  0.00    +0.082 C 
ATOM     19  C   UNL     1      -4.804   2.650  23.868  0.00  0.00    +0.085 C 
ATOM     20  C   UNL     1      -3.132   4.285  24.485  0.00  0.00    +0.022 C 
ATOM     21  C   UNL     1      -4.028   3.842  23.334  0.00  0.00    +0.017 C 
BRANCH  18  22
ATOM     22  C   UNL     1      -2.217   3.052  26.494  0.00  0.00    +0.178 C 
BRANCH  22   4
ATOM      4  O   UNL     1      -1.059   3.354  25.736  0.00  0.00    -0.381 OA
ATOM     25  C   UNL     1       0.082   2.653  26.218  0.00  0.00    +0.194 C 
ENDBRANCH  22   4
ENDBRANCH  18  22
ENDBRANCH  16   7
ENDBRANCH  10  16
BRANCH  12  17
ATOM     17  C   UNL     1      -1.074   0.400  23.556  0.00  0.00    +0.123 C 
BRANCH  17   8
ATOM      5  O   UNL     1       0.750  -0.557  21.557  0.00  0.00    -0.270 OA
ATOM      8  N   UNL     1       0.375   0.345  23.657  0.00  0.00    -0.310 N 
ATOM     23  C   UNL     1       1.166  -0.135  22.633  0.00  0.00    +0.244 C 
ATOM     32  H   UNL     1       0.779   0.616  24.548  0.00  0.00    +0.149 HD
BRANCH  23  24
ATOM     24  C   UNL     1       2.626  -0.150  22.902  0.00  0.00    +0.037 A 
ATOM     26  C   UNL     1       3.410   0.954  22.562  0.00  0.00    +0.013 A 
ATOM     27  C   UNL     1       3.215  -1.267  23.495  0.00  0.00    +0.013 A 
ATOM     28  C   UNL     1       4.781   0.939  22.816  0.00  0.00    +0.013 A 
ATOM     29  C   UNL     1       4.587  -1.280  23.749  0.00  0.00    +0.013 A 
ATOM     30  C   UNL     1       5.369  -0.177  23.408  0.00  0.00    +0.055 A 
BRANCH  30  31
ATOM      1  F   UNL     1       7.584  -0.624  22.621  0.00  0.00    -0.166 F 
ATOM      2  F   UNL     1       7.168  -1.012  24.720  0.00  0.00    -0.166 F 
ATOM      3  F   UNL     1       7.346   1.033  24.000  0.00  0.00    -0.166 F 
ATOM     31  C   UNL     1       6.836  -0.193  23.680  0.00  0.00    +0.417 C 
ENDBRANCH  30  31
ENDBRANCH  23  24
ENDBRANCH  17   8
ENDBRANCH  12  17
TORSDOF 8
ENDMDL
MODEL 2
REMARK VINA RESULT:       0.5      4.185      5.231
REMARK  Name = 40779908
REMARK  9 active torsions:
REMARK  status: ('A' for Active; 'I' for Inactive)
REMARK    1  A    between atoms: O_4  and  C_22
REMARK    2  A    between atoms: O_4  and  C_25
REMARK    3  A    between atoms: N_7  and  C_16
REMARK    4  A    between atoms: N_8  and  C_17
REMARK    5  A    between atoms: C_10  and  C_16
REMARK    6  A    between atoms: C_12  and  C_17
REMARK    7  A    between atoms: C_18  and  C_22
REMARK    8  A    between atoms: C_23  and  C_24
REMARK    9  A    between atoms: C_30  and  C_31
REMARK                            x       y       z     vdW  Elec       q    Type
REMARK                         _______ _______ _______ _____ _____    ______ ____
ROOT
ATOM      6  N   UNL     1      -1.771  -2.521  23.808  0.00  0.00    -0.298 NA
ATOM      9  C   UNL     1      -3.969  -2.399  25.192  0.00  0.00    -0.003 C 
ATOM     10  C   UNL     1      -3.770  -1.112  24.359  0.00  0.00    +0.020 C 
ATOM     11  C   UNL     1      -2.748  -2.609  26.107  0.00  0.00    +0.024 C 
ATOM     12  C   UNL     1      -1.489  -2.821  25.238  0.00  0.00    +0.074 C 
ATOM     13  C   UNL     1      -2.386  -1.179  23.675  0.00  0.00    +0.089 C 
ATOM     14  C   UNL     1      -4.002  -3.575  24.198  0.00  0.00    +0.019 C 
ATOM     15  C   UNL     1      -2.742  -3.526  23.314  0.00  0.00    +0.085 C 
ENDROOT
BRANCH  10  16
ATOM     16  C   UNL     1      -3.932   0.166  25.179  0.00  0.00    +0.089 C 
BRANCH  16   7
ATOM      7  N   UNL     1      -3.480   1.329  24.424  0.00  0.00    -0.297 NA
ATOM     18  C   UNL     1      -4.453   2.429  24.412  0.00  0.00    +0.082 C 
ATOM     19  C   UNL     1      -3.264   1.001  23.013  0.00  0.00    +0.085 C 
ATOM     20  C   UNL     1      -3.955   3.305  23.260  0.00  0.00    +0.022 C 
ATOM     21  C   UNL     1      -3.181   2.363  22.345  0.00  0.00    +0.017 C 
BRANCH  18  22
ATOM     22  C   UNL     1      -4.510   3.201  25.724  0.00  0.00    +0.178 C 
BRANCH  22   4
ATOM      4  O   UNL     1      -5.719   2.879  26.387  0.00  0.00    -0.381 OA
ATOM     25  C   UNL     1      -6.596   2.133  25.549  0.00  0.00    +0.194 C 
ENDBRANCH  22   4
ENDBRANCH  18  22
ENDBRANCH  16   7
ENDBRANCH  10  16
BRANCH  12  17
ATOM     17  C   UNL     1      -0.290  -2.035  25.773  0.00  0.00    +0.123 C 
BRANCH  17   8
ATOM      5  O   UNL     1       0.841  -0.235  23.843  0.00  0.00    -0.270 OA
ATOM      8  N   UNL     1      -0.528  -0.604  25.676  0.00  0.00    -0.310 N 
ATOM     23  C   UNL     1       0.069   0.176  24.705  0.00  0.00    +0.244 C 
ATOM     32  H   UNL     1      -1.104  -0.188  26.401  0.00  0.00    +0.149 HD
BRANCH  23  24
ATOM     24  C   UNL     1      -0.256   1.625  24.757  0.00  0.00    +0.037 A 
ATOM     26  C   UNL     1      -0.875   2.160  25.887  0.00  0.00    +0.013 A 
ATOM     27  C   UNL     1       0.058   2.449  23.677  0.00  0.00    +0.013 A 
ATOM     28  C   UNL     1      -1.180   3.520  25.936  0.00  0.00    +0.013 A 
ATOM     29  C   UNL     1      -0.247   3.810  23.727  0.00  0.00    +0.013 A 
ATOM     30  C   UNL     1      -0.866   4.345  24.856  0.00  0.00    +0.055 A 
BRANCH  30  31
ATOM      1  F   UNL     1      -1.803   6.264  23.778  0.00  0.00    -0.166 F 
ATOM      2  F   UNL     1      -0.083   6.579  25.072  0.00  0.00    -0.166 F 
ATOM      3  F   UNL     1      -2.032   6.136  25.931  0.00  0.00    -0.166 F 
ATOM     31  C   UNL     1      -1.192   5.800  24.908  0.00  0.00    +0.417 C 
ENDBRANCH  30  31
ENDBRANCH  23  24
ENDBRANCH  17   8
ENDBRANCH  12  17
TORSDOF 8
ENDMDL
MODEL 3
REMARK VINA RESULT:       0.7      1.382      1.987
REMARK  Name = 40779908
REMARK  9 active torsions:
REMARK  status: ('A' for Active; 'I' for Inactive)
REMARK    1  A    between atoms: O_4  and  C_22
REMARK    2  A    between atoms: O_4  and  C_25
REMARK    3  A    between atoms: N_7  and  C_16
REMARK    4  A    between atoms: N_8  and  C_17
REMARK    5  A    between atoms: C_10  and  C_16
REMARK    6  A    between atoms: C_12  and  C_17
REMARK    7  A    between atoms: C_18  and  C_22
REMARK    8  A    between atoms: C_23  and  C_24
REMARK    9  A    between atoms: C_30  and  C_31
REMARK                            x       y       z     vdW  Elec       q    Type
REMARK                         _______ _______ _______ _____ _____    ______ ____
ROOT
ATOM      6  N   UNL     1      -3.128  -2.089  24.250  0.00  0.00    -0.298 NA
ATOM      9  C   UNL     1      -2.787  -0.041  25.816  0.00  0.00    -0.003 C 
ATOM     10  C   UNL     1      -3.824   0.274  24.714  0.00  0.00    +0.020 C 
ATOM     11  C   UNL     1      -1.460  -0.466  25.161  0.00  0.00    +0.024 C 
ATOM     12  C   UNL     1      -1.680  -1.768  24.359  0.00  0.00    +0.074 C 
ATOM     13  C   UNL     1      -3.879  -0.920  23.734  0.00  0.00    +0.089 C 
ATOM     14  C   UNL     1      -3.320  -1.257  26.598  0.00  0.00    +0.019 C 
ATOM     15  C   UNL     1      -3.631  -2.397  25.611  0.00  0.00    +0.085 C 
ENDROOT
BRANCH  10  16
ATOM     16  C   UNL     1      -3.549   1.588  23.986  0.00  0.00    +0.089 C 
BRANCH  16   7
ATOM      7  N   UNL     1      -2.711   2.464  24.797  0.00  0.00    -0.297 NA
ATOM     18  C   UNL     1      -3.345   3.754  25.104  0.00  0.00    +0.082 C 
ATOM     19  C   UNL     1      -1.468   2.810  24.103  0.00  0.00    +0.085 C 
ATOM     20  C   UNL     1      -2.161   4.608  25.565  0.00  0.00    +0.022 C 
ATOM     21  C   UNL     1      -0.936   3.988  24.902  0.00  0.00    +0.017 C 
BRANCH  18  22
ATOM     22  C   UNL     1      -4.423   3.658  26.175  0.00  0.00    +0.178 C 
BRANCH  22   4
ATOM      4  O   UNL     1      -5.670   3.429  25.544  0.00  0.00    -0.381 OA
ATOM     25  C   UNL     1      -6.353   2.318  26.115  0.00  0.00    +0.194 C 
ENDBRANCH  22   4
ENDBRANCH  18  22
ENDBRANCH  16   7
ENDBRANCH  10  16
BRANCH  12  17
ATOM     17  C   UNL     1      -0.990  -1.718  22.993  0.00  0.00    +0.123 C 
BRANCH  17   8
ATOM      5  O   UNL     1       0.429   0.754  22.652  0.00  0.00    -0.270 OA
ATOM      8  N   UNL     1       0.440  -1.509  23.146  0.00  0.00    -0.310 N 
ATOM     23  C   UNL     1       1.027  -0.274  22.959  0.00  0.00    +0.244 C 
ATOM     32  H   UNL     1       1.002  -2.334  23.334  0.00  0.00    +0.149 HD
BRANCH  23  24
ATOM     24  C   UNL     1       2.502  -0.232  23.126  0.00  0.00    +0.037 A 
ATOM     26  C   UNL     1       3.221   0.887  22.704  0.00  0.00    +0.013 A 
ATOM     27  C   UNL     1       3.169  -1.312  23.703  0.00  0.00    +0.013 A 
ATOM     28  C   UNL     1       4.606   0.925  22.861  0.00  0.00    +0.013 A 
ATOM     29  C   UNL     1       4.555  -1.273  23.860  0.00  0.00    +0.013 A 
ATOM     30  C   UNL     1       5.273  -0.155  23.439  0.00  0.00    +0.055 A 
BRANCH  30  31
ATOM      1  F   UNL     1       7.442  -0.570  22.517  0.00  0.00    -0.166 F 
ATOM      2  F   UNL     1       7.184  -0.875  24.656  0.00  0.00    -0.166 F 
ATOM      3  F   UNL     1       7.245   1.140  23.838  0.00  0.00    -0.166 F 
ATOM     31  C   UNL     1       6.755  -0.114  23.607  0.00  0.00    +0.417 C 
ENDBRANCH  30  31
ENDBRANCH  23  24
ENDBRANCH  17   8
ENDBRANCH  12  17
TORSDOF 8
ENDMDL
MODEL 4
REMARK VINA RESULT:       0.8      2.398      4.931
REMARK  Name = 40779908
REMARK  9 active torsions:
REMARK  status: ('A' for Active; 'I' for Inactive)
REMARK    1  A    between atoms: O_4  and  C_22
REMARK    2  A    between atoms: O_4  and  C_25
REMARK    3  A    between atoms: N_7  and  C_16
REMARK    4  A    between atoms: N_8  and  C_17
REMARK    5  A    between atoms: C_10  and  C_16
REMARK    6  A    between atoms: C_12  and  C_17
REMARK    7  A    between atoms: C_18  and  C_22
REMARK    8  A    between atoms: C_23  and  C_24
REMARK    9  A    between atoms: C_30  and  C_31
REMARK                            x       y       z     vdW  Elec       q    Type
REMARK                         _______ _______ _______ _____ _____    ______ ____
ROOT
ATOM      6  N   UNL     1      -5.117   3.304  26.191  0.00  0.00    -0.298 NA
ATOM      9  C   UNL     1      -5.471   1.738  24.145  0.00  0.00    -0.003 C 
ATOM     10  C   UNL     1      -4.722   1.002  25.280  0.00  0.00    +0.020 C 
ATOM     11  C   UNL     1      -4.682   2.999  23.748  0.00  0.00    +0.024 C 
ATOM     12  C   UNL     1      -4.623   3.965  24.952  0.00  0.00    +0.074 C 
ATOM     13  C   UNL     1      -4.413   2.017  26.404  0.00  0.00    +0.089 C 
ATOM     14  C   UNL     1      -6.818   2.206  24.728  0.00  0.00    +0.019 C 
ATOM     15  C   UNL     1      -6.561   3.018  26.010  0.00  0.00    +0.085 C 
ENDROOT
BRANCH  10  16
ATOM     16  C   UNL     1      -3.459   0.287  24.804  0.00  0.00    +0.089 C 
BRANCH  16   7
ATOM      7  N   UNL     1      -3.626  -1.160  24.870  0.00  0.00    -0.297 NA
ATOM     18  C   UNL     1      -2.358  -1.896  24.768  0.00  0.00    +0.082 C 
ATOM     19  C   UNL     1      -4.442  -1.658  23.761  0.00  0.00    +0.085 C 
ATOM     20  C   UNL     1      -2.821  -3.318  24.443  0.00  0.00    +0.022 C 
ATOM     21  C   UNL     1      -4.184  -3.155  23.780  0.00  0.00    +0.017 C 
BRANCH  18  22
ATOM     22  C   UNL     1      -1.527  -1.850  26.044  0.00  0.00    +0.178 C 
BRANCH  22   4
ATOM      4  O   UNL     1      -0.198  -1.494  25.706  0.00  0.00    -0.381 OA
ATOM     25  C   UNL     1       0.572  -2.631  25.331  0.00  0.00    +0.194 C 
ENDBRANCH  22   4
ENDBRANCH  18  22
ENDBRANCH  16   7
ENDBRANCH  10  16
BRANCH  12  17
ATOM     17  C   UNL     1      -3.226   4.566  25.130  0.00  0.00    +0.123 C 
BRANCH  17   8
ATOM      5  O   UNL     1      -1.243   2.999  26.493  0.00  0.00    -0.270 OA
ATOM      8  N   UNL     1      -2.218   3.716  24.517  0.00  0.00    -0.310 N 
ATOM     23  C   UNL     1      -1.306   3.000  25.266  0.00  0.00    +0.244 C 
ATOM     32  H   UNL     1      -2.172   3.725  23.503  0.00  0.00    +0.149 HD
BRANCH  23  24
ATOM     24  C   UNL     1      -0.324   2.202  24.489  0.00  0.00    +0.037 A 
ATOM     26  C   UNL     1      -0.754   1.105  23.740  0.00  0.00    +0.013 A 
ATOM     27  C   UNL     1       1.027   2.547  24.508  0.00  0.00    +0.013 A 
ATOM     28  C   UNL     1       0.168   0.355  23.011  0.00  0.00    +0.013 A 
ATOM     29  C   UNL     1       1.949   1.796  23.777  0.00  0.00    +0.013 A 
ATOM     30  C   UNL     1       1.519   0.700  23.029  0.00  0.00    +0.055 A 
BRANCH  30  31
ATOM      1  F   UNL     1       1.985  -0.657  21.115  0.00  0.00    -0.166 F 
ATOM      2  F   UNL     1       3.018  -1.145  22.966  0.00  0.00    -0.166 F 
ATOM      3  F   UNL     1       3.587   0.620  21.829  0.00  0.00    -0.166 F 
ATOM     31  C   UNL     1       2.506  -0.102  22.249  0.00  0.00    +0.417 C 
ENDBRANCH  30  31
ENDBRANCH  23  24
ENDBRANCH  17   8
ENDBRANCH  12  17
TORSDOF 8
ENDMDL
MODEL 5
REMARK VINA RESULT:       2.0      2.070      3.197
REMARK  Name = 40779908
REMARK  9 active torsions:
REMARK  status: ('A' for Active; 'I' for Inactive)
REMARK    1  A    between atoms: O_4  and  C_22
REMARK    2  A    between atoms: O_4  and  C_25
REMARK    3  A    between atoms: N_7  and  C_16
REMARK    4  A    between atoms: N_8  and  C_17
REMARK    5  A    between atoms: C_10  and  C_16
REMARK    6  A    between atoms: C_12  and  C_17
REMARK    7  A    between atoms: C_18  and  C_22
REMARK    8  A    between atoms: C_23  and  C_24
REMARK    9  A    between atoms: C_30  and  C_31
REMARK                            x       y       z     vdW  Elec       q    Type
REMARK                         _______ _______ _______ _____ _____    ______ ____
ROOT
ATOM      6  N   UNL     1      -4.170  -0.561  23.657  0.00  0.00    -0.298 NA
ATOM      9  C   UNL     1      -3.932   0.709  25.913  0.00  0.00    -0.003 C 
ATOM     10  C   UNL     1      -2.943   1.262  24.862  0.00  0.00    +0.020 C 
ATOM     11  C   UNL     1      -3.690  -0.800  26.098  0.00  0.00    +0.024 C 
ATOM     12  C   UNL     1      -3.984  -1.531  24.769  0.00  0.00    +0.074 C 
ATOM     13  C   UNL     1      -3.027   0.380  23.596  0.00  0.00    +0.089 C 
ATOM     14  C   UNL     1      -5.347   0.876  25.328  0.00  0.00    +0.019 C 
ATOM     15  C   UNL     1      -5.399   0.222  23.935  0.00  0.00    +0.085 C 
ENDROOT
BRANCH  10  16
ATOM     16  C   UNL     1      -1.511   1.368  25.381  0.00  0.00    +0.089 C 
BRANCH  16   7
ATOM      7  N   UNL     1      -1.098   2.763  25.487  0.00  0.00    -0.297 NA
ATOM     18  C   UNL     1      -2.214   3.710  25.352  0.00  0.00    +0.082 C 
ATOM     19  C   UNL     1      -0.163   3.128  24.421  0.00  0.00    +0.085 C 
ATOM     20  C   UNL     1      -1.498   5.035  25.078  0.00  0.00    +0.022 C 
ATOM     21  C   UNL     1      -0.157   4.647  24.464  0.00  0.00    +0.017 C 
BRANCH  18  22
ATOM     22  C   UNL     1      -3.093   3.790  26.594  0.00  0.00    +0.178 C 
BRANCH  22   4
ATOM      4  O   UNL     1      -4.405   4.147  26.197  0.00  0.00    -0.381 OA
ATOM     25  C   UNL     1      -4.559   4.098  24.783  0.00  0.00    +0.194 C 
ENDBRANCH  22   4
ENDBRANCH  18  22
ENDBRANCH  16   7
ENDBRANCH  10  16
BRANCH  12  17
ATOM     17  C   UNL     1      -2.919  -2.583  24.451  0.00  0.00    +0.123 C 
BRANCH  17   8
ATOM      5  O   UNL     1      -0.377  -2.531  25.785  0.00  0.00    -0.270 OA
ATOM      8  N   UNL     1      -1.699  -1.954  23.972  0.00  0.00    -0.310 N 
ATOM     23  C   UNL     1      -0.523  -1.986  24.694  0.00  0.00    +0.244 C 
ATOM     32  H   UNL     1      -1.769  -1.428  23.107  0.00  0.00    +0.149 HD
BRANCH  23  24
ATOM     24  C   UNL     1       0.626  -1.273  24.080  0.00  0.00    +0.037 A 
ATOM     26  C   UNL     1       1.929  -1.712  24.320  0.00  0.00    +0.013 A 
ATOM     27  C   UNL     1       0.403  -0.164  23.264  0.00  0.00    +0.013 A 
ATOM     28  C   UNL     1       3.008  -1.041  23.743  0.00  0.00    +0.013 A 
ATOM     29  C   UNL     1       1.483   0.506  22.687  0.00  0.00    +0.013 A 
ATOM     30  C   UNL     1       2.784   0.067  22.927  0.00  0.00    +0.055 A 
BRANCH  30  31
ATOM      1  F   UNL     1       3.961   0.712  20.947  0.00  0.00    -0.166 F 
ATOM      2  F   UNL     1       5.143   0.293  22.725  0.00  0.00    -0.166 F 
ATOM      3  F   UNL     1       3.968   2.120  22.597  0.00  0.00    -0.166 F 
ATOM     31  C   UNL     1       3.938   0.785  22.310  0.00  0.00    +0.417 C 
ENDBRANCH  30  31
ENDBRANCH  23  24
ENDBRANCH  17   8
ENDBRANCH  12  17
TORSDOF 8
ENDMDL
MODEL 6
REMARK VINA RESULT:       2.1      2.062      3.451
REMARK  Name = 40779908
REMARK  9 active torsions:
REMARK  status: ('A' for Active; 'I' for Inactive)
REMARK    1  A    between atoms: O_4  and  C_22
REMARK    2  A    between atoms: O_4  and  C_25
REMARK    3  A    between atoms: N_7  and  C_16
REMARK    4  A    between atoms: N_8  and  C_17
REMARK    5  A    between atoms: C_10  and  C_16
REMARK    6  A    between atoms: C_12  and  C_17
REMARK    7  A    between atoms: C_18  and  C_22
REMARK    8  A    between atoms: C_23  and  C_24
REMARK    9  A    between atoms: C_30  and  C_31
REMARK                            x       y       z     vdW  Elec       q    Type
REMARK                         _______ _______ _______ _____ _____    ______ ____
ROOT
ATOM      6  N   UNL     1      -5.479   0.572  24.621  0.00  0.00    -0.298 NA
ATOM      9  C   UNL     1      -4.158   2.694  25.339  0.00  0.00    -0.003 C 
ATOM     10  C   UNL     1      -4.052   2.467  23.813  0.00  0.00    +0.020 C 
ATOM     11  C   UNL     1      -3.644   1.444  26.077  0.00  0.00    +0.024 C 
ATOM     12  C   UNL     1      -4.548   0.239  25.732  0.00  0.00    +0.074 C 
ATOM     13  C   UNL     1      -4.730   1.123  23.467  0.00  0.00    +0.089 C 
ATOM     14  C   UNL     1      -5.657   2.833  25.668  0.00  0.00    +0.019 C 
ATOM     15  C   UNL     1      -6.414   1.616  25.107  0.00  0.00    +0.085 C 
ENDROOT
BRANCH  10  16
ATOM     16  C   UNL     1      -2.617   2.526  23.295  0.00  0.00    +0.089 C 
BRANCH  16   7
ATOM      7  N   UNL     1      -1.973   3.774  23.688  0.00  0.00    -0.297 NA
ATOM     18  C   UNL     1      -0.982   3.604  24.759  0.00  0.00    +0.082 C 
ATOM     19  C   UNL     1      -2.943   4.734  24.220  0.00  0.00    +0.085 C 
ATOM     20  C   UNL     1      -0.780   5.036  25.260  0.00  0.00    +0.022 C 
ATOM     21  C   UNL     1      -2.070   5.770  24.908  0.00  0.00    +0.017 C 
BRANCH  18  22
ATOM     22  C   UNL     1       0.325   2.984  24.280  0.00  0.00    +0.178 C 
BRANCH  22   4
ATOM      4  O   UNL     1       0.772   2.060  25.257  0.00  0.00    -0.381 OA
ATOM     25  C   UNL     1      -0.187   1.884  26.293  0.00  0.00    +0.194 C 
ENDBRANCH  22   4
ENDBRANCH  18  22
ENDBRANCH  16   7
ENDBRANCH  10  16
BRANCH  12  17
ATOM     17  C   UNL     1      -3.729  -1.022  25.448  0.00  0.00    +0.123 C 
BRANCH  17   8
ATOM      5  O   UNL     1      -1.806  -2.832  24.322  0.00  0.00    -0.270 OA
ATOM      8  N   UNL     1      -2.421  -0.679  24.915  0.00  0.00    -0.310 N 
ATOM     23  C   UNL     1      -1.567  -1.629  24.393  0.00  0.00    +0.244 C 
ATOM     32  H   UNL     1      -2.134   0.291  25.005  0.00  0.00    +0.149 HD
BRANCH  23  24
ATOM     24  C   UNL     1      -0.257  -1.120  23.913  0.00  0.00    +0.037 A 
ATOM     26  C   UNL     1      -0.199  -0.289  22.793  0.00  0.00    +0.013 A 
ATOM     27  C   UNL     1       0.915  -1.473  24.581  0.00  0.00    +0.013 A 
ATOM     28  C   UNL     1       1.031   0.189  22.343  0.00  0.00    +0.013 A 
ATOM     29  C   UNL     1       2.146  -0.994  24.130  0.00  0.00    +0.013 A 
ATOM     30  C   UNL     1       2.204  -0.164  23.011  0.00  0.00    +0.055 A 
BRANCH  30  31
ATOM      1  F   UNL     1       4.582  -0.409  22.936  0.00  0.00    -0.166 F 
ATOM      2  F   UNL     1       3.782   1.613  22.966  0.00  0.00    -0.166 F 
ATOM      3  F   UNL     1       3.621   0.400  21.168  0.00  0.00    -0.166 F 
ATOM     31  C   UNL     1       3.520   0.347  22.529  0.00  0.00    +0.417 C 
ENDBRANCH  30  31
ENDBRANCH  23  24
ENDBRANCH  17   8
ENDBRANCH  12  17
TORSDOF 8
ENDMDL
MODEL 7
REMARK VINA RESULT:       2.2      1.630      3.748
REMARK  Name = 40779908
REMARK  9 active torsions:
REMARK  status: ('A' for Active; 'I' for Inactive)
REMARK    1  A    between atoms: O_4  and  C_22
REMARK    2  A    between atoms: O_4  and  C_25
REMARK    3  A    between atoms: N_7  and  C_16
REMARK    4  A    between atoms: N_8  and  C_17
REMARK    5  A    between atoms: C_10  and  C_16
REMARK    6  A    between atoms: C_12  and  C_17
REMARK    7  A    between atoms: C_18  and  C_22
REMARK    8  A    between atoms: C_23  and  C_24
REMARK    9  A    between atoms: C_30  and  C_31
REMARK                            x       y       z     vdW  Elec       q    Type
REMARK                         _______ _______ _______ _____ _____    ______ ____
ROOT
ATOM      6  N   UNL     1      -0.535   3.437  24.383  0.00  0.00    -0.298 NA
ATOM      9  C   UNL     1      -2.996   3.830  25.123  0.00  0.00    -0.003 C 
ATOM     10  C   UNL     1      -2.246   2.949  26.148  0.00  0.00    +0.020 C 
ATOM     11  C   UNL     1      -2.934   3.164  23.737  0.00  0.00    +0.024 C 
ATOM     12  C   UNL     1      -1.462   3.083  23.274  0.00  0.00    +0.074 C 
ATOM     13  C   UNL     1      -0.841   2.630  25.588  0.00  0.00    +0.089 C 
ATOM     14  C   UNL     1      -2.225   5.160  25.026  0.00  0.00    +0.019 C 
ATOM     15  C   UNL     1      -0.746   4.866  24.716  0.00  0.00    +0.085 C 
ENDROOT
BRANCH  10  16
ATOM     16  C   UNL     1      -3.006   1.678  26.521  0.00  0.00    +0.089 C 
BRANCH  16   7
ATOM      7  N   UNL     1      -3.136   0.794  25.368  0.00  0.00    -0.297 NA
ATOM     18  C   UNL     1      -4.496   0.269  25.189  0.00  0.00    +0.082 C 
ATOM     19  C   UNL     1      -2.288  -0.392  25.504  0.00  0.00    +0.085 C 
ATOM     20  C   UNL     1      -4.279  -0.905  24.231  0.00  0.00    +0.022 C 
ATOM     21  C   UNL     1      -2.832  -1.336  24.444  0.00  0.00    +0.017 C 
BRANCH  18  22
ATOM     22  C   UNL     1      -5.469   1.292  24.617  0.00  0.00    +0.178 C 
BRANCH  22   4
ATOM      4  O   UNL     1      -6.212   1.855  25.684  0.00  0.00    -0.381 OA
ATOM     25  C   UNL     1      -6.116   3.275  25.701  0.00  0.00    +0.194 C 
ENDBRANCH  22   4
ENDBRANCH  18  22
ENDBRANCH  16   7
ENDBRANCH  10  16
BRANCH  12  17
ATOM     17  C   UNL     1      -1.136   1.723  22.652  0.00  0.00    +0.123 C 
BRANCH  17   8
ATOM      5  O   UNL     1       0.047  -0.851  23.117  0.00  0.00    -0.270 OA
ATOM      8  N   UNL     1       0.283   1.428  22.776  0.00  0.00    -0.310 N 
ATOM     23  C   UNL     1       0.750   0.149  23.000  0.00  0.00    +0.244 C 
ATOM     32  H   UNL     1       0.916   2.222  22.756  0.00  0.00    +0.149 HD
BRANCH  23  24
ATOM     24  C   UNL     1       2.224   0.018  23.129  0.00  0.00    +0.037 A 
ATOM     26  C   UNL     1       3.052   1.086  22.782  0.00  0.00    +0.013 A 
ATOM     27  C   UNL     1       2.781  -1.172  23.596  0.00  0.00    +0.013 A 
ATOM     28  C   UNL     1       4.436   0.963  22.902  0.00  0.00    +0.013 A 
ATOM     29  C   UNL     1       4.165  -1.295  23.717  0.00  0.00    +0.013 A 
ATOM     30  C   UNL     1       4.993  -0.227  23.369  0.00  0.00    +0.055 A 
BRANCH  30  31
ATOM      1  F   UNL     1       7.081  -0.831  22.370  0.00  0.00    -0.166 F 
ATOM      2  F   UNL     1       6.837  -1.216  24.497  0.00  0.00    -0.166 F 
ATOM      3  F   UNL     1       7.105   0.819  23.778  0.00  0.00    -0.166 F 
ATOM     31  C   UNL     1       6.473  -0.359  23.499  0.00  0.00    +0.417 C 
ENDBRANCH  30  31
ENDBRANCH  23  24
ENDBRANCH  17   8
ENDBRANCH  12  17
TORSDOF 8
ENDMDL
MODEL 8
REMARK VINA RESULT:       2.4      1.738      4.189
REMARK  Name = 40779908
REMARK  9 active torsions:
REMARK  status: ('A' for Active; 'I' for Inactive)
REMARK    1  A    between atoms: O_4  and  C_22
REMARK    2  A    between atoms: O_4  and  C_25
REMARK    3  A    between atoms: N_7  and  C_16
REMARK    4  A    between atoms: N_8  and  C_17
REMARK    5  A    between atoms: C_10  and  C_16
REMARK    6  A    between atoms: C_12  and  C_17
REMARK    7  A    between atoms: C_18  and  C_22
REMARK    8  A    between atoms: C_23  and  C_24
REMARK    9  A    between atoms: C_30  and  C_31
REMARK                            x       y       z     vdW  Elec       q    Type
REMARK                         _______ _______ _______ _____ _____    ______ ____
ROOT
ATOM      6  N   UNL     1      -1.294   3.183  24.264  0.00  0.00    -0.298 NA
ATOM      9  C   UNL     1      -3.719   2.900  25.160  0.00  0.00    -0.003 C 
ATOM     10  C   UNL     1      -2.734   2.001  25.941  0.00  0.00    +0.020 C 
ATOM     11  C   UNL     1      -3.639   2.562  23.660  0.00  0.00    +0.024 C 
ATOM     12  C   UNL     1      -2.221   2.882  23.139  0.00  0.00    +0.074 C 
ATOM     13  C   UNL     1      -1.343   2.100  25.275  0.00  0.00    +0.089 C 
ATOM     14  C   UNL     1      -3.230   4.351  25.327  0.00  0.00    +0.019 C 
ATOM     15  C   UNL     1      -1.751   4.439  24.908  0.00  0.00    +0.085 C 
ENDROOT
BRANCH  10  16
ATOM     16  C   UNL     1      -3.202   0.552  26.055  0.00  0.00    +0.089 C 
BRANCH  16   7
ATOM      7  N   UNL     1      -2.300  -0.343  25.340  0.00  0.00    -0.297 NA
ATOM     18  C   UNL     1      -2.959  -1.562  24.850  0.00  0.00    +0.082 C 
ATOM     19  C   UNL     1      -1.220  -0.820  26.206  0.00  0.00    +0.085 C 
ATOM     20  C   UNL     1      -1.775  -2.480  24.537  0.00  0.00    +0.022 C 
ATOM     21  C   UNL     1      -0.640  -1.992  25.431  0.00  0.00    +0.017 C 
BRANCH  18  22
ATOM     22  C   UNL     1      -3.830  -1.327  23.623  0.00  0.00    +0.178 C 
BRANCH  22   4
ATOM      4  O   UNL     1      -4.531  -2.522  23.330  0.00  0.00    -0.381 OA
ATOM     25  C   UNL     1      -4.252  -3.543  24.282  0.00  0.00    +0.194 C 
ENDBRANCH  22   4
ENDBRANCH  18  22
ENDBRANCH  16   7
ENDBRANCH  10  16
BRANCH  12  17
ATOM     17  C   UNL     1      -1.687   1.777  22.225  0.00  0.00    +0.123 C 
BRANCH  17   8
ATOM      5  O   UNL     1      -0.418  -0.783  22.504  0.00  0.00    -0.270 OA
ATOM      8  N   UNL     1      -0.278   1.530  22.484  0.00  0.00    -0.310 N 
ATOM     23  C   UNL     1       0.234   0.253  22.601  0.00  0.00    +0.244 C 
ATOM     32  H   UNL     1       0.305   2.346  22.642  0.00  0.00    +0.149 HD
BRANCH  23  24
ATOM     24  C   UNL     1       1.689   0.171  22.893  0.00  0.00    +0.037 A 
ATOM     26  C   UNL     1       2.253  -1.042  23.290  0.00  0.00    +0.013 A 
ATOM     27  C   UNL     1       2.490   1.305  22.770  0.00  0.00    +0.013 A 
ATOM     28  C   UNL     1       3.618  -1.119  23.564  0.00  0.00    +0.013 A 
ATOM     29  C   UNL     1       3.856   1.228  23.044  0.00  0.00    +0.013 A 
ATOM     30  C   UNL     1       4.419   0.016  23.442  0.00  0.00    +0.055 A 
BRANCH  30  31
ATOM      1  F   UNL     1       6.630  -0.473  22.668  0.00  0.00    -0.166 F 
ATOM      2  F   UNL     1       6.164  -0.946  24.739  0.00  0.00    -0.166 F 
ATOM      3  F   UNL     1       6.427   1.123  24.123  0.00  0.00    -0.166 F 
ATOM     31  C   UNL     1       5.880  -0.066  23.735  0.00  0.00    +0.417 C 
ENDBRANCH  30  31
ENDBRANCH  23  24
ENDBRANCH  17   8
ENDBRANCH  12  17
TORSDOF 8
ENDMDL
MODEL 9
REMARK VINA RESULT:       2.9      2.151      3.969
REMARK  Name = 40779908
REMARK  9 active torsions:
REMARK  status: ('A' for Active; 'I' for Inactive)
REMARK    1  A    between atoms: O_4  and  C_22
REMARK    2  A    between atoms: O_4  and  C_25
REMARK    3  A    between atoms: N_7  and  C_16
REMARK    4  A    between atoms: N_8  and  C_17
REMARK    5  A    between atoms: C_10  and  C_16
REMARK    6  A    between atoms: C_12  and  C_17
REMARK    7  A    between atoms: C_18  and  C_22
REMARK    8  A    between atoms: C_23  and  C_24
REMARK    9  A    between atoms: C_30  and  C_31
REMARK                            x       y       z     vdW  Elec       q    Type
REMARK                         _______ _______ _______ _____ _____    ______ ____
ROOT
ATOM      6  N   UNL     1      -5.743   1.110  24.177  0.00  0.00    -0.298 NA
ATOM      9  C   UNL     1      -4.177   2.445  25.766  0.00  0.00    -0.003 C 
ATOM     10  C   UNL     1      -3.932   2.839  24.292  0.00  0.00    +0.020 C 
ATOM     11  C   UNL     1      -3.970   0.928  25.930  0.00  0.00    +0.024 C 
ATOM     12  C   UNL     1      -5.017   0.175  25.079  0.00  0.00    +0.074 C 
ATOM     13  C   UNL     1      -4.781   1.916  23.389  0.00  0.00    +0.089 C 
ATOM     14  C   UNL     1      -5.658   2.739  26.068  0.00  0.00    +0.019 C 
ATOM     15  C   UNL     1      -6.539   2.033  25.021  0.00  0.00    +0.085 C 
ENDROOT
BRANCH  10  16
ATOM     16  C   UNL     1      -2.456   2.810  23.899  0.00  0.00    +0.089 C 
BRANCH  16   7
ATOM      7  N   UNL     1      -1.603   2.928  25.075  0.00  0.00    -0.297 NA
ATOM     18  C   UNL     1      -0.309   3.566  24.793  0.00  0.00    +0.082 C 
ATOM     19  C   UNL     1      -1.264   1.614  25.626  0.00  0.00    +0.085 C 
ATOM     20  C   UNL     1       0.522   3.195  26.024  0.00  0.00    +0.022 C 
ATOM     21  C   UNL     1      -0.105   1.914  26.562  0.00  0.00    +0.017 C 
BRANCH  18  22
ATOM     22  C   UNL     1      -0.406   5.075  24.611  0.00  0.00    +0.178 C 
BRANCH  22   4
ATOM      4  O   UNL     1      -1.534   5.546  25.326  0.00  0.00    -0.381 OA
ATOM     25  C   UNL     1      -2.344   6.402  24.528  0.00  0.00    +0.194 C 
ENDBRANCH  22   4
ENDBRANCH  18  22
ENDBRANCH  16   7
ENDBRANCH  10  16
BRANCH  12  17
ATOM     17  C   UNL     1      -4.396  -1.001  24.322  0.00  0.00    +0.123 C 
BRANCH  17   8
ATOM      5  O   UNL     1      -2.055  -2.485  25.072  0.00  0.00    -0.270 OA
ATOM      8  N   UNL     1      -3.022  -0.704  23.948  0.00  0.00    -0.310 N 
ATOM     23  C   UNL     1      -1.963  -1.486  24.364  0.00  0.00    +0.244 C 
ATOM     32  H   UNL     1      -2.869   0.148  23.418  0.00  0.00    +0.149 HD
BRANCH  23  24
ATOM     24  C   UNL     1      -0.619  -1.033  23.919  0.00  0.00    +0.037 A 
ATOM     26  C   UNL     1       0.527  -1.571  24.505  0.00  0.00    +0.013 A 
ATOM     27  C   UNL     1      -0.504  -0.071  22.916  0.00  0.00    +0.013 A 
ATOM     28  C   UNL     1       1.788  -1.146  24.087  0.00  0.00    +0.013 A 
ATOM     29  C   UNL     1       0.757   0.354  22.499  0.00  0.00    +0.013 A 
ATOM     30  C   UNL     1       1.903  -0.184  23.084  0.00  0.00    +0.055 A 
BRANCH  30  31
ATOM      1  F   UNL     1       3.562   1.540  23.038  0.00  0.00    -0.166 F 
ATOM      2  F   UNL     1       3.380   0.275  21.278  0.00  0.00    -0.166 F 
ATOM      3  F   UNL     1       4.273  -0.508  23.100  0.00  0.00    -0.166 F 
ATOM     31  C   UNL     1       3.252   0.271  22.637  0.00  0.00    +0.417 C 
ENDBRANCH  30  31
ENDBRANCH  23  24
ENDBRANCH  17   8
ENDBRANCH  12  17
TORSDOF 8
ENDMDL
MODEL 10
REMARK VINA RESULT:       2.9      3.922      7.455
REMARK  Name = 40779908
REMARK  9 active torsions:
REMARK  status: ('A' for Active; 'I' for Inactive)
REMARK    1  A    between atoms: O_4  and  C_22
REMARK    2  A    between atoms: O_4  and  C_25
REMARK    3  A    between atoms: N_7  and  C_16
REMARK    4  A    between atoms: N_8  and  C_17
REMARK    5  A    between atoms: C_10  and  C_16
REMARK    6  A    between atoms: C_12  and  C_17
REMARK    7  A    between atoms: C_18  and  C_22
REMARK    8  A    between atoms: C_23  and  C_24
REMARK    9  A    between atoms: C_30  and  C_31
REMARK                            x       y       z     vdW  Elec       q    Type
REMARK                         _______ _______ _______ _____ _____    ______ ____
ROOT
ATOM      6  N   UNL     1      -2.991   4.938  24.481  0.00  0.00    -0.298 NA
ATOM      9  C   UNL     1      -0.641   4.162  25.279  0.00  0.00    -0.003 C 
ATOM     10  C   UNL     1      -1.139   3.291  24.103  0.00  0.00    +0.020 C 
ATOM     11  C   UNL     1      -1.665   4.102  26.428  0.00  0.00    +0.024 C 
ATOM     12  C   UNL     1      -3.004   4.707  25.951  0.00  0.00    +0.074 C 
ATOM     13  C   UNL     1      -2.591   3.702  23.768  0.00  0.00    +0.089 C 
ATOM     14  C   UNL     1      -0.605   5.617  24.776  0.00  0.00    +0.019 C 
ATOM     15  C   UNL     1      -1.981   5.986  24.193  0.00  0.00    +0.085 C 
ENDROOT
BRANCH  10  16
ATOM     16  C   UNL     1      -1.025   1.793  24.373  0.00  0.00    +0.089 C 
BRANCH  16   7
ATOM      7  N   UNL     1       0.005   1.191  23.533  0.00  0.00    -0.297 NA
ATOM     18  C   UNL     1       0.375  -0.168  23.951  0.00  0.00    +0.082 C 
ATOM     19  C   UNL     1       1.253   1.955  23.584  0.00  0.00    +0.085 C 
ATOM     20  C   UNL     1       1.701  -0.394  23.222  0.00  0.00    +0.022 C 
ATOM     21  C   UNL     1       2.273   0.999  22.988  0.00  0.00    +0.017 C 
BRANCH  18  22
ATOM     22  C   UNL     1      -0.662  -1.220  23.577  0.00  0.00    +0.178 C 
BRANCH  22   4
ATOM      4  O   UNL     1      -0.645  -2.242  24.558  0.00  0.00    -0.381 OA
ATOM     25  C   UNL     1      -0.338  -1.727  25.849  0.00  0.00    +0.194 C 
ENDBRANCH  22   4
ENDBRANCH  18  22
ENDBRANCH  16   7
ENDBRANCH  10  16
BRANCH  12  17
ATOM     17  C   UNL     1      -4.200   3.863  26.397  0.00  0.00    +0.123 C 
BRANCH  17   8
ATOM      5  O   UNL     1      -5.674   2.340  24.461  0.00  0.00    -0.270 OA
ATOM      8  N   UNL     1      -3.999   2.464  26.056  0.00  0.00    -0.310 N 
ATOM     23  C   UNL     1      -4.766   1.821  25.105  0.00  0.00    +0.244 C 
ATOM     32  H   UNL     1      -3.308   1.958  26.601  0.00  0.00    +0.149 HD
BRANCH  23  24
ATOM     24  C   UNL     1      -4.453   0.385  24.892  0.00  0.00    +0.037 A 
ATOM     26  C   UNL     1      -4.619  -0.186  23.630  0.00  0.00    +0.013 A 
ATOM     27  C   UNL     1      -3.995  -0.393  25.955  0.00  0.00    +0.013 A 
ATOM     28  C   UNL     1      -4.325  -1.535  23.431  0.00  0.00    +0.013 A 
ATOM     29  C   UNL     1      -3.701  -1.743  25.755  0.00  0.00    +0.013 A 
ATOM     30  C   UNL     1      -3.867  -2.313  24.493  0.00  0.00    +0.055 A 
BRANCH  30  31
ATOM      1  F   UNL     1      -4.515  -4.428  23.581  0.00  0.00    -0.166 F 
ATOM      2  F   UNL     1      -3.409  -4.439  25.454  0.00  0.00    -0.166 F 
ATOM      3  F   UNL     1      -2.395  -3.967  23.588  0.00  0.00    -0.166 F 
ATOM     31  C   UNL     1      -3.553  -3.756  24.280  0.00  0.00    +0.417 C 
ENDBRANCH  30  31
ENDBRANCH  23  24
ENDBRANCH  17   8
ENDBRANCH  12  17
TORSDOF 8
ENDMDL
