MODEL 1
REMARK VINA RESULT:      -6.7      0.000      0.000
REMARK  Name = 75536880
REMARK  4 active torsions:
REMARK  status: ('A' for Active; 'I' for Inactive)
REMARK    1  A    between atoms: O_2  and  C_7
REMARK    2  A    between atoms: O_2  and  C_14
REMARK    3  A    between atoms: C_12  and  C_13
REMARK    4  A    between atoms: C_16  and  C_17
REMARK                            x       y       z     vdW  Elec       q    Type
REMARK                         _______ _______ _______ _____ _____    ______ ____
ROOT
ATOM      1  O   UNL     1      -2.057   4.980  25.673  0.00  0.00    -0.376 OA
ATOM      3  O   UNL     1       0.457   1.212  24.001  0.00  0.00    -0.268 OA
ATOM      5  N   UNL     1      -1.631   2.265  24.164  0.00  0.00    -0.291 N 
ATOM      7  C   UNL     1      -3.778   3.422  24.919  0.00  0.00    +0.161 C 
ATOM      8  C   UNL     1      -3.071   2.157  24.423  0.00  0.00    +0.142 C 
ATOM      9  C   UNL     1      -1.066   3.593  23.915  0.00  0.00    +0.136 C 
ATOM     10  C   UNL     1      -3.072   4.080  26.104  0.00  0.00    +0.193 C 
ATOM     11  C   UNL     1      -0.861   4.355  25.218  0.00  0.00    +0.179 C 
ATOM     12  C   UNL     1      -0.760   1.163  24.181  0.00  0.00    +0.268 C 
ENDROOT
BRANCH  12  13
ATOM      4  O   UNL     1      -1.397  -2.239  25.058  0.00  0.00    -0.359 OA
ATOM      6  N   UNL     1      -0.563  -1.132  24.958  0.00  0.00    -0.073 NA
ATOM     13  C   UNL     1      -1.327  -0.171  24.431  0.00  0.00    +0.168 A 
ATOM     15  C   UNL     1      -2.639  -0.608  24.181  0.00  0.00    +0.080 A 
ATOM     16  C   UNL     1      -2.631  -1.915  24.592  0.00  0.00    +0.135 A 
ATOM     17  C   UNL     1      -3.644  -2.976  24.626  0.00  0.00    +0.089 C 
ENDBRANCH  12  13
BRANCH   7   2
ATOM      2  O   UNL     1      -5.091   3.031  25.319  0.00  0.00    -0.376 OA
ATOM     14  C   UNL     1      -5.375   1.699  24.920  0.00  0.00    +0.194 C 
ENDBRANCH   7   2
TORSDOF 2
ENDMDL
MODEL 2
REMARK VINA RESULT:      -6.3      1.577      5.769
REMARK  Name = 75536880
REMARK  4 active torsions:
REMARK  status: ('A' for Active; 'I' for Inactive)
REMARK    1  A    between atoms: O_2  and  C_7
REMARK    2  A    between atoms: O_2  and  C_14
REMARK    3  A    between atoms: C_12  and  C_13
REMARK    4  A    between atoms: C_16  and  C_17
REMARK                            x       y       z     vdW  Elec       q    Type
REMARK                         _______ _______ _______ _____ _____    ______ ____
ROOT
ATOM      1  O   UNL     1      -2.417  -2.699  24.835  0.00  0.00    -0.376 OA
ATOM      3  O   UNL     1      -5.337   1.143  24.970  0.00  0.00    -0.268 OA
ATOM      5  N   UNL     1      -3.324   0.232  24.190  0.00  0.00    -0.291 N 
ATOM      7  C   UNL     1      -1.052  -0.900  23.910  0.00  0.00    +0.161 C 
ATOM      8  C   UNL     1      -1.881   0.387  23.969  0.00  0.00    +0.142 C 
ATOM      9  C   UNL     1      -3.944  -1.053  23.859  0.00  0.00    +0.136 C 
ATOM     10  C   UNL     1      -1.312  -1.837  25.087  0.00  0.00    +0.193 C 
ATOM     11  C   UNL     1      -3.694  -2.081  24.955  0.00  0.00    +0.179 C 
ATOM     12  C   UNL     1      -4.132   1.241  24.739  0.00  0.00    +0.268 C 
ENDROOT
BRANCH  12  13
ATOM      4  O   UNL     1      -3.199   4.407  26.100  0.00  0.00    -0.359 OA
ATOM      6  N   UNL     1      -4.011   3.280  26.056  0.00  0.00    -0.073 NA
ATOM     13  C   UNL     1      -3.509   2.532  25.070  0.00  0.00    +0.168 A 
ATOM     15  C   UNL     1      -2.391   3.128  24.462  0.00  0.00    +0.080 A 
ATOM     16  C   UNL     1      -2.238   4.305  25.146  0.00  0.00    +0.135 A 
ATOM     17  C   UNL     1      -1.286   5.418  25.053  0.00  0.00    +0.089 C 
ENDBRANCH  12  13
BRANCH   7   2
ATOM      2  O   UNL     1       0.320  -0.507  23.921  0.00  0.00    -0.376 OA
ATOM     14  C   UNL     1       0.451   0.906  23.897  0.00  0.00    +0.194 C 
ENDBRANCH   7   2
TORSDOF 2
ENDMDL
MODEL 3
REMARK VINA RESULT:      -6.2      1.790      3.438
REMARK  Name = 75536880
REMARK  4 active torsions:
REMARK  status: ('A' for Active; 'I' for Inactive)
REMARK    1  A    between atoms: O_2  and  C_7
REMARK    2  A    between atoms: O_2  and  C_14
REMARK    3  A    between atoms: C_12  and  C_13
REMARK    4  A    between atoms: C_16  and  C_17
REMARK                            x       y       z     vdW  Elec       q    Type
REMARK                         _______ _______ _______ _____ _____    ______ ____
ROOT
ATOM      1  O   UNL     1      -1.286   5.282  25.113  0.00  0.00    -0.376 OA
ATOM      3  O   UNL     1      -5.237   2.508  25.209  0.00  0.00    -0.268 OA
ATOM      5  N   UNL     1      -2.950   2.689  25.690  0.00  0.00    -0.291 N 
ATOM      7  C   UNL     1      -0.425   3.064  25.653  0.00  0.00    +0.161 C 
ATOM      8  C   UNL     1      -1.610   2.093  25.645  0.00  0.00    +0.142 C 
ATOM      9  C   UNL     1      -3.090   4.048  26.217  0.00  0.00    +0.136 C 
ATOM     10  C   UNL     1      -0.550   4.173  24.610  0.00  0.00    +0.193 C 
ATOM     11  C   UNL     1      -2.695   5.084  25.173  0.00  0.00    +0.179 C 
ATOM     12  C   UNL     1      -4.100   2.035  25.219  0.00  0.00    +0.268 C 
ENDROOT
BRANCH  12  13
ATOM      4  O   UNL     1      -3.699  -0.902  23.228  0.00  0.00    -0.359 OA
ATOM      6  N   UNL     1      -3.797   0.476  23.379  0.00  0.00    -0.073 NA
ATOM     13  C   UNL     1      -3.960   0.669  24.690  0.00  0.00    +0.168 A 
ATOM     15  C   UNL     1      -3.973  -0.537  25.411  0.00  0.00    +0.080 A 
ATOM     16  C   UNL     1      -3.806  -1.494  24.445  0.00  0.00    +0.135 A 
ATOM     17  C   UNL     1      -3.724  -2.959  24.471  0.00  0.00    +0.089 C 
ENDBRANCH  12  13
BRANCH   7   2
ATOM      2  O   UNL     1       0.743   2.291  25.373  0.00  0.00    -0.376 OA
ATOM     14  C   UNL     1       0.607   1.574  24.156  0.00  0.00    +0.194 C 
ENDBRANCH   7   2
TORSDOF 2
ENDMDL
MODEL 4
REMARK VINA RESULT:      -5.9      1.413      4.599
REMARK  Name = 75536880
REMARK  4 active torsions:
REMARK  status: ('A' for Active; 'I' for Inactive)
REMARK    1  A    between atoms: O_2  and  C_7
REMARK    2  A    between atoms: O_2  and  C_14
REMARK    3  A    between atoms: C_12  and  C_13
REMARK    4  A    between atoms: C_16  and  C_17
REMARK                            x       y       z     vdW  Elec       q    Type
REMARK                         _______ _______ _______ _____ _____    ______ ____
ROOT
ATOM      1  O   UNL     1       1.031   0.136  23.548  0.00  0.00    -0.376 OA
ATOM      3  O   UNL     1      -1.350   4.132  24.844  0.00  0.00    -0.268 OA
ATOM      5  N   UNL     1      -1.021   1.838  25.197  0.00  0.00    -0.291 N 
ATOM      7  C   UNL     1      -0.749  -0.693  24.998  0.00  0.00    +0.161 C 
ATOM      8  C   UNL     1      -1.603   0.508  25.414  0.00  0.00    +0.142 C 
ATOM      9  C   UNL     1       0.434   1.950  25.080  0.00  0.00    +0.136 C 
ATOM     10  C   UNL     1      -0.201  -0.577  23.577  0.00  0.00    +0.193 C 
ATOM     11  C   UNL     1       0.905   1.548  23.689  0.00  0.00    +0.179 C 
ATOM     12  C   UNL     1      -1.793   3.003  25.057  0.00  0.00    +0.268 C 
ENDROOT
BRANCH  12  13
ATOM      4  O   UNL     1      -5.258   3.351  25.848  0.00  0.00    -0.359 OA
ATOM      6  N   UNL     1      -3.926   3.729  25.970  0.00  0.00    -0.073 NA
ATOM     13  C   UNL     1      -3.255   2.891  25.175  0.00  0.00    +0.168 A 
ATOM     15  C   UNL     1      -4.101   1.971  24.532  0.00  0.00    +0.080 A 
ATOM     16  C   UNL     1      -5.350   2.303  24.989  0.00  0.00    +0.135 A 
ATOM     17  C   UNL     1      -6.696   1.774  24.742  0.00  0.00    +0.089 C 
ENDBRANCH  12  13
BRANCH   7   2
ATOM      2  O   UNL     1      -1.588  -1.844  25.081  0.00  0.00    -0.376 OA
ATOM     14  C   UNL     1      -2.942  -1.480  25.301  0.00  0.00    +0.194 C 
ENDBRANCH   7   2
TORSDOF 2
ENDMDL
MODEL 5
REMARK VINA RESULT:      -5.2      1.505      3.491
REMARK  Name = 75536880
REMARK  4 active torsions:
REMARK  status: ('A' for Active; 'I' for Inactive)
REMARK    1  A    between atoms: O_2  and  C_7
REMARK    2  A    between atoms: O_2  and  C_14
REMARK    3  A    between atoms: C_12  and  C_13
REMARK    4  A    between atoms: C_16  and  C_17
REMARK                            x       y       z     vdW  Elec       q    Type
REMARK                         _______ _______ _______ _____ _____    ______ ____
ROOT
ATOM      1  O   UNL     1      -5.159   3.627  24.715  0.00  0.00    -0.376 OA
ATOM      3  O   UNL     1      -3.676  -0.954  24.347  0.00  0.00    -0.268 OA
ATOM      5  N   UNL     1      -3.263   1.182  25.220  0.00  0.00    -0.291 N 
ATOM      7  C   UNL     1      -2.889   3.677  25.610  0.00  0.00    +0.161 C 
ATOM      8  C   UNL     1      -2.308   2.266  25.478  0.00  0.00    +0.142 C 
ATOM      9  C   UNL     1      -4.666   1.390  25.581  0.00  0.00    +0.136 C 
ATOM     10  C   UNL     1      -3.824   4.052  24.462  0.00  0.00    +0.193 C 
ATOM     11  C   UNL     1      -5.383   2.232  24.533  0.00  0.00    +0.179 C 
ATOM     12  C   UNL     1      -2.905  -0.031  24.610  0.00  0.00    +0.268 C 
ENDROOT
BRANCH  12  13
ATOM      4  O   UNL     1       0.468  -1.151  24.251  0.00  0.00    -0.359 OA
ATOM      6  N   UNL     1      -0.804  -1.240  24.805  0.00  0.00    -0.073 NA
ATOM     13  C   UNL     1      -1.494  -0.241  24.248  0.00  0.00    +0.168 A 
ATOM     15  C   UNL     1      -0.719   0.504  23.343  0.00  0.00    +0.080 A 
ATOM     16  C   UNL     1       0.506  -0.109  23.382  0.00  0.00    +0.135 A 
ATOM     17  C   UNL     1       1.784   0.130  22.701  0.00  0.00    +0.089 C 
ENDBRANCH  12  13
BRANCH   7   2
ATOM      2  O   UNL     1      -1.783   4.579  25.623  0.00  0.00    -0.376 OA
ATOM     14  C   UNL     1      -0.703   4.082  24.848  0.00  0.00    +0.194 C 
ENDBRANCH   7   2
TORSDOF 2
ENDMDL
MODEL 6
REMARK VINA RESULT:      -5.1      1.919      4.036
REMARK  Name = 75536880
REMARK  4 active torsions:
REMARK  status: ('A' for Active; 'I' for Inactive)
REMARK    1  A    between atoms: O_2  and  C_7
REMARK    2  A    between atoms: O_2  and  C_14
REMARK    3  A    between atoms: C_12  and  C_13
REMARK    4  A    between atoms: C_16  and  C_17
REMARK                            x       y       z     vdW  Elec       q    Type
REMARK                         _______ _______ _______ _____ _____    ______ ____
ROOT
ATOM      1  O   UNL     1      -5.242   1.373  24.535  0.00  0.00    -0.376 OA
ATOM      3  O   UNL     1      -1.446  -1.609  24.431  0.00  0.00    -0.268 OA
ATOM      5  N   UNL     1      -2.285   0.483  25.075  0.00  0.00    -0.291 N 
ATOM      7  C   UNL     1      -3.373   2.788  25.214  0.00  0.00    +0.161 C 
ATOM      8  C   UNL     1      -2.101   1.937  25.151  0.00  0.00    +0.142 C 
ATOM      9  C   UNL     1      -3.552  -0.084  25.543  0.00  0.00    +0.136 C 
ATOM     10  C   UNL     1      -4.387   2.436  24.127  0.00  0.00    +0.193 C 
ATOM     11  C   UNL     1      -4.646   0.080  24.496  0.00  0.00    +0.179 C 
ATOM     12  C   UNL     1      -1.322  -0.389  24.542  0.00  0.00    +0.268 C 
ENDROOT
BRANCH  12  13
ATOM      4  O   UNL     1       1.548   1.621  23.854  0.00  0.00    -0.359 OA
ATOM      6  N   UNL     1       0.323   1.400  24.471  0.00  0.00    -0.073 NA
ATOM     13  C   UNL     1      -0.049   0.180  24.073  0.00  0.00    +0.168 A 
ATOM     15  C   UNL     1       0.892  -0.411  23.213  0.00  0.00    +0.080 A 
ATOM     16  C   UNL     1       1.877   0.536  23.108  0.00  0.00    +0.135 A 
ATOM     17  C   UNL     1       3.151   0.601  22.383  0.00  0.00    +0.089 C 
ENDBRANCH  12  13
BRANCH   7   2
ATOM      2  O   UNL     1      -2.967   4.147  25.049  0.00  0.00    -0.376 OA
ATOM     14  C   UNL     1      -1.615   4.331  25.437  0.00  0.00    +0.194 C 
ENDBRANCH   7   2
TORSDOF 2
ENDMDL
MODEL 7
REMARK VINA RESULT:      -4.6      1.663      4.999
REMARK  Name = 75536880
REMARK  4 active torsions:
REMARK  status: ('A' for Active; 'I' for Inactive)
REMARK    1  A    between atoms: O_2  and  C_7
REMARK    2  A    between atoms: O_2  and  C_14
REMARK    3  A    between atoms: C_12  and  C_13
REMARK    4  A    between atoms: C_16  and  C_17
REMARK                            x       y       z     vdW  Elec       q    Type
REMARK                         _______ _______ _______ _____ _____    ______ ____
ROOT
ATOM      1  O   UNL     1      -0.160  -1.476  23.871  0.00  0.00    -0.376 OA
ATOM      3  O   UNL     1      -0.840   3.298  24.109  0.00  0.00    -0.268 OA
ATOM      5  N   UNL     1      -1.351   1.192  25.004  0.00  0.00    -0.291 N 
ATOM      7  C   UNL     1      -2.032  -1.233  25.417  0.00  0.00    +0.161 C 
ATOM      8  C   UNL     1      -2.364   0.259  25.510  0.00  0.00    +0.142 C 
ATOM      9  C   UNL     1       0.036   0.731  24.912  0.00  0.00    +0.136 C 
ATOM     10  C   UNL     1      -1.563  -1.659  24.027  0.00  0.00    +0.193 C 
ATOM     11  C   UNL     1       0.247  -0.126  23.670  0.00  0.00    +0.179 C 
ATOM     12  C   UNL     1      -1.651   2.494  24.569  0.00  0.00    +0.268 C 
ENDROOT
BRANCH  12  13
ATOM      4  O   UNL     1      -5.133   3.162  24.142  0.00  0.00    -0.359 OA
ATOM      6  N   UNL     1      -3.945   2.548  23.765  0.00  0.00    -0.073 NA
ATOM     13  C   UNL     1      -3.044   2.957  24.663  0.00  0.00    +0.168 A 
ATOM     15  C   UNL     1      -3.600   3.823  25.620  0.00  0.00    +0.080 A 
ATOM     16  C   UNL     1      -4.915   3.919  25.248  0.00  0.00    +0.135 A 
ATOM     17  C   UNL     1      -6.072   4.644  25.785  0.00  0.00    +0.089 C 
ENDBRANCH  12  13
BRANCH   7   2
ATOM      2  O   UNL     1      -3.227  -1.943  25.742  0.00  0.00    -0.376 OA
ATOM     14  C   UNL     1      -3.671  -2.733  24.650  0.00  0.00    +0.194 C 
ENDBRANCH   7   2
TORSDOF 2
ENDMDL
MODEL 8
REMARK VINA RESULT:      -4.5     14.658     16.732
REMARK  Name = 75536880
REMARK  4 active torsions:
REMARK  status: ('A' for Active; 'I' for Inactive)
REMARK    1  A    between atoms: O_2  and  C_7
REMARK    2  A    between atoms: O_2  and  C_14
REMARK    3  A    between atoms: C_12  and  C_13
REMARK    4  A    between atoms: C_16  and  C_17
REMARK                            x       y       z     vdW  Elec       q    Type
REMARK                         _______ _______ _______ _____ _____    ______ ____
ROOT
ATOM      1  O   UNL     1      -3.439  -9.092   9.877  0.00  0.00    -0.376 OA
ATOM      3  O   UNL     1      -1.649 -10.305  14.194  0.00  0.00    -0.268 OA
ATOM      5  N   UNL     1      -3.354 -10.616  12.616  0.00  0.00    -0.291 N 
ATOM      7  C   UNL     1      -5.243 -10.364  10.917  0.00  0.00    +0.161 C 
ATOM      8  C   UNL     1      -4.787 -10.744  12.329  0.00  0.00    +0.142 C 
ATOM      9  C   UNL     1      -2.416 -10.623  11.491  0.00  0.00    +0.136 C 
ATOM     10  C   UNL     1      -4.731  -8.997  10.468  0.00  0.00    +0.193 C 
ATOM     11  C   UNL     1      -2.371  -9.264  10.805  0.00  0.00    +0.179 C 
ATOM     12  C   UNL     1      -2.839 -10.448  13.912  0.00  0.00    +0.268 C 
ENDROOT
BRANCH  12  13
ATOM      4  O   UNL     1      -5.651 -10.184  16.097  0.00  0.00    -0.359 OA
ATOM      6  N   UNL     1      -5.052 -10.079  14.847  0.00  0.00    -0.073 NA
ATOM     13  C   UNL     1      -3.781 -10.441  15.042  0.00  0.00    +0.168 A 
ATOM     15  C   UNL     1      -3.521 -10.781  16.380  0.00  0.00    +0.080 A 
ATOM     16  C   UNL     1      -4.729 -10.603  17.002  0.00  0.00    +0.135 A 
ATOM     17  C   UNL     1      -5.195 -10.769  18.383  0.00  0.00    +0.089 C 
ENDBRANCH  12  13
BRANCH   7   2
ATOM      2  O   UNL     1      -6.670 -10.343  10.937  0.00  0.00    -0.376 OA
ATOM     14  C   UNL     1      -7.159  -9.288  11.750  0.00  0.00    +0.194 C 
ENDBRANCH   7   2
TORSDOF 2
ENDMDL
MODEL 9
REMARK VINA RESULT:      -4.0      1.977      4.680
REMARK  Name = 75536880
REMARK  4 active torsions:
REMARK  status: ('A' for Active; 'I' for Inactive)
REMARK    1  A    between atoms: O_2  and  C_7
REMARK    2  A    between atoms: O_2  and  C_14
REMARK    3  A    between atoms: C_12  and  C_13
REMARK    4  A    between atoms: C_16  and  C_17
REMARK                            x       y       z     vdW  Elec       q    Type
REMARK                         _______ _______ _______ _____ _____    ______ ____
ROOT
ATOM      1  O   UNL     1       0.869   0.997  24.254  0.00  0.00    -0.376 OA
ATOM      3  O   UNL     1      -3.737  -0.418  23.953  0.00  0.00    -0.268 OA
ATOM      5  N   UNL     1      -2.200   1.335  23.712  0.00  0.00    -0.291 N 
ATOM      7  C   UNL     1      -0.364   3.087  23.996  0.00  0.00    +0.161 C 
ATOM      8  C   UNL     1      -1.856   2.741  23.952  0.00  0.00    +0.142 C 
ATOM      9  C   UNL     1      -1.206   0.477  23.064  0.00  0.00    +0.136 C 
ATOM     10  C   UNL     1       0.437   2.176  24.924  0.00  0.00    +0.193 C 
ATOM     11  C   UNL     1      -0.146   0.018  24.057  0.00  0.00    +0.179 C 
ATOM     12  C   UNL     1      -3.420   0.762  24.107  0.00  0.00    +0.268 C 
ENDROOT
BRANCH  12  13
ATOM      4  O   UNL     1      -6.100   2.163  26.005  0.00  0.00    -0.359 OA
ATOM      6  N   UNL     1      -5.332   1.089  25.572  0.00  0.00    -0.073 NA
ATOM     13  C   UNL     1      -4.419   1.624  24.757  0.00  0.00    +0.168 A 
ATOM     15  C   UNL     1      -4.560   3.017  24.638  0.00  0.00    +0.080 A 
ATOM     16  C   UNL     1      -5.631   3.306  25.442  0.00  0.00    +0.135 A 
ATOM     17  C   UNL     1      -6.332   4.546  25.794  0.00  0.00    +0.089 C 
ENDBRANCH  12  13
BRANCH   7   2
ATOM      2  O   UNL     1      -0.267   4.432  24.463  0.00  0.00    -0.376 OA
ATOM     14  C   UNL     1      -1.412   4.801  25.215  0.00  0.00    +0.194 C 
ENDBRANCH   7   2
TORSDOF 2
ENDMDL
MODEL 10
REMARK VINA RESULT:      -3.9      1.725      5.529
REMARK  Name = 75536880
REMARK  4 active torsions:
REMARK  status: ('A' for Active; 'I' for Inactive)
REMARK    1  A    between atoms: O_2  and  C_7
REMARK    2  A    between atoms: O_2  and  C_14
REMARK    3  A    between atoms: C_12  and  C_13
REMARK    4  A    between atoms: C_16  and  C_17
REMARK                            x       y       z     vdW  Elec       q    Type
REMARK                         _______ _______ _______ _____ _____    ______ ____
ROOT
ATOM      1  O   UNL     1      -0.944  -2.084  25.179  0.00  0.00    -0.376 OA
ATOM      3  O   UNL     1      -5.406  -0.357  24.533  0.00  0.00    -0.268 OA
ATOM      5  N   UNL     1      -3.120  -0.115  24.076  0.00  0.00    -0.291 N 
ATOM      7  C   UNL     1      -0.578   0.106  24.167  0.00  0.00    +0.161 C 
ATOM      8  C   UNL     1      -1.948   0.764  23.978  0.00  0.00    +0.142 C 
ATOM      9  C   UNL     1      -2.933  -1.550  23.856  0.00  0.00    +0.136 C 
ATOM     10  C   UNL     1      -0.493  -0.756  25.425  0.00  0.00    +0.193 C 
ATOM     11  C   UNL     1      -2.359  -2.226  25.094  0.00  0.00    +0.179 C 
ATOM     12  C   UNL     1      -4.404   0.347  24.409  0.00  0.00    +0.268 C 
ENDROOT
BRANCH  12  13
ATOM      4  O   UNL     1      -4.192   3.911  24.500  0.00  0.00    -0.359 OA
ATOM      6  N   UNL     1      -3.727   2.662  24.104  0.00  0.00    -0.073 NA
ATOM     13  C   UNL     1      -4.591   1.790  24.630  0.00  0.00    +0.168 A 
ATOM     15  C   UNL     1      -5.611   2.422  25.360  0.00  0.00    +0.080 A 
ATOM     16  C   UNL     1      -5.314   3.755  25.247  0.00  0.00    +0.135 A 
ATOM     17  C   UNL     1      -5.942   4.982  25.751  0.00  0.00    +0.089 C 
ENDBRANCH  12  13
BRANCH   7   2
ATOM      2  O   UNL     1       0.377   1.163  24.261  0.00  0.00    -0.376 OA
ATOM     14  C   UNL     1      -0.021   2.132  25.218  0.00  0.00    +0.194 C 
ENDBRANCH   7   2
TORSDOF 2
ENDMDL
