MODEL 1
REMARK VINA RESULT:      -3.7      0.000      0.000
REMARK  Name = 26743189
REMARK  9 active torsions:
REMARK  status: ('A' for Active; 'I' for Inactive)
REMARK    1  A    between atoms: O_3  and  C_20
REMARK    2  A    between atoms: O_3  and  C_24
REMARK    3  A    between atoms: N_5  and  C_19
REMARK    4  A    between atoms: C_8  and  C_14
REMARK    5  A    between atoms: C_9  and  C_13
REMARK    6  A    between atoms: C_13  and  C_15
REMARK    7  A    between atoms: C_14  and  C_16
REMARK    8  A    between atoms: C_18  and  C_20
REMARK    9  A    between atoms: C_19  and  C_21
REMARK                            x       y       z     vdW  Elec       q    Type
REMARK                         _______ _______ _______ _____ _____    ______ ____
ROOT
ATOM      4  N   UNL     1      -4.486  -3.279  24.244  0.00  0.00    -0.316 NA
ATOM      8  C   UNL     1      -2.383  -1.314  24.896  0.00  0.00    +0.004 C 
ATOM      9  C   UNL     1      -3.590  -0.978  23.987  0.00  0.00    +0.012 C 
ATOM     10  C   UNL     1      -2.764  -2.479  25.825  0.00  0.00    +0.019 C 
ATOM     11  C   UNL     1      -4.138  -2.231  23.284  0.00  0.00    +0.085 C 
ATOM     12  C   UNL     1      -3.338  -3.670  25.060  0.00  0.00    +0.081 C 
ATOM     32  H   UNL     1      -4.837  -4.094  23.741  0.00  0.00    +0.122 HD
ENDROOT
BRANCH   9  13
ATOM     13  C   UNL     1      -3.284   0.120  22.968  0.00  0.00    +0.064 C 
BRANCH  13  15
ATOM      2  O   UNL     1      -3.911   3.623  23.510  0.00  0.00    -0.356 OA
ATOM      6  N   UNL     1      -3.469   2.560  22.734  0.00  0.00    -0.083 NA
ATOM     15  C   UNL     1      -3.655   1.476  23.494  0.00  0.00    +0.084 A 
ATOM     17  C   UNL     1      -4.208   1.792  24.747  0.00  0.00    +0.074 A 
ATOM     18  C   UNL     1      -4.349   3.154  24.707  0.00  0.00    +0.175 A 
BRANCH  18  20
ATOM     20  C   UNL     1      -4.856   4.152  25.656  0.00  0.00    +0.306 C 
BRANCH  20   3
ATOM      3  O   UNL     1      -3.796   4.622  26.495  0.00  0.00    -0.484 OA
BRANCH   3  24
ATOM     24  C   UNL     1      -2.524   4.425  26.037  0.00  0.00    +0.121 A 
ATOM     27  C   UNL     1      -1.935   5.360  25.186  0.00  0.00    +0.045 A 
ATOM     28  C   UNL     1      -1.816   3.286  26.418  0.00  0.00    +0.045 A 
ATOM     29  C   UNL     1      -0.637   5.158  24.719  0.00  0.00    +0.004 A 
ATOM     30  C   UNL     1      -0.517   3.083  25.951  0.00  0.00    +0.004 A 
ATOM     31  C   UNL     1       0.073   4.019  25.101  0.00  0.00    +0.000 A 
ENDBRANCH   3  24
ENDBRANCH  20   3
ENDBRANCH  18  20
ENDBRANCH  13  15
ENDBRANCH   9  13
BRANCH   8  14
ATOM     14  C   UNL     1      -1.093  -1.626  24.128  0.00  0.00    +0.099 C 
BRANCH  14  16
ATOM      1  O   UNL     1      -0.273   0.568  24.730  0.00  0.00    -0.276 OA
ATOM      5  N   UNL     1       0.705  -0.568  22.954  0.00  0.00    -0.311 N 
ATOM     16  C   UNL     1      -0.195  -0.415  23.998  0.00  0.00    +0.214 C 
ATOM     33  H   UNL     1       0.678  -1.415  22.395  0.00  0.00    +0.149 HD
BRANCH   5  19
ATOM     19  C   UNL     1       1.681   0.437  22.600  0.00  0.00    +0.141 C 
BRANCH  19  21
ATOM      7  N   UNL     1       4.552  -1.609  23.969  0.00  0.00    -0.263 NA
ATOM     21  C   UNL     1       3.064   0.059  23.049  0.00  0.00    -0.012 A 
ATOM     22  C   UNL     1       4.114   0.968  22.979  0.00  0.00    +0.008 A 
ATOM     23  C   UNL     1       3.333  -1.205  23.547  0.00  0.00    +0.115 A 
ATOM     25  C   UNL     1       5.383   0.590  23.403  0.00  0.00    +0.020 A 
ATOM     26  C   UNL     1       5.547  -0.699  23.886  0.00  0.00    +0.111 A 
ENDBRANCH  19  21
ENDBRANCH   5  19
ENDBRANCH  14  16
ENDBRANCH   8  14
TORSDOF 9
ENDMDL
MODEL 2
REMARK VINA RESULT:      -3.6      1.315      1.643
REMARK  Name = 26743189
REMARK  9 active torsions:
REMARK  status: ('A' for Active; 'I' for Inactive)
REMARK    1  A    between atoms: O_3  and  C_20
REMARK    2  A    between atoms: O_3  and  C_24
REMARK    3  A    between atoms: N_5  and  C_19
REMARK    4  A    between atoms: C_8  and  C_14
REMARK    5  A    between atoms: C_9  and  C_13
REMARK    6  A    between atoms: C_13  and  C_15
REMARK    7  A    between atoms: C_14  and  C_16
REMARK    8  A    between atoms: C_18  and  C_20
REMARK    9  A    between atoms: C_19  and  C_21
REMARK                            x       y       z     vdW  Elec       q    Type
REMARK                         _______ _______ _______ _____ _____    ______ ____
ROOT
ATOM      4  N   UNL     1      -2.672  -3.374  25.510  0.00  0.00    -0.316 NA
ATOM      8  C   UNL     1      -2.021  -0.590  24.779  0.00  0.00    +0.004 C 
ATOM      9  C   UNL     1      -3.475  -1.097  24.930  0.00  0.00    +0.012 C 
ATOM     10  C   UNL     1      -1.089  -1.480  25.619  0.00  0.00    +0.019 C 
ATOM     11  C   UNL     1      -3.581  -2.607  24.659  0.00  0.00    +0.085 C 
ATOM     12  C   UNL     1      -1.281  -2.967  25.324  0.00  0.00    +0.081 C 
ATOM     32  H   UNL     1      -2.765  -4.366  25.296  0.00  0.00    +0.122 HD
ENDROOT
BRANCH   9  13
ATOM     13  C   UNL     1      -4.471  -0.323  24.067  0.00  0.00    +0.064 C 
BRANCH  13  15
ATOM      2  O   UNL     1      -5.776   2.502  25.877  0.00  0.00    -0.356 OA
ATOM      6  N   UNL     1      -5.769   1.154  25.541  0.00  0.00    -0.083 NA
ATOM     15  C   UNL     1      -4.777   1.023  24.655  0.00  0.00    +0.084 A 
ATOM     17  C   UNL     1      -4.130   2.244  24.395  0.00  0.00    +0.074 A 
ATOM     18  C   UNL     1      -4.796   3.141  25.188  0.00  0.00    +0.175 A 
BRANCH  18  20
ATOM     20  C   UNL     1      -4.662   4.583  25.424  0.00  0.00    +0.306 C 
BRANCH  20   3
ATOM      3  O   UNL     1      -3.599   4.839  26.347  0.00  0.00    -0.484 OA
BRANCH   3  24
ATOM     24  C   UNL     1      -2.358   4.401  25.981  0.00  0.00    +0.121 A 
ATOM     27  C   UNL     1      -1.842   3.226  26.527  0.00  0.00    +0.045 A 
ATOM     28  C   UNL     1      -1.605   5.132  25.062  0.00  0.00    +0.045 A 
ATOM     29  C   UNL     1      -0.575   2.780  26.152  0.00  0.00    +0.004 A 
ATOM     30  C   UNL     1      -0.337   4.687  24.688  0.00  0.00    +0.004 A 
ATOM     31  C   UNL     1       0.178   3.510  25.233  0.00  0.00    +0.000 A 
ENDBRANCH   3  24
ENDBRANCH  20   3
ENDBRANCH  18  20
ENDBRANCH  13  15
ENDBRANCH   9  13
BRANCH   8  14
ATOM     14  C   UNL     1      -1.536  -0.510  23.327  0.00  0.00    +0.099 C 
BRANCH  14  16
ATOM      1  O   UNL     1      -0.865   1.798  23.059  0.00  0.00    -0.276 OA
ATOM      5  N   UNL     1       0.747   0.126  22.988  0.00  0.00    -0.311 N 
ATOM     16  C   UNL     1      -0.546   0.614  23.113  0.00  0.00    +0.214 C 
ATOM     33  H   UNL     1       0.906  -0.876  23.031  0.00  0.00    +0.149 HD
BRANCH   5  19
ATOM     19  C   UNL     1       1.894   0.978  22.774  0.00  0.00    +0.141 C 
BRANCH  19  21
ATOM      7  N   UNL     1       4.314  -1.712  23.875  0.00  0.00    -0.263 NA
ATOM     21  C   UNL     1       3.178   0.296  23.152  0.00  0.00    -0.012 A 
ATOM     22  C   UNL     1       4.385   0.985  23.143  0.00  0.00    +0.008 A 
ATOM     23  C   UNL     1       3.196  -1.039  23.522  0.00  0.00    +0.115 A 
ATOM     25  C   UNL     1       5.557   0.327  23.499  0.00  0.00    +0.020 A 
ATOM     26  C   UNL     1       5.468  -1.009  23.854  0.00  0.00    +0.111 A 
ENDBRANCH  19  21
ENDBRANCH   5  19
ENDBRANCH  14  16
ENDBRANCH   8  14
TORSDOF 9
ENDMDL
MODEL 3
REMARK VINA RESULT:      -3.5      2.029      6.222
REMARK  Name = 26743189
REMARK  9 active torsions:
REMARK  status: ('A' for Active; 'I' for Inactive)
REMARK    1  A    between atoms: O_3  and  C_20
REMARK    2  A    between atoms: O_3  and  C_24
REMARK    3  A    between atoms: N_5  and  C_19
REMARK    4  A    between atoms: C_8  and  C_14
REMARK    5  A    between atoms: C_9  and  C_13
REMARK    6  A    between atoms: C_13  and  C_15
REMARK    7  A    between atoms: C_14  and  C_16
REMARK    8  A    between atoms: C_18  and  C_20
REMARK    9  A    between atoms: C_19  and  C_21
REMARK                            x       y       z     vdW  Elec       q    Type
REMARK                         _______ _______ _______ _____ _____    ______ ____
ROOT
ATOM      4  N   UNL     1      -3.473  -3.570  24.496  0.00  0.00    -0.316 NA
ATOM      8  C   UNL     1      -3.887  -0.661  24.220  0.00  0.00    +0.004 C 
ATOM      9  C   UNL     1      -2.640  -1.267  24.906  0.00  0.00    +0.012 C 
ATOM     10  C   UNL     1      -4.471  -1.692  23.238  0.00  0.00    +0.019 C 
ATOM     11  C   UNL     1      -2.936  -2.654  25.502  0.00  0.00    +0.085 C 
ATOM     12  C   UNL     1      -4.700  -3.054  23.891  0.00  0.00    +0.081 C 
ATOM     32  H   UNL     1      -3.664  -4.473  24.929  0.00  0.00    +0.122 HD
ENDROOT
BRANCH   9  13
ATOM     13  C   UNL     1      -2.031  -0.346  25.963  0.00  0.00    +0.064 C 
BRANCH  13  15
ATOM      2  O   UNL     1       0.619   1.999  25.300  0.00  0.00    -0.356 OA
ATOM      6  N   UNL     1      -0.409   1.496  26.087  0.00  0.00    -0.083 NA
ATOM     15  C   UNL     1      -0.892   0.455  25.403  0.00  0.00    +0.084 A 
ATOM     17  C   UNL     1      -0.214   0.254  24.188  0.00  0.00    +0.074 A 
ATOM     18  C   UNL     1       0.726   1.251  24.171  0.00  0.00    +0.175 A 
BRANCH  18  20
ATOM     20  C   UNL     1       1.771   1.647  23.220  0.00  0.00    +0.306 C 
BRANCH  20   3
ATOM      3  O   UNL     1       2.317   0.494  22.574  0.00  0.00    -0.484 OA
BRANCH   3  24
ATOM     24  C   UNL     1       3.511   0.035  23.055  0.00  0.00    +0.121 A 
ATOM     27  C   UNL     1       3.619  -1.273  23.524  0.00  0.00    +0.045 A 
ATOM     28  C   UNL     1       4.622   0.878  23.079  0.00  0.00    +0.045 A 
ATOM     29  C   UNL     1       4.838  -1.741  24.015  0.00  0.00    +0.004 A 
ATOM     30  C   UNL     1       5.842   0.412  23.570  0.00  0.00    +0.004 A 
ATOM     31  C   UNL     1       5.949  -0.898  24.038  0.00  0.00    +0.000 A 
ENDBRANCH   3  24
ENDBRANCH  20   3
ENDBRANCH  18  20
ENDBRANCH  13  15
ENDBRANCH   9  13
BRANCH   8  14
ATOM     14  C   UNL     1      -4.961  -0.172  25.199  0.00  0.00    +0.099 C 
BRANCH  14  16
ATOM      1  O   UNL     1      -6.250   1.798  24.644  0.00  0.00    -0.276 OA
ATOM      5  N   UNL     1      -4.114   2.044  25.524  0.00  0.00    -0.311 N 
ATOM     16  C   UNL     1      -5.208   1.317  25.081  0.00  0.00    +0.214 C 
ATOM     33  H   UNL     1      -3.289   1.550  25.853  0.00  0.00    +0.149 HD
BRANCH   5  19
ATOM     19  C   UNL     1      -4.073   3.488  25.523  0.00  0.00    +0.141 C 
BRANCH  19  21
ATOM      7  N   UNL     1      -1.037   3.865  23.300  0.00  0.00    -0.263 NA
ATOM     21  C   UNL     1      -2.780   4.013  24.969  0.00  0.00    -0.012 A 
ATOM     22  C   UNL     1      -2.126   5.085  25.567  0.00  0.00    +0.008 A 
ATOM     23  C   UNL     1      -2.199   3.443  23.848  0.00  0.00    +0.115 A 
ATOM     25  C   UNL     1      -0.929   5.548  25.032  0.00  0.00    +0.020 A 
ATOM     26  C   UNL     1      -0.432   4.909  23.907  0.00  0.00    +0.111 A 
ENDBRANCH  19  21
ENDBRANCH   5  19
ENDBRANCH  14  16
ENDBRANCH   8  14
TORSDOF 9
ENDMDL
MODEL 4
REMARK VINA RESULT:      -2.9      1.623      3.217
REMARK  Name = 26743189
REMARK  9 active torsions:
REMARK  status: ('A' for Active; 'I' for Inactive)
REMARK    1  A    between atoms: O_3  and  C_20
REMARK    2  A    between atoms: O_3  and  C_24
REMARK    3  A    between atoms: N_5  and  C_19
REMARK    4  A    between atoms: C_8  and  C_14
REMARK    5  A    between atoms: C_9  and  C_13
REMARK    6  A    between atoms: C_13  and  C_15
REMARK    7  A    between atoms: C_14  and  C_16
REMARK    8  A    between atoms: C_18  and  C_20
REMARK    9  A    between atoms: C_19  and  C_21
REMARK                            x       y       z     vdW  Elec       q    Type
REMARK                         _______ _______ _______ _____ _____    ______ ____
ROOT
ATOM      4  N   UNL     1      -3.365  -1.367  25.616  0.00  0.00    -0.316 NA
ATOM      8  C   UNL     1      -0.610  -1.036  24.614  0.00  0.00    +0.004 C 
ATOM      9  C   UNL     1      -1.036  -0.621  26.042  0.00  0.00    +0.012 C 
ATOM     10  C   UNL     1      -1.567  -2.125  24.101  0.00  0.00    +0.019 C 
ATOM     11  C   UNL     1      -2.532  -0.271  26.110  0.00  0.00    +0.085 C 
ATOM     12  C   UNL     1      -3.035  -1.723  24.238  0.00  0.00    +0.081 C 
ATOM     32  H   UNL     1      -4.347  -1.095  25.669  0.00  0.00    +0.122 HD
ENDROOT
BRANCH   9  13
ATOM     13  C   UNL     1      -0.190   0.518  26.612  0.00  0.00    +0.064 C 
BRANCH  13  15
ATOM      2  O   UNL     1      -0.306   3.618  24.785  0.00  0.00    -0.356 OA
ATOM      6  N   UNL     1       0.334   2.455  25.193  0.00  0.00    -0.083 NA
ATOM     15  C   UNL     1      -0.547   1.833  25.983  0.00  0.00    +0.084 A 
ATOM     17  C   UNL     1      -1.750   2.550  26.107  0.00  0.00    +0.074 A 
ATOM     18  C   UNL     1      -1.547   3.664  25.336  0.00  0.00    +0.175 A 
BRANCH  18  20
ATOM     20  C   UNL     1      -2.367   4.835  25.007  0.00  0.00    +0.306 C 
BRANCH  20   3
ATOM      3  O   UNL     1      -3.425   4.467  24.117  0.00  0.00    -0.484 OA
BRANCH   3  24
ATOM     24  C   UNL     1      -4.275   3.490  24.555  0.00  0.00    +0.121 A 
ATOM     27  C   UNL     1      -4.304   2.252  23.914  0.00  0.00    +0.045 A 
ATOM     28  C   UNL     1      -5.114   3.732  25.641  0.00  0.00    +0.045 A 
ATOM     29  C   UNL     1      -5.171   1.255  24.361  0.00  0.00    +0.004 A 
ATOM     30  C   UNL     1      -5.982   2.736  26.089  0.00  0.00    +0.004 A 
ATOM     31  C   UNL     1      -6.010   1.497  25.448  0.00  0.00    +0.000 A 
ENDBRANCH   3  24
ENDBRANCH  20   3
ENDBRANCH  18  20
ENDBRANCH  13  15
ENDBRANCH   9  13
BRANCH   8  14
ATOM     14  C   UNL     1      -0.530   0.131  23.623  0.00  0.00    +0.099 C 
BRANCH  14  16
ATOM      1  O   UNL     1       0.819  -0.712  21.801  0.00  0.00    -0.276 OA
ATOM      5  N   UNL     1       1.667   0.966  23.167  0.00  0.00    -0.311 N 
ATOM     16  C   UNL     1       0.704   0.059  22.750  0.00  0.00    +0.214 C 
ATOM     33  H   UNL     1       1.482   1.550  23.976  0.00  0.00    +0.149 HD
BRANCH   5  19
ATOM     19  C   UNL     1       2.948   1.112  22.515  0.00  0.00    +0.141 C 
BRANCH  19  21
ATOM      7  N   UNL     1       4.685  -1.887  24.028  0.00  0.00    -0.263 NA
ATOM     21  C   UNL     1       4.007   0.265  23.161  0.00  0.00    -0.012 A 
ATOM     22  C   UNL     1       5.248   0.798  23.493  0.00  0.00    +0.008 A 
ATOM     23  C   UNL     1       3.778  -1.071  23.447  0.00  0.00    +0.115 A 
ATOM     25  C   UNL     1       6.207  -0.011  24.092  0.00  0.00    +0.020 A 
ATOM     26  C   UNL     1       5.879  -1.335  24.336  0.00  0.00    +0.111 A 
ENDBRANCH  19  21
ENDBRANCH   5  19
ENDBRANCH  14  16
ENDBRANCH   8  14
TORSDOF 9
ENDMDL
MODEL 5
REMARK VINA RESULT:       0.3      1.816      5.833
REMARK  Name = 26743189
REMARK  9 active torsions:
REMARK  status: ('A' for Active; 'I' for Inactive)
REMARK    1  A    between atoms: O_3  and  C_20
REMARK    2  A    between atoms: O_3  and  C_24
REMARK    3  A    between atoms: N_5  and  C_19
REMARK    4  A    between atoms: C_8  and  C_14
REMARK    5  A    between atoms: C_9  and  C_13
REMARK    6  A    between atoms: C_13  and  C_15
REMARK    7  A    between atoms: C_14  and  C_16
REMARK    8  A    between atoms: C_18  and  C_20
REMARK    9  A    between atoms: C_19  and  C_21
REMARK                            x       y       z     vdW  Elec       q    Type
REMARK                         _______ _______ _______ _____ _____    ______ ____
ROOT
ATOM      4  N   UNL     1       3.611   1.034  22.009  0.00  0.00    -0.316 NA
ATOM      8  C   UNL     1       0.979   0.083  22.943  0.00  0.00    +0.004 C 
ATOM      9  C   UNL     1       1.617   1.401  23.442  0.00  0.00    +0.012 C 
ATOM     10  C   UNL     1       1.556  -0.264  21.561  0.00  0.00    +0.019 C 
ATOM     11  C   UNL     1       3.152   1.356  23.360  0.00  0.00    +0.085 C 
ATOM     12  C   UNL     1       3.084  -0.249  21.547  0.00  0.00    +0.081 C 
ATOM     32  H   UNL     1       4.630   1.005  21.996  0.00  0.00    +0.122 HD
ENDROOT
BRANCH   9  13
ATOM     13  C   UNL     1       1.165   1.790  24.849  0.00  0.00    +0.064 C 
BRANCH  13  15
ATOM      2  O   UNL     1      -0.905   4.629  24.065  0.00  0.00    -0.356 OA
ATOM      6  N   UNL     1       0.136   3.753  23.787  0.00  0.00    -0.083 NA
ATOM     15  C   UNL     1       0.152   2.898  24.813  0.00  0.00    +0.084 A 
ATOM     17  C   UNL     1      -0.849   3.181  25.759  0.00  0.00    +0.074 A 
ATOM     18  C   UNL     1      -1.485   4.279  25.242  0.00  0.00    +0.175 A 
BRANCH  18  20
ATOM     20  C   UNL     1      -2.611   5.105  25.690  0.00  0.00    +0.306 C 
BRANCH  20   3
ATOM      3  O   UNL     1      -3.480   4.345  26.536  0.00  0.00    -0.484 OA
BRANCH   3  24
ATOM     24  C   UNL     1      -4.369   3.519  25.909  0.00  0.00    +0.121 A 
ATOM     27  C   UNL     1      -4.257   3.281  24.540  0.00  0.00    +0.045 A 
ATOM     28  C   UNL     1      -5.392   2.915  26.640  0.00  0.00    +0.045 A 
ATOM     29  C   UNL     1      -5.164   2.437  23.901  0.00  0.00    +0.004 A 
ATOM     30  C   UNL     1      -6.301   2.070  26.002  0.00  0.00    +0.004 A 
ATOM     31  C   UNL     1      -6.187   1.832  24.632  0.00  0.00    +0.000 A 
ENDBRANCH   3  24
ENDBRANCH  20   3
ENDBRANCH  18  20
ENDBRANCH  13  15
ENDBRANCH   9  13
BRANCH   8  14
ATOM     14  C   UNL     1       1.141  -1.094  23.913  0.00  0.00    +0.099 C 
BRANCH  14  16
ATOM      1  O   UNL     1      -0.824  -2.505  23.955  0.00  0.00    -0.276 OA
ATOM      5  N   UNL     1      -0.577  -0.845  25.562  0.00  0.00    -0.311 N 
ATOM     16  C   UNL     1      -0.187  -1.580  24.452  0.00  0.00    +0.214 C 
ATOM     33  H   UNL     1       0.014  -0.085  25.887  0.00  0.00    +0.149 HD
BRANCH   5  19
ATOM     19  C   UNL     1      -1.807  -1.091  26.280  0.00  0.00    +0.141 C 
BRANCH  19  21
ATOM      7  N   UNL     1      -4.189  -3.362  24.418  0.00  0.00    -0.263 NA
ATOM     21  C   UNL     1      -2.909  -1.544  25.366  0.00  0.00    -0.012 A 
ATOM     22  C   UNL     1      -3.656  -0.627  24.634  0.00  0.00    +0.008 A 
ATOM     23  C   UNL     1      -3.213  -2.888  25.224  0.00  0.00    +0.115 A 
ATOM     25  C   UNL     1      -4.669  -1.077  23.795  0.00  0.00    +0.020 A 
ATOM     26  C   UNL     1      -4.893  -2.442  23.724  0.00  0.00    +0.111 A 
ENDBRANCH  19  21
ENDBRANCH   5  19
ENDBRANCH  14  16
ENDBRANCH   8  14
TORSDOF 9
ENDMDL
