MODEL 1
REMARK VINA RESULT:       1.4      0.000      0.000
REMARK  Name = 51138059
REMARK  10 active torsions:
REMARK  status: ('A' for Active; 'I' for Inactive)
REMARK    1  A    between atoms: N_3  and  C_19
REMARK    2  A    between atoms: N_4  and  C_23
REMARK    3  A    between atoms: C_6  and  C_10
REMARK    4  A    between atoms: C_8  and  C_17
REMARK    5  A    between atoms: C_10  and  C_14
REMARK    6  A    between atoms: C_14  and  C_21
REMARK    7  A    between atoms: C_14  and  C_22
REMARK    8  A    between atoms: C_19  and  C_24
REMARK    9  A    between atoms: C_23  and  C_25
REMARK   10  A    between atoms: C_23  and  C_26
REMARK                            x       y       z     vdW  Elec       q    Type
REMARK                         _______ _______ _______ _____ _____    ______ ____
ROOT
ATOM      2  N   UNL     1      -3.066   1.204  25.357  0.00  0.00    -0.299 NA
ATOM      3  N   UNL     1       1.228   0.184  22.903  0.00  0.00    -0.341 N 
ATOM      6  C   UNL     1      -2.562  -0.046  25.940  0.00  0.00    +0.085 C 
ATOM      7  C   UNL     1      -1.352  -0.672  25.238  0.00  0.00    -0.021 A 
ATOM      8  C   UNL     1      -2.133   2.320  25.411  0.00  0.00    +0.145 C 
ATOM      9  C   UNL     1      -0.498   0.003  24.318  0.00  0.00    +0.008 A 
ATOM     11  C   UNL     1      -1.368   2.477  24.098  0.00  0.00    +0.065 C 
ATOM     12  C   UNL     1      -0.451   1.341  23.793  0.00  0.00    -0.020 A 
ATOM     13  C   UNL     1       0.586  -0.682  23.755  0.00  0.00    +0.050 A 
ATOM     15  C   UNL     1       0.617   1.404  22.922  0.00  0.00    +0.091 A 
ATOM     16  C   UNL     1      -0.989  -2.002  25.569  0.00  0.00    +0.006 A 
ATOM     18  C   UNL     1       0.899  -2.007  24.059  0.00  0.00    +0.026 A 
ATOM     20  C   UNL     1       0.098  -2.654  24.990  0.00  0.00    +0.002 A 
ATOM     31  H   UNL     1      -3.404   1.053  24.408  0.00  0.00    +0.123 HD
ENDROOT
BRANCH   8  17
ATOM      1  O   UNL     1      -2.493   4.638  25.849  0.00  0.00    -0.274 OA
ATOM      4  N   UNL     1      -4.337   3.242  25.578  0.00  0.00    -0.312 N 
ATOM     17  C   UNL     1      -2.984   3.534  25.631  0.00  0.00    +0.231 C 
ATOM     32  H   UNL     1      -4.629   2.302  25.326  0.00  0.00    +0.149 HD
BRANCH   4  23
ATOM     23  C   UNL     1      -5.368   4.235  25.780  0.00  0.00    +0.067 C 
ATOM     25  C   UNL     1      -5.345   5.264  24.658  0.00  0.00    +0.027 C 
ATOM     26  C   UNL     1      -6.733   3.565  25.887  0.00  0.00    +0.027 C 
ENDBRANCH   4  23
ENDBRANCH   8  17
BRANCH   6  10
ATOM     10  C   UNL     1      -3.782  -0.985  25.963  0.00  0.00    +0.026 C 
BRANCH  10  14
ATOM     14  C   UNL     1      -4.344  -1.270  24.567  0.00  0.00    -0.015 C 
ATOM     21  C   UNL     1      -3.852  -0.271  23.519  0.00  0.00    +0.007 C 
ATOM     22  C   UNL     1      -3.956  -2.691  24.148  0.00  0.00    +0.007 C 
ENDBRANCH  10  14
ENDBRANCH   6  10
BRANCH   3  19
ATOM     19  C   UNL     1       2.396  -0.127  22.107  0.00  0.00    +0.177 C 
BRANCH  19  24
ATOM      5  N   UNL     1       3.981  -1.394  23.455  0.00  0.00    -0.258 NA
ATOM     24  C   UNL     1       3.669  -0.195  22.913  0.00  0.00    +0.061 A 
ATOM     27  C   UNL     1       4.441   0.946  23.057  0.00  0.00    +0.025 A 
ATOM     28  C   UNL     1       5.609   0.850  23.807  0.00  0.00    +0.003 A 
ATOM     29  C   UNL     1       5.123  -1.448  24.175  0.00  0.00    +0.111 A 
ATOM     30  C   UNL     1       5.964  -0.366  24.379  0.00  0.00    +0.020 A 
ENDBRANCH  19  24
ENDBRANCH   3  19
TORSDOF 6
ENDMDL
MODEL 2
REMARK VINA RESULT:       2.4      1.693      2.502
REMARK  Name = 51138059
REMARK  10 active torsions:
REMARK  status: ('A' for Active; 'I' for Inactive)
REMARK    1  A    between atoms: N_3  and  C_19
REMARK    2  A    between atoms: N_4  and  C_23
REMARK    3  A    between atoms: C_6  and  C_10
REMARK    4  A    between atoms: C_8  and  C_17
REMARK    5  A    between atoms: C_10  and  C_14
REMARK    6  A    between atoms: C_14  and  C_21
REMARK    7  A    between atoms: C_14  and  C_22
REMARK    8  A    between atoms: C_19  and  C_24
REMARK    9  A    between atoms: C_23  and  C_25
REMARK   10  A    between atoms: C_23  and  C_26
REMARK                            x       y       z     vdW  Elec       q    Type
REMARK                         _______ _______ _______ _____ _____    ______ ____
ROOT
ATOM      2  N   UNL     1      -3.450   1.915  24.932  0.00  0.00    -0.299 NA
ATOM      3  N   UNL     1       0.584  -0.796  23.557  0.00  0.00    -0.341 N 
ATOM      6  C   UNL     1      -3.750   0.530  25.319  0.00  0.00    +0.085 C 
ATOM      7  C   UNL     1      -2.751  -0.530  24.842  0.00  0.00    -0.021 A 
ATOM      8  C   UNL     1      -2.219   2.451  25.495  0.00  0.00    +0.145 C 
ATOM      9  C   UNL     1      -1.433  -0.262  24.372  0.00  0.00    +0.008 A 
ATOM     11  C   UNL     1      -1.055   2.339  24.512  0.00  0.00    +0.065 C 
ATOM     12  C   UNL     1      -0.653   0.935  24.208  0.00  0.00    -0.020 A 
ATOM     13  C   UNL     1      -0.613  -1.326  23.977  0.00  0.00    +0.050 A 
ATOM     15  C   UNL     1       0.573   0.561  23.697  0.00  0.00    +0.091 A 
ATOM     16  C   UNL     1      -3.115  -1.897  24.937  0.00  0.00    +0.006 A 
ATOM     18  C   UNL     1      -1.007  -2.663  24.034  0.00  0.00    +0.026 A 
ATOM     20  C   UNL     1      -2.274  -2.932  24.536  0.00  0.00    +0.002 A 
ATOM     31  H   UNL     1      -3.467   2.022  23.919  0.00  0.00    +0.123 HD
ENDROOT
BRANCH   8  17
ATOM      1  O   UNL     1      -3.300   4.257  26.620  0.00  0.00    -0.274 OA
ATOM      4  N   UNL     1      -1.794   4.733  24.909  0.00  0.00    -0.312 N 
ATOM     17  C   UNL     1      -2.504   3.899  25.756  0.00  0.00    +0.231 C 
ATOM     32  H   UNL     1      -1.112   4.326  24.274  0.00  0.00    +0.149 HD
BRANCH   4  23
ATOM     23  C   UNL     1      -1.907   6.174  24.942  0.00  0.00    +0.067 C 
ATOM     25  C   UNL     1      -0.527   6.819  24.914  0.00  0.00    +0.027 C 
ATOM     26  C   UNL     1      -2.769   6.662  23.785  0.00  0.00    +0.027 C 
ENDBRANCH   4  23
ENDBRANCH   8  17
BRANCH   6  10
ATOM     10  C   UNL     1      -5.174   0.278  24.791  0.00  0.00    +0.026 C 
BRANCH  10  14
ATOM     14  C   UNL     1      -6.153   1.400  25.154  0.00  0.00    -0.015 C 
ATOM     21  C   UNL     1      -6.268   1.615  26.664  0.00  0.00    +0.007 C 
ATOM     22  C   UNL     1      -5.703   2.699  24.480  0.00  0.00    +0.007 C 
ENDBRANCH  10  14
ENDBRANCH   6  10
BRANCH   3  19
ATOM     19  C   UNL     1       1.712  -1.552  23.056  0.00  0.00    +0.177 C 
BRANCH  19  24
ATOM      5  N   UNL     1       3.995  -1.469  23.900  0.00  0.00    -0.258 NA
ATOM     24  C   UNL     1       3.028  -0.831  23.203  0.00  0.00    +0.061 A 
ATOM     27  C   UNL     1       3.183   0.421  22.630  0.00  0.00    +0.025 A 
ATOM     28  C   UNL     1       4.410   1.059  22.783  0.00  0.00    +0.003 A 
ATOM     29  C   UNL     1       5.173  -0.819  24.027  0.00  0.00    +0.111 A 
ATOM     30  C   UNL     1       5.428   0.434  23.492  0.00  0.00    +0.020 A 
ENDBRANCH  19  24
ENDBRANCH   3  19
TORSDOF 6
ENDMDL
MODEL 3
REMARK VINA RESULT:       3.5      2.031      7.567
REMARK  Name = 51138059
REMARK  10 active torsions:
REMARK  status: ('A' for Active; 'I' for Inactive)
REMARK    1  A    between atoms: N_3  and  C_19
REMARK    2  A    between atoms: N_4  and  C_23
REMARK    3  A    between atoms: C_6  and  C_10
REMARK    4  A    between atoms: C_8  and  C_17
REMARK    5  A    between atoms: C_10  and  C_14
REMARK    6  A    between atoms: C_14  and  C_21
REMARK    7  A    between atoms: C_14  and  C_22
REMARK    8  A    between atoms: C_19  and  C_24
REMARK    9  A    between atoms: C_23  and  C_25
REMARK   10  A    between atoms: C_23  and  C_26
REMARK                            x       y       z     vdW  Elec       q    Type
REMARK                         _______ _______ _______ _____ _____    ______ ____
ROOT
ATOM      2  N   UNL     1       0.665  -0.783  23.399  0.00  0.00    -0.299 NA
ATOM      3  N   UNL     1      -1.784   3.275  25.142  0.00  0.00    -0.341 N 
ATOM      6  C   UNL     1      -0.759  -1.032  23.134  0.00  0.00    +0.085 C 
ATOM      7  C   UNL     1      -1.739  -0.022  23.737  0.00  0.00    -0.021 A 
ATOM      8  C   UNL     1       1.184   0.450  22.826  0.00  0.00    +0.145 C 
ATOM      9  C   UNL     1      -1.389   1.273  24.220  0.00  0.00    +0.008 A 
ATOM     11  C   UNL     1       1.199   1.583  23.850  0.00  0.00    +0.065 C 
ATOM     12  C   UNL     1      -0.158   2.013  24.296  0.00  0.00    -0.020 A 
ATOM     13  C   UNL     1      -2.387   2.108  24.738  0.00  0.00    +0.050 A 
ATOM     15  C   UNL     1      -0.446   3.231  24.877  0.00  0.00    +0.091 A 
ATOM     16  C   UNL     1      -3.119  -0.345  23.759  0.00  0.00    +0.006 A 
ATOM     18  C   UNL     1      -3.734   1.752  24.793  0.00  0.00    +0.026 A 
ATOM     20  C   UNL     1      -4.087   0.511  24.280  0.00  0.00    +0.002 A 
ATOM     31  H   UNL     1       0.864  -0.838  24.397  0.00  0.00    +0.123 HD
ENDROOT
BRANCH   8  17
ATOM      1  O   UNL     1       2.903  -0.056  21.250  0.00  0.00    -0.274 OA
ATOM      4  N   UNL     1       3.446   0.069  23.511  0.00  0.00    -0.312 N 
ATOM     17  C   UNL     1       2.592   0.134  22.423  0.00  0.00    +0.231 C 
ATOM     32  H   UNL     1       3.090   0.309  24.432  0.00  0.00    +0.149 HD
BRANCH   4  23
ATOM     23  C   UNL     1       4.853  -0.242  23.393  0.00  0.00    +0.067 C 
ATOM     25  C   UNL     1       5.696   0.839  24.057  0.00  0.00    +0.027 C 
ATOM     26  C   UNL     1       5.143  -1.613  23.991  0.00  0.00    +0.027 C 
ENDBRANCH   4  23
ENDBRANCH   8  17
BRANCH   6  10
ATOM     10  C   UNL     1      -1.003  -2.466  23.638  0.00  0.00    +0.026 C 
BRANCH  10  14
ATOM     14  C   UNL     1      -1.236  -2.537  25.151  0.00  0.00    -0.015 C 
ATOM     21  C   UNL     1      -0.668  -1.325  25.890  0.00  0.00    +0.007 C 
ATOM     22  C   UNL     1      -2.737  -2.653  25.425  0.00  0.00    +0.007 C 
ENDBRANCH  10  14
ENDBRANCH   6  10
BRANCH   3  19
ATOM     19  C   UNL     1      -2.455   4.405  25.747  0.00  0.00    +0.177 C 
BRANCH  19  24
ATOM      5  N   UNL     1      -4.435   3.306  26.644  0.00  0.00    -0.258 NA
ATOM     24  C   UNL     1      -3.955   4.250  25.804  0.00  0.00    +0.061 A 
ATOM     27  C   UNL     1      -4.751   5.062  25.013  0.00  0.00    +0.025 A 
ATOM     28  C   UNL     1      -6.129   4.894  25.090  0.00  0.00    +0.003 A 
ATOM     29  C   UNL     1      -5.779   3.172  26.692  0.00  0.00    +0.111 A 
ATOM     30  C   UNL     1      -6.661   3.934  25.942  0.00  0.00    +0.020 A 
ENDBRANCH  19  24
ENDBRANCH   3  19
TORSDOF 6
ENDMDL
MODEL 4
REMARK VINA RESULT:       4.4      1.865      4.607
REMARK  Name = 51138059
REMARK  10 active torsions:
REMARK  status: ('A' for Active; 'I' for Inactive)
REMARK    1  A    between atoms: N_3  and  C_19
REMARK    2  A    between atoms: N_4  and  C_23
REMARK    3  A    between atoms: C_6  and  C_10
REMARK    4  A    between atoms: C_8  and  C_17
REMARK    5  A    between atoms: C_10  and  C_14
REMARK    6  A    between atoms: C_14  and  C_21
REMARK    7  A    between atoms: C_14  and  C_22
REMARK    8  A    between atoms: C_19  and  C_24
REMARK    9  A    between atoms: C_23  and  C_25
REMARK   10  A    between atoms: C_23  and  C_26
REMARK                            x       y       z     vdW  Elec       q    Type
REMARK                         _______ _______ _______ _____ _____    ______ ____
ROOT
ATOM      2  N   UNL     1      -3.485   1.316  25.226  0.00  0.00    -0.299 NA
ATOM      3  N   UNL     1       1.206   1.935  23.461  0.00  0.00    -0.341 N 
ATOM      6  C   UNL     1      -3.331   2.760  25.004  0.00  0.00    +0.085 C 
ATOM      7  C   UNL     1      -1.920   3.233  24.638  0.00  0.00    -0.021 A 
ATOM      8  C   UNL     1      -3.234   0.490  24.054  0.00  0.00    +0.145 C 
ATOM      9  C   UNL     1      -0.867   2.393  24.175  0.00  0.00    +0.008 A 
ATOM     11  C   UNL     1      -1.810  -0.062  24.049  0.00  0.00    +0.065 C 
ATOM     12  C   UNL     1      -0.757   0.985  23.904  0.00  0.00    -0.020 A 
ATOM     13  C   UNL     1       0.376   2.955  23.861  0.00  0.00    +0.050 A 
ATOM     15  C   UNL     1       0.534   0.748  23.478  0.00  0.00    +0.091 A 
ATOM     16  C   UNL     1      -1.638   4.622  24.682  0.00  0.00    +0.006 A 
ATOM     18  C   UNL     1       0.648   4.320  23.955  0.00  0.00    +0.026 A 
ATOM     20  C   UNL     1      -0.390   5.150  24.360  0.00  0.00    +0.002 A 
ATOM     31  H   UNL     1      -2.926   1.007  26.020  0.00  0.00    +0.123 HD
ENDROOT
BRANCH   8  17
ATOM      1  O   UNL     1      -5.411  -0.465  24.274  0.00  0.00    -0.274 OA
ATOM      4  N   UNL     1      -3.566  -1.880  24.139  0.00  0.00    -0.312 N 
ATOM     17  C   UNL     1      -4.202  -0.650  24.161  0.00  0.00    +0.231 C 
ATOM     32  H   UNL     1      -2.563  -1.914  23.976  0.00  0.00    +0.149 HD
BRANCH   4  23
ATOM     23  C   UNL     1      -4.272  -3.136  24.249  0.00  0.00    +0.067 C 
ATOM     25  C   UNL     1      -4.641  -3.665  22.869  0.00  0.00    +0.027 C 
ATOM     26  C   UNL     1      -3.435  -4.147  25.022  0.00  0.00    +0.027 C 
ENDBRANCH   4  23
ENDBRANCH   8  17
BRANCH   6  10
ATOM     10  C   UNL     1      -3.855   3.410  26.297  0.00  0.00    +0.026 C 
BRANCH  10  14
ATOM     14  C   UNL     1      -5.378   3.573  26.310  0.00  0.00    -0.015 C 
ATOM     21  C   UNL     1      -5.853   4.738  25.440  0.00  0.00    +0.007 C 
ATOM     22  C   UNL     1      -6.028   2.272  25.830  0.00  0.00    +0.007 C 
ENDBRANCH  10  14
ENDBRANCH   6  10
BRANCH   3  19
ATOM     19  C   UNL     1       2.588   2.081  23.057  0.00  0.00    +0.177 C 
BRANCH  19  24
ATOM      5  N   UNL     1       2.757  -0.334  23.320  0.00  0.00    -0.258 NA
ATOM     24  C   UNL     1       3.417   0.846  23.304  0.00  0.00    +0.061 A 
ATOM     27  C   UNL     1       4.783   0.973  23.495  0.00  0.00    +0.025 A 
ATOM     28  C   UNL     1       5.519  -0.185  23.720  0.00  0.00    +0.003 A 
ATOM     29  C   UNL     1       3.506  -1.438  23.540  0.00  0.00    +0.111 A 
ATOM     30  C   UNL     1       4.876  -1.417  23.744  0.00  0.00    +0.020 A 
ENDBRANCH  19  24
ENDBRANCH   3  19
TORSDOF 6
ENDMDL
