MODEL 1
REMARK VINA RESULT:      -4.6      0.000      0.000
REMARK  Name = 51137035
REMARK  3 active torsions:
REMARK  status: ('A' for Active; 'I' for Inactive)
REMARK    1  A    between atoms: N_1  and  C_6
REMARK    2  A    between atoms: C_5  and  C_6
REMARK    3  A    between atoms: C_7  and  C_16
REMARK                            x       y       z     vdW  Elec       q    Type
REMARK                         _______ _______ _______ _____ _____    ______ ____
ROOT
ATOM      1  N   UNL     1       0.862  -0.304  23.682  0.00  0.00    -0.301 NA
ATOM      7  C   UNL     1      -0.778   0.484  25.161  0.00  0.00    +0.070 C 
ATOM      8  C   UNL     1       0.126   0.922  24.001  0.00  0.00    +0.095 C 
ATOM      9  C   UNL     1      -0.141  -1.367  23.724  0.00  0.00    +0.085 C 
ATOM     12  C   UNL     1      -0.935  -1.036  24.981  0.00  0.00    +0.028 C 
ENDROOT
BRANCH   7  16
ATOM      2  N   UNL     1      -3.281   0.624  25.041  0.00  0.00    -0.340 N 
ATOM      3  N   UNL     1      -2.219   2.543  25.430  0.00  0.00    -0.213 NA
ATOM      4  N   UNL     1      -4.193   3.952  25.558  0.00  0.00    -0.234 NA
ATOM     16  C   UNL     1      -2.077   1.253  25.218  0.00  0.00    +0.114 A 
ATOM     17  C   UNL     1      -4.262   1.572  25.147  0.00  0.00    +0.085 A 
ATOM     18  C   UNL     1      -3.574   2.756  25.389  0.00  0.00    +0.178 A 
ATOM     19  C   UNL     1      -5.649   1.531  25.062  0.00  0.00    +0.031 A 
ATOM     20  C   UNL     1      -6.299   2.751  25.233  0.00  0.00    +0.022 A 
ATOM     21  C   UNL     1      -5.542   3.894  25.471  0.00  0.00    +0.113 A 
ATOM     22  H   UNL     1      -3.422  -0.362  24.865  0.00  0.00    +0.167 HD
ENDBRANCH   7  16
BRANCH   1   6
ATOM      6  C   UNL     1       1.535  -0.226  22.393  0.00  0.00    +0.088 C 
BRANCH   6   5
ATOM      5  C   UNL     1       3.049  -0.337  22.562  0.00  0.00    +0.003 C 
ATOM     10  C   UNL     1       3.655   1.026  22.921  0.00  0.00    +0.005 C 
ATOM     11  C   UNL     1       3.400  -1.387  23.625  0.00  0.00    +0.005 C 
ATOM     13  C   UNL     1       5.163   0.931  23.147  0.00  0.00    +0.000 C 
ATOM     14  C   UNL     1       4.908  -1.479  23.851  0.00  0.00    +0.000 C 
ATOM     15  C   UNL     1       5.508  -0.120  24.198  0.00  0.00    +0.000 C 
ENDBRANCH   6   5
ENDBRANCH   1   6
TORSDOF 3
ENDMDL
MODEL 2
REMARK VINA RESULT:      -4.5      2.965      6.433
REMARK  Name = 51137035
REMARK  3 active torsions:
REMARK  status: ('A' for Active; 'I' for Inactive)
REMARK    1  A    between atoms: N_1  and  C_6
REMARK    2  A    between atoms: C_5  and  C_6
REMARK    3  A    between atoms: C_7  and  C_16
REMARK                            x       y       z     vdW  Elec       q    Type
REMARK                         _______ _______ _______ _____ _____    ______ ____
ROOT
ATOM      1  N   UNL     1      -0.413   3.829  25.287  0.00  0.00    -0.301 NA
ATOM      7  C   UNL     1      -0.365   1.485  25.354  0.00  0.00    +0.070 C 
ATOM      8  C   UNL     1      -1.225   2.697  25.738  0.00  0.00    +0.095 C 
ATOM      9  C   UNL     1       0.092   3.430  23.973  0.00  0.00    +0.085 C 
ATOM     12  C   UNL     1       0.518   1.985  24.197  0.00  0.00    +0.028 C 
ENDROOT
BRANCH   7  16
ATOM      2  N   UNL     1      -2.504   0.356  24.683  0.00  0.00    -0.340 N 
ATOM      3  N   UNL     1      -0.773  -0.992  25.063  0.00  0.00    -0.213 NA
ATOM      4  N   UNL     1      -1.917  -3.082  24.597  0.00  0.00    -0.234 NA
ATOM     16  C   UNL     1      -1.186   0.256  25.040  0.00  0.00    +0.114 A 
ATOM     17  C   UNL     1      -2.970  -0.912  24.463  0.00  0.00    +0.085 A 
ATOM     18  C   UNL     1      -1.873  -1.730  24.707  0.00  0.00    +0.178 A 
ATOM     19  C   UNL     1      -4.204  -1.428  24.084  0.00  0.00    +0.031 A 
ATOM     20  C   UNL     1      -4.266  -2.814  23.968  0.00  0.00    +0.022 A 
ATOM     21  C   UNL     1      -3.126  -3.568  24.228  0.00  0.00    +0.113 A 
ATOM     22  H   UNL     1      -3.039   1.210  24.597  0.00  0.00    +0.167 HD
ENDBRANCH   7  16
BRANCH   1   6
ATOM      6  C   UNL     1      -1.172   5.070  25.236  0.00  0.00    +0.088 C 
BRANCH   6   5
ATOM      5  C   UNL     1      -2.660   4.790  25.035  0.00  0.00    +0.003 C 
ATOM     10  C   UNL     1      -2.879   3.854  23.839  0.00  0.00    +0.005 C 
ATOM     11  C   UNL     1      -3.277   4.200  26.311  0.00  0.00    +0.005 C 
ATOM     13  C   UNL     1      -4.356   3.516  23.651  0.00  0.00    +0.000 C 
ATOM     14  C   UNL     1      -4.754   3.862  26.118  0.00  0.00    +0.000 C 
ATOM     15  C   UNL     1      -4.968   2.938  24.923  0.00  0.00    +0.000 C 
ENDBRANCH   6   5
ENDBRANCH   1   6
TORSDOF 3
ENDMDL
MODEL 3
REMARK VINA RESULT:      -4.2     16.654     18.015
REMARK  Name = 51137035
REMARK  3 active torsions:
REMARK  status: ('A' for Active; 'I' for Inactive)
REMARK    1  A    between atoms: N_1  and  C_6
REMARK    2  A    between atoms: C_5  and  C_6
REMARK    3  A    between atoms: C_7  and  C_16
REMARK                            x       y       z     vdW  Elec       q    Type
REMARK                         _______ _______ _______ _____ _____    ______ ____
ROOT
ATOM      1  N   UNL     1      -8.946 -10.059   9.483  0.00  0.00    -0.301 NA
ATOM      7  C   UNL     1      -9.870 -10.157  11.636  0.00  0.00    +0.070 C 
ATOM      8  C   UNL     1      -8.579 -10.426  10.853  0.00  0.00    +0.095 C 
ATOM      9  C   UNL     1      -9.707  -8.817   9.617  0.00  0.00    +0.085 C 
ATOM     12  C   UNL     1     -10.620  -9.104  10.801  0.00  0.00    +0.028 C 
ENDROOT
BRANCH   7  16
ATOM      2  N   UNL     1     -10.484  -8.945  13.747  0.00  0.00    -0.340 N 
ATOM      3  N   UNL     1      -8.598 -10.129  13.821  0.00  0.00    -0.213 NA
ATOM      4  N   UNL     1      -8.015  -9.613  16.120  0.00  0.00    -0.234 NA
ATOM     16  C   UNL     1      -9.617  -9.763  13.073  0.00  0.00    +0.114 A 
ATOM     17  C   UNL     1      -9.991  -8.772  15.012  0.00  0.00    +0.085 A 
ATOM     18  C   UNL     1      -8.818  -9.519  15.030  0.00  0.00    +0.178 A 
ATOM     19  C   UNL     1     -10.429  -8.061  16.123  0.00  0.00    +0.031 A 
ATOM     20  C   UNL     1      -9.615  -8.148  17.251  0.00  0.00    +0.022 A 
ATOM     21  C   UNL     1      -8.456  -8.915  17.193  0.00  0.00    +0.113 A 
ATOM     22  H   UNL     1     -11.335  -8.540  13.379  0.00  0.00    +0.167 HD
ENDBRANCH   7  16
BRANCH   1   6
ATOM      6  C   UNL     1      -7.784  -9.908   8.619  0.00  0.00    +0.088 C 
BRANCH   6   5
ATOM      5  C   UNL     1      -6.498  -9.849   9.441  0.00  0.00    +0.003 C 
ATOM     10  C   UNL     1      -5.428 -10.770   8.840  0.00  0.00    +0.005 C 
ATOM     11  C   UNL     1      -5.985  -8.407   9.540  0.00  0.00    +0.005 C 
ATOM     13  C   UNL     1      -4.114 -10.688   9.614  0.00  0.00    +0.000 C 
ATOM     14  C   UNL     1      -4.670  -8.328  10.314  0.00  0.00    +0.000 C 
ATOM     15  C   UNL     1      -3.612  -9.251   9.718  0.00  0.00    +0.000 C 
ENDBRANCH   6   5
ENDBRANCH   1   6
TORSDOF 3
ENDMDL
MODEL 4
REMARK VINA RESULT:      -3.5     15.586     17.539
REMARK  Name = 51137035
REMARK  3 active torsions:
REMARK  status: ('A' for Active; 'I' for Inactive)
REMARK    1  A    between atoms: N_1  and  C_6
REMARK    2  A    between atoms: C_5  and  C_6
REMARK    3  A    between atoms: C_7  and  C_16
REMARK                            x       y       z     vdW  Elec       q    Type
REMARK                         _______ _______ _______ _____ _____    ______ ____
ROOT
ATOM      1  N   UNL     1     -10.629  -9.963  13.070  0.00  0.00    -0.301 NA
ATOM      7  C   UNL     1     -10.191  -9.993  15.373  0.00  0.00    +0.070 C 
ATOM      8  C   UNL     1      -9.952 -10.781  14.079  0.00  0.00    +0.095 C 
ATOM      9  C   UNL     1     -10.265  -8.585  13.396  0.00  0.00    +0.085 C 
ATOM     12  C   UNL     1     -10.416  -8.542  14.911  0.00  0.00    +0.028 C 
ENDROOT
BRANCH   7  16
ATOM      2  N   UNL     1      -7.766 -10.125  16.008  0.00  0.00    -0.340 N 
ATOM      3  N   UNL     1      -9.221 -10.377  17.676  0.00  0.00    -0.213 NA
ATOM      4  N   UNL     1      -7.590 -10.684  19.448  0.00  0.00    -0.234 NA
ATOM     16  C   UNL     1      -9.082 -10.170  16.385  0.00  0.00    +0.114 A 
ATOM     17  C   UNL     1      -7.008 -10.316  17.132  0.00  0.00    +0.085 A 
ATOM     18  C   UNL     1      -7.938 -10.470  18.154  0.00  0.00    +0.178 A 
ATOM     19  C   UNL     1      -5.639 -10.369  17.368  0.00  0.00    +0.031 A 
ATOM     20  C   UNL     1      -5.266 -10.588  18.692  0.00  0.00    +0.022 A 
ATOM     21  C   UNL     1      -6.254 -10.734  19.660  0.00  0.00    +0.113 A 
ATOM     22  H   UNL     1      -7.415  -9.977  15.071  0.00  0.00    +0.167 HD
ENDBRANCH   7  16
BRANCH   1   6
ATOM      6  C   UNL     1     -10.251 -10.331  11.713  0.00  0.00    +0.088 C 
BRANCH   6   5
ATOM      5  C   UNL     1      -9.257  -9.326  11.133  0.00  0.00    +0.003 C 
ATOM     10  C   UNL     1      -7.841  -9.915  11.113  0.00  0.00    +0.005 C 
ATOM     11  C   UNL     1      -9.688  -8.890   9.727  0.00  0.00    +0.005 C 
ATOM     13  C   UNL     1      -6.837  -8.949  10.488  0.00  0.00    +0.000 C 
ATOM     14  C   UNL     1      -8.681  -7.924   9.103  0.00  0.00    +0.000 C 
ATOM     15  C   UNL     1      -7.272  -8.510   9.094  0.00  0.00    +0.000 C 
ENDBRANCH   6   5
ENDBRANCH   1   6
TORSDOF 3
ENDMDL
MODEL 5
REMARK VINA RESULT:      -3.2      1.910      6.917
REMARK  Name = 51137035
REMARK  3 active torsions:
REMARK  status: ('A' for Active; 'I' for Inactive)
REMARK    1  A    between atoms: N_1  and  C_6
REMARK    2  A    between atoms: C_5  and  C_6
REMARK    3  A    between atoms: C_7  and  C_16
REMARK                            x       y       z     vdW  Elec       q    Type
REMARK                         _______ _______ _______ _____ _____    ______ ____
ROOT
ATOM      1  N   UNL     1      -3.803   2.011  25.299  0.00  0.00    -0.301 NA
ATOM      7  C   UNL     1      -1.470   2.202  25.155  0.00  0.00    +0.070 C 
ATOM      8  C   UNL     1      -2.605   1.172  25.223  0.00  0.00    +0.095 C 
ATOM      9  C   UNL     1      -3.578   3.078  24.324  0.00  0.00    +0.085 C 
ATOM     12  C   UNL     1      -2.127   3.468  24.575  0.00  0.00    +0.028 C 
ENDROOT
BRANCH   7  16
ATOM      2  N   UNL     1      -0.371   0.659  23.509  0.00  0.00    -0.340 N 
ATOM      3  N   UNL     1       0.958   2.176  24.453  0.00  0.00    -0.213 NA
ATOM      4  N   UNL     1       3.003   1.526  23.317  0.00  0.00    -0.234 NA
ATOM     16  C   UNL     1      -0.268   1.704  24.387  0.00  0.00    +0.114 A 
ATOM     17  C   UNL     1       0.870   0.443  22.974  0.00  0.00    +0.085 A 
ATOM     18  C   UNL     1       1.677   1.400  23.579  0.00  0.00    +0.178 A 
ATOM     19  C   UNL     1       1.371  -0.463  22.046  0.00  0.00    +0.031 A 
ATOM     20  C   UNL     1       2.730  -0.347  21.767  0.00  0.00    +0.022 A 
ATOM     21  C   UNL     1       3.474   0.636  22.412  0.00  0.00    +0.113 A 
ATOM     22  H   UNL     1      -1.212   0.139  23.292  0.00  0.00    +0.167 HD
ENDBRANCH   7  16
BRANCH   1   6
ATOM      6  C   UNL     1      -5.023   1.263  25.031  0.00  0.00    +0.088 C 
BRANCH   6   5
ATOM      5  C   UNL     1      -4.749  -0.240  25.029  0.00  0.00    +0.003 C 
ATOM     10  C   UNL     1      -4.345  -0.715  23.627  0.00  0.00    +0.005 C 
ATOM     11  C   UNL     1      -3.668  -0.595  26.059  0.00  0.00    +0.005 C 
ATOM     13  C   UNL     1      -4.014  -2.206  23.611  0.00  0.00    +0.000 C 
ATOM     14  C   UNL     1      -3.338  -2.086  26.040  0.00  0.00    +0.000 C 
ATOM     15  C   UNL     1      -2.946  -2.557  24.643  0.00  0.00    +0.000 C 
ENDBRANCH   6   5
ENDBRANCH   1   6
TORSDOF 3
ENDMDL
MODEL 6
REMARK VINA RESULT:      -2.8      1.362      8.260
REMARK  Name = 51137035
REMARK  3 active torsions:
REMARK  status: ('A' for Active; 'I' for Inactive)
REMARK    1  A    between atoms: N_1  and  C_6
REMARK    2  A    between atoms: C_5  and  C_6
REMARK    3  A    between atoms: C_7  and  C_16
REMARK                            x       y       z     vdW  Elec       q    Type
REMARK                         _______ _______ _______ _____ _____    ______ ____
ROOT
ATOM      1  N   UNL     1      -1.916   1.388  23.863  0.00  0.00    -0.301 NA
ATOM      7  C   UNL     1      -0.165  -0.096  23.384  0.00  0.00    +0.070 C 
ATOM      8  C   UNL     1      -0.634   1.346  23.156  0.00  0.00    +0.095 C 
ATOM      9  C   UNL     1      -1.675   0.680  25.121  0.00  0.00    +0.085 C 
ATOM     12  C   UNL     1      -0.873  -0.537  24.678  0.00  0.00    +0.028 C 
ENDROOT
BRANCH   7  16
ATOM      2  N   UNL     1       2.150   0.814  23.046  0.00  0.00    -0.340 N 
ATOM      3  N   UNL     1       2.030  -1.292  23.763  0.00  0.00    -0.213 NA
ATOM      4  N   UNL     1       4.421  -1.703  23.872  0.00  0.00    -0.234 NA
ATOM     16  C   UNL     1       1.340  -0.229  23.410  0.00  0.00    +0.114 A 
ATOM     17  C   UNL     1       3.447   0.394  23.172  0.00  0.00    +0.085 A 
ATOM     18  C   UNL     1       3.343  -0.918  23.619  0.00  0.00    +0.178 A 
ATOM     19  C   UNL     1       4.677   1.002  22.952  0.00  0.00    +0.031 A 
ATOM     20  C   UNL     1       5.794   0.209  23.207  0.00  0.00    +0.022 A 
ATOM     21  C   UNL     1       5.611  -1.097  23.652  0.00  0.00    +0.113 A 
ATOM     22  H   UNL     1       1.848   1.729  22.739  0.00  0.00    +0.167 HD
ENDBRANCH   7  16
BRANCH   1   6
ATOM      6  C   UNL     1      -2.389   2.748  24.073  0.00  0.00    +0.088 C 
BRANCH   6   5
ATOM      5  C   UNL     1      -3.900   2.770  24.299  0.00  0.00    +0.003 C 
ATOM     10  C   UNL     1      -4.428   1.355  24.564  0.00  0.00    +0.005 C 
ATOM     11  C   UNL     1      -4.261   3.714  25.454  0.00  0.00    +0.005 C 
ATOM     13  C   UNL     1      -5.930   1.357  24.845  0.00  0.00    +0.000 C 
ATOM     14  C   UNL     1      -5.763   3.713  25.734  0.00  0.00    +0.000 C 
ATOM     15  C   UNL     1      -6.286   2.303  25.988  0.00  0.00    +0.000 C 
ENDBRANCH   6   5
ENDBRANCH   1   6
TORSDOF 3
ENDMDL
MODEL 7
REMARK VINA RESULT:      -2.6      1.707      7.234
REMARK  Name = 51137035
REMARK  3 active torsions:
REMARK  status: ('A' for Active; 'I' for Inactive)
REMARK    1  A    between atoms: N_1  and  C_6
REMARK    2  A    between atoms: C_5  and  C_6
REMARK    3  A    between atoms: C_7  and  C_16
REMARK                            x       y       z     vdW  Elec       q    Type
REMARK                         _______ _______ _______ _____ _____    ______ ____
ROOT
ATOM      1  N   UNL     1      -2.644   0.107  24.172  0.00  0.00    -0.301 NA
ATOM      7  C   UNL     1      -0.570  -0.826  23.599  0.00  0.00    +0.070 C 
ATOM      8  C   UNL     1      -1.467   0.394  23.350  0.00  0.00    +0.095 C 
ATOM      9  C   UNL     1      -2.107  -0.406  25.433  0.00  0.00    +0.085 C 
ATOM     12  C   UNL     1      -1.014  -1.361  24.973  0.00  0.00    +0.028 C 
ENDROOT
BRANCH   7  16
ATOM      2  N   UNL     1       1.855  -1.429  23.835  0.00  0.00    -0.340 N 
ATOM      3  N   UNL     1       1.434   0.621  23.072  0.00  0.00    -0.213 NA
ATOM      4  N   UNL     1       3.745   1.323  22.823  0.00  0.00    -0.234 NA
ATOM     16  C   UNL     1       0.903  -0.508  23.489  0.00  0.00    +0.114 A 
ATOM     17  C   UNL     1       3.080  -0.856  23.628  0.00  0.00    +0.085 A 
ATOM     18  C   UNL     1       2.789   0.418  23.154  0.00  0.00    +0.178 A 
ATOM     19  C   UNL     1       4.387  -1.298  23.797  0.00  0.00    +0.031 A 
ATOM     20  C   UNL     1       5.380  -0.380  23.462  0.00  0.00    +0.022 A 
ATOM     21  C   UNL     1       5.011   0.877  22.994  0.00  0.00    +0.113 A 
ATOM     22  H   UNL     1       1.686  -2.365  24.181  0.00  0.00    +0.167 HD
ENDBRANCH   7  16
BRANCH   1   6
ATOM      6  C   UNL     1      -3.486   1.279  24.363  0.00  0.00    +0.088 C 
BRANCH   6   5
ATOM      5  C   UNL     1      -2.720   2.387  25.085  0.00  0.00    +0.003 C 
ATOM     10  C   UNL     1      -1.585   2.924  24.203  0.00  0.00    +0.005 C 
ATOM     11  C   UNL     1      -3.670   3.518  25.501  0.00  0.00    +0.005 C 
ATOM     13  C   UNL     1      -0.838   4.070  24.881  0.00  0.00    +0.000 C 
ATOM     14  C   UNL     1      -2.919   4.664  26.178  0.00  0.00    +0.000 C 
ATOM     15  C   UNL     1      -1.786   5.188  25.302  0.00  0.00    +0.000 C 
ENDBRANCH   6   5
ENDBRANCH   1   6
TORSDOF 3
ENDMDL
MODEL 8
REMARK VINA RESULT:      -1.5      2.383      4.092
REMARK  Name = 51137035
REMARK  3 active torsions:
REMARK  status: ('A' for Active; 'I' for Inactive)
REMARK    1  A    between atoms: N_1  and  C_6
REMARK    2  A    between atoms: C_5  and  C_6
REMARK    3  A    between atoms: C_7  and  C_16
REMARK                            x       y       z     vdW  Elec       q    Type
REMARK                         _______ _______ _______ _____ _____    ______ ____
ROOT
ATOM      1  N   UNL     1       0.203   0.350  23.612  0.00  0.00    -0.301 NA
ATOM      7  C   UNL     1      -1.398   2.056  23.456  0.00  0.00    +0.070 C 
ATOM      8  C   UNL     1      -1.247   0.530  23.525  0.00  0.00    +0.095 C 
ATOM      9  C   UNL     1       0.653   1.369  24.560  0.00  0.00    +0.085 C 
ATOM     12  C   UNL     1      -0.126   2.604  24.128  0.00  0.00    +0.028 C 
ENDROOT
BRANCH   7  16
ATOM      2  N   UNL     1      -3.699   1.676  24.386  0.00  0.00    -0.340 N 
ATOM      3  N   UNL     1      -3.012   3.794  24.331  0.00  0.00    -0.213 NA
ATOM      4  N   UNL     1      -5.014   4.779  25.287  0.00  0.00    -0.234 NA
ATOM     16  C   UNL     1      -2.694   2.547  24.058  0.00  0.00    +0.114 A 
ATOM     17  C   UNL     1      -4.731   2.410  24.904  0.00  0.00    +0.085 A 
ATOM     18  C   UNL     1      -4.277   3.724  24.858  0.00  0.00    +0.178 A 
ATOM     19  C   UNL     1      -5.987   2.083  25.400  0.00  0.00    +0.031 A 
ATOM     20  C   UNL     1      -6.757   3.155  25.844  0.00  0.00    +0.022 A 
ATOM     21  C   UNL     1      -6.235   4.443  25.766  0.00  0.00    +0.113 A 
ATOM     22  H   UNL     1      -3.683   0.671  24.268  0.00  0.00    +0.167 HD
ENDBRANCH   7  16
BRANCH   1   6
ATOM      6  C   UNL     1       0.571  -0.996  24.027  0.00  0.00    +0.088 C 
BRANCH   6   5
ATOM      5  C   UNL     1      -0.570  -1.658  24.797  0.00  0.00    +0.003 C 
ATOM     10  C   UNL     1      -1.210  -0.665  25.777  0.00  0.00    +0.005 C 
ATOM     11  C   UNL     1      -1.619  -2.225  23.830  0.00  0.00    +0.005 C 
ATOM     13  C   UNL     1      -2.389  -1.289  26.521  0.00  0.00    +0.000 C 
ATOM     14  C   UNL     1      -2.798  -2.846  24.578  0.00  0.00    +0.000 C 
ATOM     15  C   UNL     1      -3.425  -1.859  25.557  0.00  0.00    +0.000 C 
ENDBRANCH   6   5
ENDBRANCH   1   6
TORSDOF 3
ENDMDL
MODEL 9
REMARK VINA RESULT:      -1.3      1.280      2.264
REMARK  Name = 51137035
REMARK  3 active torsions:
REMARK  status: ('A' for Active; 'I' for Inactive)
REMARK    1  A    between atoms: N_1  and  C_6
REMARK    2  A    between atoms: C_5  and  C_6
REMARK    3  A    between atoms: C_7  and  C_16
REMARK                            x       y       z     vdW  Elec       q    Type
REMARK                         _______ _______ _______ _____ _____    ______ ____
ROOT
ATOM      1  N   UNL     1       0.800   0.958  23.023  0.00  0.00    -0.301 NA
ATOM      7  C   UNL     1      -1.178   2.171  23.358  0.00  0.00    +0.070 C 
ATOM      8  C   UNL     1      -0.652   0.790  22.946  0.00  0.00    +0.095 C 
ATOM      9  C   UNL     1       1.028   1.705  24.261  0.00  0.00    +0.085 C 
ATOM     12  C   UNL     1      -0.052   2.778  24.214  0.00  0.00    +0.028 C 
ENDROOT
BRANCH   7  16
ATOM      2  N   UNL     1      -3.170   3.250  24.441  0.00  0.00    -0.340 N 
ATOM      3  N   UNL     1      -3.218   1.026  24.316  0.00  0.00    -0.213 NA
ATOM      4  N   UNL     1      -5.374   0.717  25.389  0.00  0.00    -0.234 NA
ATOM     16  C   UNL     1      -2.526   2.110  24.039  0.00  0.00    +0.114 A 
ATOM     17  C   UNL     1      -4.353   2.875  25.016  0.00  0.00    +0.085 A 
ATOM     18  C   UNL     1      -4.358   1.488  24.926  0.00  0.00    +0.178 A 
ATOM     19  C   UNL     1      -5.404   3.578  25.595  0.00  0.00    +0.031 A 
ATOM     20  C   UNL     1      -6.455   2.801  26.076  0.00  0.00    +0.022 A 
ATOM     21  C   UNL     1      -6.388   1.417  25.950  0.00  0.00    +0.113 A 
ATOM     22  H   UNL     1      -2.833   4.198  24.334  0.00  0.00    +0.167 HD
ENDBRANCH   7  16
BRANCH   1   6
ATOM      6  C   UNL     1       1.508  -0.314  23.004  0.00  0.00    +0.088 C 
BRANCH   6   5
ATOM      5  C   UNL     1       2.925  -0.157  23.552  0.00  0.00    +0.003 C 
ATOM     10  C   UNL     1       3.633  -1.517  23.619  0.00  0.00    +0.005 C 
ATOM     11  C   UNL     1       3.727   0.836  22.701  0.00  0.00    +0.005 C 
ATOM     13  C   UNL     1       5.071  -1.379  24.114  0.00  0.00    +0.000 C 
ATOM     14  C   UNL     1       5.166   0.970  23.197  0.00  0.00    +0.000 C 
ATOM     15  C   UNL     1       5.864  -0.384  23.271  0.00  0.00    +0.000 C 
ENDBRANCH   6   5
ENDBRANCH   1   6
TORSDOF 3
ENDMDL
MODEL 10
REMARK VINA RESULT:      -1.1      1.905      7.183
REMARK  Name = 51137035
REMARK  3 active torsions:
REMARK  status: ('A' for Active; 'I' for Inactive)
REMARK    1  A    between atoms: N_1  and  C_6
REMARK    2  A    between atoms: C_5  and  C_6
REMARK    3  A    between atoms: C_7  and  C_16
REMARK                            x       y       z     vdW  Elec       q    Type
REMARK                         _______ _______ _______ _____ _____    ______ ____
ROOT
ATOM      1  N   UNL     1      -4.085  -0.602  24.854  0.00  0.00    -0.301 NA
ATOM      7  C   UNL     1      -2.025  -1.084  23.843  0.00  0.00    +0.070 C 
ATOM      8  C   UNL     1      -3.125  -0.016  23.917  0.00  0.00    +0.095 C 
ATOM      9  C   UNL     1      -3.268  -1.165  25.929  0.00  0.00    +0.085 C 
ATOM     12  C   UNL     1      -2.138  -1.852  25.172  0.00  0.00    +0.028 C 
ENDROOT
BRANCH   7  16
ATOM      2  N   UNL     1       0.184  -1.082  22.650  0.00  0.00    -0.340 N 
ATOM      3  N   UNL     1      -0.128   0.565  24.117  0.00  0.00    -0.213 NA
ATOM      4  N   UNL     1       2.023   1.648  23.808  0.00  0.00    -0.234 NA
ATOM     16  C   UNL     1      -0.658  -0.503  23.562  0.00  0.00    +0.114 A 
ATOM     17  C   UNL     1       1.332  -0.337  22.616  0.00  0.00    +0.085 A 
ATOM     18  C   UNL     1       1.111   0.680  23.538  0.00  0.00    +0.178 A 
ATOM     19  C   UNL     1       2.517  -0.434  21.897  0.00  0.00    +0.031 A 
ATOM     20  C   UNL     1       3.464   0.552  22.163  0.00  0.00    +0.022 A 
ATOM     21  C   UNL     1       3.171   1.538  23.099  0.00  0.00    +0.113 A 
ATOM     22  H   UNL     1      -0.006  -1.909  22.100  0.00  0.00    +0.167 HD
ENDBRANCH   7  16
BRANCH   1   6
ATOM      6  C   UNL     1      -5.049   0.373  25.342  0.00  0.00    +0.088 C 
BRANCH   6   5
ATOM      5  C   UNL     1      -4.589   1.796  25.029  0.00  0.00    +0.003 C 
ATOM     10  C   UNL     1      -5.568   2.822  25.614  0.00  0.00    +0.005 C 
ATOM     11  C   UNL     1      -3.168   2.034  25.556  0.00  0.00    +0.005 C 
ATOM     13  C   UNL     1      -5.102   4.254  25.360  0.00  0.00    +0.000 C 
ATOM     14  C   UNL     1      -2.705   3.467  25.302  0.00  0.00    +0.000 C 
ATOM     15  C   UNL     1      -3.685   4.485  25.877  0.00  0.00    +0.000 C 
ENDBRANCH   6   5
ENDBRANCH   1   6
TORSDOF 3
ENDMDL
