MODEL 1
REMARK VINA RESULT:       6.5      0.000      0.000
REMARK  Name = 7113917
REMARK  6 active torsions:
REMARK  status: ('A' for Active; 'I' for Inactive)
REMARK    1  A    between atoms: S_2  and  N_11
REMARK    2  A    between atoms: S_2  and  C_29
REMARK    3  A    between atoms: O_7  and  C_33
REMARK    4  A    between atoms: N_11  and  C_22
REMARK    5  A    between atoms: C_21  and  C_24
REMARK    6  A    between atoms: C_27  and  C_33
REMARK                            x       y       z     vdW  Elec       q    Type
REMARK                         _______ _______ _______ _____ _____    ______ ____
ROOT
ATOM      3  O   UNL     1      -0.036   2.813  25.944  0.00  0.00    -0.266 OA
ATOM      4  O   UNL     1      -4.431   0.328  27.107  0.00  0.00    -0.270 OA
ATOM      9  N   UNL     1      -4.877   1.753  25.305  0.00  0.00    -0.297 N 
ATOM     10  N   UNL     1      -2.019   2.992  24.709  0.00  0.00    -0.310 N 
ATOM     12  C   UNL     1      -4.135   4.107  25.622  0.00  0.00    +0.027 C 
ATOM     13  C   UNL     1      -4.147   3.122  23.366  0.00  0.00    +0.054 C 
ATOM     14  C   UNL     1      -4.446   4.394  24.157  0.00  0.00    +0.018 C 
ATOM     15  C   UNL     1      -5.006   2.947  26.139  0.00  0.00    +0.113 C 
ATOM     16  C   UNL     1      -2.637   3.810  25.761  0.00  0.00    +0.130 C 
ATOM     17  C   UNL     1      -5.058   1.979  23.862  0.00  0.00    +0.117 C 
ATOM     18  C   UNL     1      -2.693   2.715  23.512  0.00  0.00    +0.027 A 
ATOM     19  C   UNL     1      -2.070   2.061  22.514  0.00  0.00    +0.024 A 
ATOM     20  C   UNL     1      -0.685   2.587  24.923  0.00  0.00    +0.274 A 
ATOM     21  C   UNL     1      -4.583   0.524  25.903  0.00  0.00    +0.247 C 
ATOM     22  C   UNL     1      -0.060   1.849  23.796  0.00  0.00    +0.112 A 
ATOM     23  C   UNL     1      -0.713   1.611  22.658  0.00  0.00    +0.031 A 
ENDROOT
BRANCH  21  24
ATOM     24  C   UNL     1      -4.418  -0.643  25.029  0.00  0.00    +0.038 A 
ATOM     25  C   UNL     1      -3.185  -1.288  24.960  0.00  0.00    +0.028 A 
ATOM     26  C   UNL     1      -5.495  -1.100  24.274  0.00  0.00    +0.013 A 
ATOM     27  C   UNL     1      -3.029  -2.396  24.129  0.00  0.00    +0.060 A 
ATOM     28  C   UNL     1      -5.338  -2.209  23.443  0.00  0.00    +0.002 A 
ATOM     30  C   UNL     1      -4.106  -2.857  23.371  0.00  0.00    +0.015 A 
BRANCH  27  33
ATOM      8  O   UNL     1      -1.368  -3.791  23.120  0.00  0.00    -0.245 OA
ATOM     33  C   UNL     1      -1.744  -3.073  24.052  0.00  0.00    +0.337 C 
BRANCH  33   7
ATOM      7  O   UNL     1      -0.963  -2.835  25.141  0.00  0.00    -0.477 OA
ATOM     38  H   UNL     1      -0.222  -3.472  25.205  0.00  0.00    +0.295 HD
ENDBRANCH  33   7
ENDBRANCH  27  33
ENDBRANCH  21  24
BRANCH  22  11
ATOM     11  N   UNL     1       1.261   1.382  23.901  0.00  0.00    -0.211 N 
ATOM     37  H   UNL     1       1.959   2.101  23.660  0.00  0.00    +0.174 HD
BRANCH  11   2
ATOM      2  S   UNL     1       1.588  -0.156  23.275  0.00  0.00    +0.072 S 
ATOM      5  O   UNL     1       1.092  -1.170  24.186  0.00  0.00    -0.150 OA
ATOM      6  O   UNL     1       1.229  -0.197  21.870  0.00  0.00    -0.150 OA
BRANCH   2  29
ATOM      1 CL   UNL     1       7.835  -0.244  23.608  0.00  0.00    -0.084 Cl
ATOM     29  C   UNL     1       3.354  -0.181  23.370  0.00  0.00    +0.109 A 
ATOM     31  C   UNL     1       3.990  -1.332  23.800  0.00  0.00    +0.030 A 
ATOM     32  C   UNL     1       4.065   0.951  23.012  0.00  0.00    +0.030 A 
ATOM     34  C   UNL     1       5.383  -1.351  23.874  0.00  0.00    +0.022 A 
ATOM     35  C   UNL     1       5.457   0.931  23.087  0.00  0.00    +0.022 A 
ATOM     36  C   UNL     1       6.116  -0.220  23.518  0.00  0.00    +0.041 A 
ENDBRANCH   2  29
ENDBRANCH  11   2
ENDBRANCH  22  11
TORSDOF 6
ENDMDL
MODEL 2
REMARK VINA RESULT:       9.2      2.878      5.444
REMARK  Name = 7113917
REMARK  6 active torsions:
REMARK  status: ('A' for Active; 'I' for Inactive)
REMARK    1  A    between atoms: S_2  and  N_11
REMARK    2  A    between atoms: S_2  and  C_29
REMARK    3  A    between atoms: O_7  and  C_33
REMARK    4  A    between atoms: N_11  and  C_22
REMARK    5  A    between atoms: C_21  and  C_24
REMARK    6  A    between atoms: C_27  and  C_33
REMARK                            x       y       z     vdW  Elec       q    Type
REMARK                         _______ _______ _______ _____ _____    ______ ____
ROOT
ATOM      3  O   UNL     1      -3.782   0.688  22.118  0.00  0.00    -0.266 OA
ATOM      4  O   UNL     1       0.047   3.580  24.073  0.00  0.00    -0.270 OA
ATOM      9  N   UNL     1      -1.936   4.213  25.142  0.00  0.00    -0.297 N 
ATOM     10  N   UNL     1      -4.041   2.195  23.893  0.00  0.00    -0.310 N 
ATOM     12  C   UNL     1      -3.830   4.731  23.613  0.00  0.00    +0.027 C 
ATOM     13  C   UNL     1      -4.280   3.779  25.838  0.00  0.00    +0.054 C 
ATOM     14  C   UNL     1      -4.769   4.800  24.813  0.00  0.00    +0.018 C 
ATOM     15  C   UNL     1      -2.388   5.061  24.040  0.00  0.00    +0.113 C 
ATOM     16  C   UNL     1      -3.940   3.340  22.978  0.00  0.00    +0.130 C 
ATOM     17  C   UNL     1      -2.852   4.147  26.292  0.00  0.00    +0.117 C 
ATOM     18  C   UNL     1      -4.287   2.376  25.261  0.00  0.00    +0.027 A 
ATOM     19  C   UNL     1      -4.489   1.315  26.064  0.00  0.00    +0.024 A 
ATOM     20  C   UNL     1      -3.979   0.911  23.312  0.00  0.00    +0.274 A 
ATOM     21  C   UNL     1      -0.723   3.529  25.031  0.00  0.00    +0.247 C 
ATOM     22  C   UNL     1      -4.185  -0.219  24.252  0.00  0.00    +0.112 A 
ATOM     23  C   UNL     1      -4.436  -0.025  25.548  0.00  0.00    +0.031 A 
ENDROOT
BRANCH  21  24
ATOM     24  C   UNL     1      -0.323   2.654  26.138  0.00  0.00    +0.038 A 
ATOM     25  C   UNL     1       0.662   3.070  27.031  0.00  0.00    +0.028 A 
ATOM     26  C   UNL     1      -0.930   1.410  26.290  0.00  0.00    +0.013 A 
ATOM     27  C   UNL     1       1.041   2.237  28.082  0.00  0.00    +0.060 A 
ATOM     28  C   UNL     1      -0.550   0.576  27.342  0.00  0.00    +0.002 A 
ATOM     30  C   UNL     1       0.435   0.990  28.238  0.00  0.00    +0.015 A 
BRANCH  27  33
ATOM      8  O   UNL     1       2.912   3.542  28.801  0.00  0.00    -0.245 OA
ATOM     33  C   UNL     1       2.068   2.667  29.017  0.00  0.00    +0.337 C 
BRANCH  33   7
ATOM      7  O   UNL     1       2.013   1.993  30.199  0.00  0.00    -0.477 OA
ATOM     38  H   UNL     1       1.240   2.265  30.738  0.00  0.00    +0.295 HD
ENDBRANCH  33   7
ENDBRANCH  27  33
ENDBRANCH  21  24
BRANCH  22  11
ATOM     11  N   UNL     1      -4.130  -1.545  23.789  0.00  0.00    -0.211 N 
ATOM     37  H   UNL     1      -5.062  -1.967  23.675  0.00  0.00    +0.174 HD
BRANCH  11   2
ATOM      2  S   UNL     1      -2.977  -2.562  24.498  0.00  0.00    +0.072 S 
ATOM      5  O   UNL     1      -3.161  -2.582  25.937  0.00  0.00    -0.150 OA
ATOM      6  O   UNL     1      -2.900  -3.805  23.754  0.00  0.00    -0.150 OA
BRANCH   2  29
ATOM      1 CL   UNL     1       2.269   0.642  23.331  0.00  0.00    -0.084 Cl
ATOM     29  C   UNL     1      -1.494  -1.656  24.169  0.00  0.00    +0.109 A 
ATOM     31  C   UNL     1      -0.322  -2.028  24.802  0.00  0.00    +0.030 A 
ATOM     32  C   UNL     1      -1.535  -0.593  23.284  0.00  0.00    +0.030 A 
ATOM     34  C   UNL     1       0.848  -1.314  24.542  0.00  0.00    +0.022 A 
ATOM     35  C   UNL     1      -0.366   0.122  23.024  0.00  0.00    +0.022 A 
ATOM     36  C   UNL     1       0.826  -0.239  23.653  0.00  0.00    +0.041 A 
ENDBRANCH   2  29
ENDBRANCH  11   2
ENDBRANCH  22  11
TORSDOF 6
ENDMDL
MODEL 3
REMARK VINA RESULT:       9.9      1.769      4.566
REMARK  Name = 7113917
REMARK  6 active torsions:
REMARK  status: ('A' for Active; 'I' for Inactive)
REMARK    1  A    between atoms: S_2  and  N_11
REMARK    2  A    between atoms: S_2  and  C_29
REMARK    3  A    between atoms: O_7  and  C_33
REMARK    4  A    between atoms: N_11  and  C_22
REMARK    5  A    between atoms: C_21  and  C_24
REMARK    6  A    between atoms: C_27  and  C_33
REMARK                            x       y       z     vdW  Elec       q    Type
REMARK                         _______ _______ _______ _____ _____    ______ ____
ROOT
ATOM      3  O   UNL     1      -1.246  -1.838  22.462  0.00  0.00    -0.266 OA
ATOM      4  O   UNL     1      -4.006   2.545  22.594  0.00  0.00    -0.270 OA
ATOM      9  N   UNL     1      -4.470   1.355  24.555  0.00  0.00    -0.297 N 
ATOM     10  N   UNL     1      -2.546  -1.152  24.286  0.00  0.00    -0.310 N 
ATOM     12  C   UNL     1      -5.102  -1.027  24.210  0.00  0.00    +0.027 C 
ATOM     13  C   UNL     1      -3.906  -0.363  26.256  0.00  0.00    +0.054 C 
ATOM     14  C   UNL     1      -5.018  -1.259  25.714  0.00  0.00    +0.018 C 
ATOM     15  C   UNL     1      -5.421   0.450  23.910  0.00  0.00    +0.113 C 
ATOM     16  C   UNL     1      -3.785  -1.475  23.566  0.00  0.00    +0.130 C 
ATOM     17  C   UNL     1      -4.258   1.115  25.991  0.00  0.00    +0.117 C 
ATOM     18  C   UNL     1      -2.574  -0.694  25.611  0.00  0.00    +0.027 A 
ATOM     19  C   UNL     1      -1.428  -0.512  26.293  0.00  0.00    +0.024 A 
ATOM     20  C   UNL     1      -1.334  -1.421  23.617  0.00  0.00    +0.274 A 
ATOM     21  C   UNL     1      -3.833   2.339  23.794  0.00  0.00    +0.247 C 
ATOM     22  C   UNL     1      -0.105  -1.177  24.412  0.00  0.00    +0.112 A 
ATOM     23  C   UNL     1      -0.153  -0.758  25.677  0.00  0.00    +0.031 A 
ENDROOT
BRANCH  21  24
ATOM     24  C   UNL     1      -2.854   3.200  24.465  0.00  0.00    +0.038 A 
ATOM     25  C   UNL     1      -1.702   2.642  25.016  0.00  0.00    +0.028 A 
ATOM     26  C   UNL     1      -3.080   4.571  24.549  0.00  0.00    +0.013 A 
ATOM     27  C   UNL     1      -0.772   3.461  25.655  0.00  0.00    +0.060 A 
ATOM     28  C   UNL     1      -2.150   5.390  25.188  0.00  0.00    +0.002 A 
ATOM     30  C   UNL     1      -0.996   4.836  25.741  0.00  0.00    +0.015 A 
BRANCH  27  33
ATOM      8  O   UNL     1       0.868   3.121  27.362  0.00  0.00    -0.245 OA
ATOM     33  C   UNL     1       0.431   2.883  26.232  0.00  0.00    +0.337 C 
BRANCH  33   7
ATOM      7  O   UNL     1       1.056   2.024  25.382  0.00  0.00    -0.477 OA
ATOM     38  H   UNL     1       2.009   2.231  25.287  0.00  0.00    +0.295 HD
ENDBRANCH  33   7
ENDBRANCH  27  33
ENDBRANCH  21  24
BRANCH  22  11
ATOM     11  N   UNL     1       1.161  -1.396  23.843  0.00  0.00    -0.211 N 
ATOM     37  H   UNL     1       1.862  -1.700  24.534  0.00  0.00    +0.174 HD
BRANCH  11   2
ATOM      2  S   UNL     1       1.718  -0.244  22.734  0.00  0.00    +0.072 S 
ATOM      5  O   UNL     1       1.568  -0.753  21.384  0.00  0.00    -0.150 OA
ATOM      6  O   UNL     1       1.194   1.063  23.085  0.00  0.00    -0.150 OA
BRANCH   2  29
ATOM      1 CL   UNL     1       7.833  -0.223  24.054  0.00  0.00    -0.084 Cl
ATOM     29  C   UNL     1       3.446  -0.238  23.106  0.00  0.00    +0.109 A 
ATOM     31  C   UNL     1       4.192   0.895  22.832  0.00  0.00    +0.030 A 
ATOM     32  C   UNL     1       4.020  -1.366  23.666  0.00  0.00    +0.030 A 
ATOM     34  C   UNL     1       5.555   0.899  23.127  0.00  0.00    +0.022 A 
ATOM     35  C   UNL     1       5.383  -1.362  23.960  0.00  0.00    +0.022 A 
ATOM     36  C   UNL     1       6.151  -0.229  23.690  0.00  0.00    +0.041 A 
ENDBRANCH   2  29
ENDBRANCH  11   2
ENDBRANCH  22  11
TORSDOF 6
ENDMDL
MODEL 4
REMARK VINA RESULT:      10.0      1.144      1.543
REMARK  Name = 7113917
REMARK  6 active torsions:
REMARK  status: ('A' for Active; 'I' for Inactive)
REMARK    1  A    between atoms: S_2  and  N_11
REMARK    2  A    between atoms: S_2  and  C_29
REMARK    3  A    between atoms: O_7  and  C_33
REMARK    4  A    between atoms: N_11  and  C_22
REMARK    5  A    between atoms: C_21  and  C_24
REMARK    6  A    between atoms: C_27  and  C_33
REMARK                            x       y       z     vdW  Elec       q    Type
REMARK                         _______ _______ _______ _____ _____    ______ ____
ROOT
ATOM      3  O   UNL     1       0.342   3.031  26.245  0.00  0.00    -0.266 OA
ATOM      4  O   UNL     1      -4.720   2.619  27.270  0.00  0.00    -0.270 OA
ATOM      9  N   UNL     1      -4.499   3.763  25.241  0.00  0.00    -0.297 N 
ATOM     10  N   UNL     1      -1.360   3.716  24.787  0.00  0.00    -0.310 N 
ATOM     12  C   UNL     1      -2.918   5.685  25.289  0.00  0.00    +0.027 C 
ATOM     13  C   UNL     1      -3.209   4.392  23.214  0.00  0.00    +0.054 C 
ATOM     14  C   UNL     1      -3.027   5.802  23.773  0.00  0.00    +0.018 C 
ATOM     15  C   UNL     1      -4.193   5.046  25.872  0.00  0.00    +0.113 C 
ATOM     16  C   UNL     1      -1.660   4.880  25.633  0.00  0.00    +0.130 C 
ATOM     17  C   UNL     1      -4.512   3.781  23.770  0.00  0.00    +0.117 C 
ATOM     18  C   UNL     1      -2.034   3.504  23.577  0.00  0.00    +0.027 A 
ATOM     19  C   UNL     1      -1.668   2.500  22.760  0.00  0.00    +0.024 A 
ATOM     20  C   UNL     1      -0.297   2.887  25.203  0.00  0.00    +0.274 A 
ATOM     21  C   UNL     1      -4.730   2.641  26.041  0.00  0.00    +0.247 C 
ATOM     22  C   UNL     1       0.043   1.782  24.272  0.00  0.00    +0.112 A 
ATOM     23  C   UNL     1      -0.598   1.608  23.116  0.00  0.00    +0.031 A 
ENDROOT
BRANCH  21  24
ATOM     24  C   UNL     1      -4.990   1.362  25.371  0.00  0.00    +0.038 A 
ATOM     25  C   UNL     1      -3.986   0.398  25.303  0.00  0.00    +0.028 A 
ATOM     26  C   UNL     1      -6.239   1.117  24.806  0.00  0.00    +0.013 A 
ATOM     27  C   UNL     1      -4.234  -0.818  24.666  0.00  0.00    +0.060 A 
ATOM     28  C   UNL     1      -6.487  -0.098  24.169  0.00  0.00    +0.002 A 
ATOM     30  C   UNL     1      -5.485  -1.065  24.099  0.00  0.00    +0.015 A 
BRANCH  27  33
ATOM      8  O   UNL     1      -3.378  -3.045  24.512  0.00  0.00    -0.245 OA
ATOM     33  C   UNL     1      -3.191  -1.827  24.593  0.00  0.00    +0.337 C 
BRANCH  33   7
ATOM      7  O   UNL     1      -1.941  -1.289  24.619  0.00  0.00    -0.477 OA
ATOM     38  H   UNL     1      -1.752  -0.765  23.813  0.00  0.00    +0.295 HD
ENDBRANCH  33   7
ENDBRANCH  27  33
ENDBRANCH  21  24
BRANCH  22  11
ATOM     11  N   UNL     1       1.075   0.882  24.588  0.00  0.00    -0.211 N 
ATOM     37  H   UNL     1       1.930   1.353  24.917  0.00  0.00    +0.174 HD
BRANCH  11   2
ATOM      2  S   UNL     1       1.344  -0.393  23.508  0.00  0.00    +0.072 S 
ATOM      5  O   UNL     1       0.958  -1.648  24.126  0.00  0.00    -0.150 OA
ATOM      6  O   UNL     1       0.834  -0.037  22.197  0.00  0.00    -0.150 OA
BRANCH   2  29
ATOM      1 CL   UNL     1       7.591  -0.329  23.164  0.00  0.00    -0.084 Cl
ATOM     29  C   UNL     1       3.110  -0.375  23.411  0.00  0.00    +0.109 A 
ATOM     31  C   UNL     1       3.822  -1.468  23.871  0.00  0.00    +0.030 A 
ATOM     32  C   UNL     1       3.745   0.732  22.877  0.00  0.00    +0.030 A 
ATOM     34  C   UNL     1       5.214  -1.454  23.795  0.00  0.00    +0.022 A 
ATOM     35  C   UNL     1       5.138   0.747  22.801  0.00  0.00    +0.022 A 
ATOM     36  C   UNL     1       5.872  -0.346  23.260  0.00  0.00    +0.041 A 
ENDBRANCH   2  29
ENDBRANCH  11   2
ENDBRANCH  22  11
TORSDOF 6
ENDMDL
