MODEL 1
REMARK VINA RESULT:       3.7      0.000      0.000
REMARK  Name = 40777310
REMARK  12 active torsions:
REMARK  status: ('A' for Active; 'I' for Inactive)
REMARK    1  A    between atoms: S_1  and  N_5
REMARK    2  A    between atoms: S_1  and  C_23
REMARK    3  A    between atoms: N_5  and  C_17
REMARK    4  A    between atoms: C_11  and  C_18
REMARK    5  A    between atoms: C_12  and  C_17
REMARK    6  A    between atoms: C_20  and  C_22
REMARK    7  A    between atoms: C_21  and  C_26
REMARK    8  A    between atoms: C_22  and  C_24
REMARK    9  A    between atoms: C_22  and  C_25
REMARK   10  A    between atoms: C_24  and  C_27
REMARK   11  A    between atoms: C_25  and  C_28
REMARK   12  A    between atoms: C_29  and  C_38
REMARK                            x       y       z     vdW  Elec       q    Type
REMARK                         _______ _______ _______ _____ _____    ______ ____
ROOT
ATOM      4  N   UNL     1      -3.517  -1.993  25.847  0.00  0.00    -0.297 NA
ATOM     10  C   UNL     1      -1.602  -2.541  24.169  0.00  0.00    +0.002 C 
ATOM     11  C   UNL     1      -1.127  -1.493  25.214  0.00  0.00    +0.055 C 
ATOM     12  C   UNL     1      -4.019  -1.889  24.452  0.00  0.00    +0.072 C 
ATOM     13  C   UNL     1      -2.854  -2.006  23.445  0.00  0.00    +0.024 C 
ATOM     14  C   UNL     1      -2.036  -3.794  24.960  0.00  0.00    +0.019 C 
ATOM     15  C   UNL     1      -2.371  -1.071  26.046  0.00  0.00    +0.094 C 
ATOM     16  C   UNL     1      -3.036  -3.380  26.054  0.00  0.00    +0.085 C 
ENDROOT
BRANCH  11  18
ATOM      6  N   UNL     1      -0.834   0.924  24.998  0.00  0.00    -0.232 NA
ATOM      7  N   UNL     1       1.059   1.894  23.864  0.00  0.00    -0.232 NA
ATOM     18  C   UNL     1      -0.329  -0.295  24.720  0.00  0.00    +0.050 A 
ATOM     19  C   UNL     1       0.847  -0.498  24.028  0.00  0.00    +0.047 A 
ATOM     20  C   UNL     1       1.506   0.645  23.620  0.00  0.00    +0.048 A 
ATOM     21  C   UNL     1      -0.100   1.960  24.548  0.00  0.00    +0.160 A 
BRANCH  21  26
ATOM      8  N   UNL     1      -1.596   5.837  25.362  0.00  0.00    -0.263 NA
ATOM     26  C   UNL     1      -0.608   3.278  24.825  0.00  0.00    +0.022 A 
ATOM     31  C   UNL     1      -1.587   3.458  25.796  0.00  0.00    +0.031 A 
ATOM     32  C   UNL     1      -0.123   4.376  24.122  0.00  0.00    +0.031 A 
ATOM     36  C   UNL     1      -2.044   4.746  26.025  0.00  0.00    +0.111 A 
ATOM     37  C   UNL     1      -0.645   5.622  24.426  0.00  0.00    +0.111 A 
ENDBRANCH  21  26
BRANCH  20  22
ATOM     22  C   UNL     1       2.786   0.524  22.865  0.00  0.00    +0.037 C 
BRANCH  22  24
ATOM     24  C   UNL     1       3.839  -0.366  23.588  0.00  0.00    +0.006 C 
ATOM     27  C   UNL     1       5.251   0.203  23.507  0.00  0.00    +0.004 C 
ENDBRANCH  22  24
BRANCH  22  25
ATOM     25  C   UNL     1       2.593  -0.013  21.417  0.00  0.00    +0.006 C 
ATOM     28  C   UNL     1       1.227  -0.655  21.202  0.00  0.00    +0.004 C 
ENDBRANCH  22  25
ENDBRANCH  20  22
ENDBRANCH  11  18
BRANCH  12  17
ATOM     17  C   UNL     1      -4.846  -0.622  24.223  0.00  0.00    +0.124 C 
BRANCH  17   5
ATOM      5  N   UNL     1      -5.059   0.057  25.512  0.00  0.00    -0.188 NA
ATOM     39  H   UNL     1      -5.230  -0.542  26.329  0.00  0.00    +0.148 HD
BRANCH   5   1
ATOM      1  S   UNL     1      -5.712   1.630  25.553  0.00  0.00    +0.060 S 
ATOM      2  O   UNL     1      -5.431   2.231  26.842  0.00  0.00    -0.153 OA
ATOM      3  O   UNL     1      -7.071   1.593  25.045  0.00  0.00    -0.153 OA
BRANCH   1  23
ATOM     23  C   UNL     1      -4.731   2.459  24.339  0.00  0.00    +0.123 A 
ATOM     29  C   UNL     1      -4.751   3.847  24.199  0.00  0.00    +0.078 A 
ATOM     30  C   UNL     1      -3.920   1.687  23.507  0.00  0.00    +0.030 A 
ATOM     33  C   UNL     1      -3.961   4.462  23.228  0.00  0.00    +0.021 A 
ATOM     34  C   UNL     1      -3.130   2.302  22.536  0.00  0.00    +0.002 A 
ATOM     35  C   UNL     1      -3.150   3.690  22.397  0.00  0.00    +0.001 A 
BRANCH  29  38
ATOM      9  N   UNL     1      -6.240   5.338  25.710  0.00  0.00    -0.191 NA
ATOM     38  C   UNL     1      -5.573   4.671  25.034  0.00  0.00    +0.101 C 
ENDBRANCH  29  38
ENDBRANCH   1  23
ENDBRANCH   5   1
ENDBRANCH  17   5
ENDBRANCH  12  17
TORSDOF 10
ENDMDL
MODEL 2
REMARK VINA RESULT:       5.7      1.014      1.703
REMARK  Name = 40777310
REMARK  12 active torsions:
REMARK  status: ('A' for Active; 'I' for Inactive)
REMARK    1  A    between atoms: S_1  and  N_5
REMARK    2  A    between atoms: S_1  and  C_23
REMARK    3  A    between atoms: N_5  and  C_17
REMARK    4  A    between atoms: C_11  and  C_18
REMARK    5  A    between atoms: C_12  and  C_17
REMARK    6  A    between atoms: C_20  and  C_22
REMARK    7  A    between atoms: C_21  and  C_26
REMARK    8  A    between atoms: C_22  and  C_24
REMARK    9  A    between atoms: C_22  and  C_25
REMARK   10  A    between atoms: C_24  and  C_27
REMARK   11  A    between atoms: C_25  and  C_28
REMARK   12  A    between atoms: C_29  and  C_38
REMARK                            x       y       z     vdW  Elec       q    Type
REMARK                         _______ _______ _______ _____ _____    ______ ____
ROOT
ATOM      4  N   UNL     1      -2.934  -2.443  26.125  0.00  0.00    -0.297 NA
ATOM     10  C   UNL     1      -2.245  -2.062  23.642  0.00  0.00    +0.002 C 
ATOM     11  C   UNL     1      -1.055  -1.749  24.590  0.00  0.00    +0.055 C 
ATOM     12  C   UNL     1      -3.945  -1.595  25.442  0.00  0.00    +0.072 C 
ATOM     13  C   UNL     1      -3.454  -1.187  24.036  0.00  0.00    +0.024 C 
ATOM     14  C   UNL     1      -2.646  -3.530  23.898  0.00  0.00    +0.019 C 
ATOM     15  C   UNL     1      -1.597  -1.804  26.047  0.00  0.00    +0.094 C 
ATOM     16  C   UNL     1      -2.869  -3.739  25.406  0.00  0.00    +0.085 C 
ENDROOT
BRANCH  11  18
ATOM      6  N   UNL     1      -0.781   0.678  24.704  0.00  0.00    -0.232 NA
ATOM      7  N   UNL     1       1.192   1.788  23.882  0.00  0.00    -0.232 NA
ATOM     18  C   UNL     1      -0.234  -0.496  24.326  0.00  0.00    +0.050 A 
ATOM     19  C   UNL     1       1.004  -0.606  23.728  0.00  0.00    +0.047 A 
ATOM     20  C   UNL     1       1.680   0.582  23.528  0.00  0.00    +0.048 A 
ATOM     21  C   UNL     1      -0.025   1.764  24.457  0.00  0.00    +0.160 A 
BRANCH  21  26
ATOM      8  N   UNL     1      -1.652   5.503  25.601  0.00  0.00    -0.263 NA
ATOM     26  C   UNL     1      -0.578   3.035  24.846  0.00  0.00    +0.022 A 
ATOM     31  C   UNL     1      -1.518   3.104  25.868  0.00  0.00    +0.031 A 
ATOM     32  C   UNL     1      -0.175   4.199  24.201  0.00  0.00    +0.031 A 
ATOM     36  C   UNL     1      -2.020   4.350  26.206  0.00  0.00    +0.111 A 
ATOM     37  C   UNL     1      -0.737   5.396  24.612  0.00  0.00    +0.111 A 
ENDBRANCH  21  26
BRANCH  20  22
ATOM     22  C   UNL     1       3.027   0.562  22.888  0.00  0.00    +0.037 C 
BRANCH  22  24
ATOM     24  C   UNL     1       4.046  -0.345  23.639  0.00  0.00    +0.006 C 
ATOM     27  C   UNL     1       5.416   0.305  23.791  0.00  0.00    +0.004 C 
ENDBRANCH  22  24
BRANCH  22  25
ATOM     25  C   UNL     1       2.985   0.130  21.393  0.00  0.00    +0.006 C 
ATOM     28  C   UNL     1       1.666  -0.529  21.004  0.00  0.00    +0.004 C 
ENDBRANCH  22  25
ENDBRANCH  20  22
ENDBRANCH  11  18
BRANCH  12  17
ATOM     17  C   UNL     1      -4.348  -0.379  26.280  0.00  0.00    +0.124 C 
BRANCH  17   5
ATOM      5  N   UNL     1      -4.465   0.797  25.402  0.00  0.00    -0.188 NA
ATOM     39  H   UNL     1      -3.591   1.266  25.136  0.00  0.00    +0.148 HD
BRANCH   5   1
ATOM      1  S   UNL     1      -5.877   1.748  25.431  0.00  0.00    +0.060 S 
ATOM      2  O   UNL     1      -6.285   1.959  26.806  0.00  0.00    -0.153 OA
ATOM      3  O   UNL     1      -6.822   1.224  24.462  0.00  0.00    -0.153 OA
BRANCH   1  23
ATOM     23  C   UNL     1      -5.288   3.287  24.794  0.00  0.00    +0.123 A 
ATOM     29  C   UNL     1      -4.315   3.348  23.796  0.00  0.00    +0.078 A 
ATOM     30  C   UNL     1      -5.823   4.465  25.317  0.00  0.00    +0.030 A 
ATOM     33  C   UNL     1      -3.878   4.585  23.321  0.00  0.00    +0.021 A 
ATOM     34  C   UNL     1      -5.386   5.702  24.843  0.00  0.00    +0.002 A 
ATOM     35  C   UNL     1      -4.414   5.762  23.844  0.00  0.00    +0.001 A 
BRANCH  29  38
ATOM      9  N   UNL     1      -3.278   1.197  22.786  0.00  0.00    -0.191 NA
ATOM     38  C   UNL     1      -3.743   2.161  23.237  0.00  0.00    +0.101 C 
ENDBRANCH  29  38
ENDBRANCH   1  23
ENDBRANCH   5   1
ENDBRANCH  17   5
ENDBRANCH  12  17
TORSDOF 10
ENDMDL
MODEL 3
REMARK VINA RESULT:       5.7      1.541      5.025
REMARK  Name = 40777310
REMARK  12 active torsions:
REMARK  status: ('A' for Active; 'I' for Inactive)
REMARK    1  A    between atoms: S_1  and  N_5
REMARK    2  A    between atoms: S_1  and  C_23
REMARK    3  A    between atoms: N_5  and  C_17
REMARK    4  A    between atoms: C_11  and  C_18
REMARK    5  A    between atoms: C_12  and  C_17
REMARK    6  A    between atoms: C_20  and  C_22
REMARK    7  A    between atoms: C_21  and  C_26
REMARK    8  A    between atoms: C_22  and  C_24
REMARK    9  A    between atoms: C_22  and  C_25
REMARK   10  A    between atoms: C_24  and  C_27
REMARK   11  A    between atoms: C_25  and  C_28
REMARK   12  A    between atoms: C_29  and  C_38
REMARK                            x       y       z     vdW  Elec       q    Type
REMARK                         _______ _______ _______ _____ _____    ______ ____
ROOT
ATOM      4  N   UNL     1      -2.047   4.651  24.741  0.00  0.00    -0.297 NA
ATOM     10  C   UNL     1       0.425   4.002  25.243  0.00  0.00    +0.002 C 
ATOM     11  C   UNL     1      -0.104   3.216  24.013  0.00  0.00    +0.055 C 
ATOM     12  C   UNL     1      -1.893   4.313  26.180  0.00  0.00    +0.072 C 
ATOM     13  C   UNL     1      -0.490   3.729  26.455  0.00  0.00    +0.024 C 
ATOM     14  C   UNL     1       0.293   5.503  24.904  0.00  0.00    +0.019 C 
ATOM     15  C   UNL     1      -1.629   3.502  23.900  0.00  0.00    +0.094 C 
ATOM     16  C   UNL     1      -1.147   5.792  24.444  0.00  0.00    +0.085 C 
ENDROOT
BRANCH  11  18
ATOM      6  N   UNL     1      -0.740   0.879  24.348  0.00  0.00    -0.232 NA
ATOM      7  N   UNL     1       0.722  -0.947  23.768  0.00  0.00    -0.232 NA
ATOM     18  C   UNL     1       0.214   1.730  23.917  0.00  0.00    +0.050 A 
ATOM     19  C   UNL     1       1.429   1.325  23.407  0.00  0.00    +0.047 A 
ATOM     20  C   UNL     1       1.631  -0.040  23.355  0.00  0.00    +0.048 A 
ATOM     21  C   UNL     1      -0.425  -0.426  24.246  0.00  0.00    +0.160 A 
BRANCH  21  26
ATOM      8  N   UNL     1      -3.348  -3.188  25.573  0.00  0.00    -0.263 NA
ATOM     26  C   UNL     1      -1.418  -1.365  24.697  0.00  0.00    +0.022 A 
ATOM     31  C   UNL     1      -1.741  -2.469  23.916  0.00  0.00    +0.031 A 
ATOM     32  C   UNL     1      -2.060  -1.172  25.916  0.00  0.00    +0.031 A 
ATOM     36  C   UNL     1      -2.703  -3.344  24.394  0.00  0.00    +0.111 A 
ATOM     37  C   UNL     1      -3.008  -2.104  26.304  0.00  0.00    +0.111 A 
ENDBRANCH  21  26
BRANCH  20  22
ATOM     22  C   UNL     1       2.916  -0.572  22.818  0.00  0.00    +0.037 C 
BRANCH  22  24
ATOM     24  C   UNL     1       3.897   0.548  22.360  0.00  0.00    +0.006 C 
ATOM     27  C   UNL     1       4.924   0.908  23.427  0.00  0.00    +0.004 C 
ENDBRANCH  22  24
BRANCH  22  25
ATOM     25  C   UNL     1       3.659  -1.502  23.822  0.00  0.00    +0.006 C 
ATOM     28  C   UNL     1       5.171  -1.311  23.797  0.00  0.00    +0.004 C 
ENDBRANCH  22  25
ENDBRANCH  20  22
ENDBRANCH  11  18
BRANCH  12  17
ATOM     17  C   UNL     1      -3.004   3.389  26.683  0.00  0.00    +0.124 C 
BRANCH  17   5
ATOM      5  N   UNL     1      -4.289   4.107  26.637  0.00  0.00    -0.188 NA
ATOM     39  H   UNL     1      -4.759   4.273  27.536  0.00  0.00    +0.148 HD
BRANCH   5   1
ATOM      1  S   UNL     1      -5.275   4.009  25.252  0.00  0.00    +0.060 S 
ATOM      2  O   UNL     1      -4.788   4.939  24.251  0.00  0.00    -0.153 OA
ATOM      3  O   UNL     1      -6.668   4.037  25.659  0.00  0.00    -0.153 OA
BRANCH   1  23
ATOM     23  C   UNL     1      -4.937   2.370  24.684  0.00  0.00    +0.123 A 
ATOM     29  C   UNL     1      -5.478   1.247  25.311  0.00  0.00    +0.078 A 
ATOM     30  C   UNL     1      -4.104   2.216  23.576  0.00  0.00    +0.030 A 
ATOM     33  C   UNL     1      -5.186  -0.029  24.829  0.00  0.00    +0.021 A 
ATOM     34  C   UNL     1      -3.812   0.939  23.094  0.00  0.00    +0.002 A 
ATOM     35  C   UNL     1      -4.353  -0.183  23.721  0.00  0.00    +0.001 A 
BRANCH  29  38
ATOM      9  N   UNL     1      -7.031   1.465  27.376  0.00  0.00    -0.191 NA
ATOM     38  C   UNL     1      -6.334   1.368  26.451  0.00  0.00    +0.101 C 
ENDBRANCH  29  38
ENDBRANCH   1  23
ENDBRANCH   5   1
ENDBRANCH  17   5
ENDBRANCH  12  17
TORSDOF 10
ENDMDL
MODEL 4
REMARK VINA RESULT:       6.2      2.599      5.412
REMARK  Name = 40777310
REMARK  12 active torsions:
REMARK  status: ('A' for Active; 'I' for Inactive)
REMARK    1  A    between atoms: S_1  and  N_5
REMARK    2  A    between atoms: S_1  and  C_23
REMARK    3  A    between atoms: N_5  and  C_17
REMARK    4  A    between atoms: C_11  and  C_18
REMARK    5  A    between atoms: C_12  and  C_17
REMARK    6  A    between atoms: C_20  and  C_22
REMARK    7  A    between atoms: C_21  and  C_26
REMARK    8  A    between atoms: C_22  and  C_24
REMARK    9  A    between atoms: C_22  and  C_25
REMARK   10  A    between atoms: C_24  and  C_27
REMARK   11  A    between atoms: C_25  and  C_28
REMARK   12  A    between atoms: C_29  and  C_38
REMARK                            x       y       z     vdW  Elec       q    Type
REMARK                         _______ _______ _______ _____ _____    ______ ____
ROOT
ATOM      4  N   UNL     1      -4.945   3.747  24.158  0.00  0.00    -0.297 NA
ATOM     10  C   UNL     1      -3.547   4.285  26.288  0.00  0.00    +0.002 C 
ATOM     11  C   UNL     1      -2.620   4.157  25.048  0.00  0.00    +0.055 C 
ATOM     12  C   UNL     1      -5.315   2.817  25.256  0.00  0.00    +0.072 C 
ATOM     13  C   UNL     1      -4.357   2.983  26.456  0.00  0.00    +0.024 C 
ATOM     14  C   UNL     1      -4.557   5.410  25.976  0.00  0.00    +0.019 C 
ATOM     15  C   UNL     1      -3.493   3.642  23.868  0.00  0.00    +0.094 C 
ATOM     16  C   UNL     1      -5.225   5.128  24.619  0.00  0.00    +0.085 C 
ENDROOT
BRANCH  11  18
ATOM      6  N   UNL     1      -0.769   3.348  26.424  0.00  0.00    -0.232 NA
ATOM      7  N   UNL     1       0.996   1.975  25.525  0.00  0.00    -0.232 NA
ATOM     18  C   UNL     1      -1.325   3.371  25.196  0.00  0.00    +0.050 A 
ATOM     19  C   UNL     1      -0.789   2.730  24.099  0.00  0.00    +0.047 A 
ATOM     20  C   UNL     1       0.385   2.040  24.325  0.00  0.00    +0.048 A 
ATOM     21  C   UNL     1       0.374   2.642  26.517  0.00  0.00    +0.160 A 
BRANCH  21  26
ATOM      8  N   UNL     1       2.211   2.504  30.330  0.00  0.00    -0.263 NA
ATOM     26  C   UNL     1       0.999   2.595  27.813  0.00  0.00    +0.022 A 
ATOM     31  C   UNL     1       2.370   2.792  27.935  0.00  0.00    +0.031 A 
ATOM     32  C   UNL     1       0.233   2.353  28.949  0.00  0.00    +0.031 A 
ATOM     36  C   UNL     1       2.923   2.737  29.204  0.00  0.00    +0.111 A 
ATOM     37  C   UNL     1       0.882   2.318  30.172  0.00  0.00    +0.111 A 
ENDBRANCH  21  26
BRANCH  20  22
ATOM     22  C   UNL     1       1.040   1.315  23.197  0.00  0.00    +0.037 C 
BRANCH  22  24
ATOM     24  C   UNL     1       2.450   0.765  23.563  0.00  0.00    +0.006 C 
ATOM     27  C   UNL     1       3.527   1.192  22.573  0.00  0.00    +0.004 C 
ENDBRANCH  22  24
BRANCH  22  25
ATOM     25  C   UNL     1       0.178   0.144  22.643  0.00  0.00    +0.006 C 
ATOM     28  C   UNL     1       0.906  -0.677  21.584  0.00  0.00    +0.004 C 
ENDBRANCH  22  25
ENDBRANCH  20  22
ENDBRANCH  11  18
BRANCH  12  17
ATOM     17  C   UNL     1      -5.394   1.363  24.786  0.00  0.00    +0.124 C 
BRANCH  17   5
ATOM      5  N   UNL     1      -4.439   0.551  25.558  0.00  0.00    -0.188 NA
ATOM     39  H   UNL     1      -4.488   0.627  26.582  0.00  0.00    +0.148 HD
BRANCH   5   1
ATOM      1  S   UNL     1      -2.934   0.128  24.883  0.00  0.00    +0.060 S 
ATOM      2  O   UNL     1      -1.928   0.114  25.927  0.00  0.00    -0.153 OA
ATOM      3  O   UNL     1      -2.721   0.902  23.674  0.00  0.00    -0.153 OA
BRANCH   1  23
ATOM     23  C   UNL     1      -3.222  -1.542  24.381  0.00  0.00    +0.123 A 
ATOM     29  C   UNL     1      -2.237  -2.524  24.490  0.00  0.00    +0.078 A 
ATOM     30  C   UNL     1      -4.475  -1.868  23.863  0.00  0.00    +0.030 A 
ATOM     33  C   UNL     1      -2.506  -3.831  24.082  0.00  0.00    +0.021 A 
ATOM     34  C   UNL     1      -4.744  -3.174  23.455  0.00  0.00    +0.002 A 
ATOM     35  C   UNL     1      -3.760  -4.156  23.565  0.00  0.00    +0.001 A 
BRANCH  29  38
ATOM      9  N   UNL     1       0.115  -1.985  25.439  0.00  0.00    -0.191 NA
ATOM     38  C   UNL     1      -0.939  -2.226  25.015  0.00  0.00    +0.101 C 
ENDBRANCH  29  38
ENDBRANCH   1  23
ENDBRANCH   5   1
ENDBRANCH  17   5
ENDBRANCH  12  17
TORSDOF 10
ENDMDL
MODEL 5
REMARK VINA RESULT:       6.3      2.538      6.143
REMARK  Name = 40777310
REMARK  12 active torsions:
REMARK  status: ('A' for Active; 'I' for Inactive)
REMARK    1  A    between atoms: S_1  and  N_5
REMARK    2  A    between atoms: S_1  and  C_23
REMARK    3  A    between atoms: N_5  and  C_17
REMARK    4  A    between atoms: C_11  and  C_18
REMARK    5  A    between atoms: C_12  and  C_17
REMARK    6  A    between atoms: C_20  and  C_22
REMARK    7  A    between atoms: C_21  and  C_26
REMARK    8  A    between atoms: C_22  and  C_24
REMARK    9  A    between atoms: C_22  and  C_25
REMARK   10  A    between atoms: C_24  and  C_27
REMARK   11  A    between atoms: C_25  and  C_28
REMARK   12  A    between atoms: C_29  and  C_38
REMARK                            x       y       z     vdW  Elec       q    Type
REMARK                         _______ _______ _______ _____ _____    ______ ____
ROOT
ATOM      4  N   UNL     1      -4.542   3.770  23.923  0.00  0.00    -0.297 NA
ATOM     10  C   UNL     1      -3.347   4.371  26.158  0.00  0.00    +0.002 C 
ATOM     11  C   UNL     1      -2.304   4.128  25.032  0.00  0.00    +0.055 C 
ATOM     12  C   UNL     1      -5.070   2.924  25.025  0.00  0.00    +0.072 C 
ATOM     13  C   UNL     1      -4.235   3.118  26.309  0.00  0.00    +0.024 C 
ATOM     14  C   UNL     1      -4.261   5.520  25.679  0.00  0.00    +0.019 C 
ATOM     15  C   UNL     1      -3.075   3.582  23.796  0.00  0.00    +0.094 C 
ATOM     16  C   UNL     1      -4.798   5.187  24.276  0.00  0.00    +0.085 C 
ENDROOT
BRANCH  11  18
ATOM      6  N   UNL     1      -0.514   2.615  24.337  0.00  0.00    -0.232 NA
ATOM      7  N   UNL     1       1.140   1.787  25.881  0.00  0.00    -0.232 NA
ATOM     18  C   UNL     1      -1.073   3.295  25.359  0.00  0.00    +0.050 A 
ATOM     19  C   UNL     1      -0.591   3.271  26.651  0.00  0.00    +0.047 A 
ATOM     20  C   UNL     1       0.531   2.492  26.856  0.00  0.00    +0.048 A 
ATOM     21  C   UNL     1       0.574   1.892  24.664  0.00  0.00    +0.160 A 
BRANCH  21  26
ATOM      8  N   UNL     1       2.408  -0.286  21.529  0.00  0.00    -0.263 NA
ATOM     26  C   UNL     1       1.198   1.151  23.598  0.00  0.00    +0.022 A 
ATOM     31  C   UNL     1       2.559   1.295  23.352  0.00  0.00    +0.031 A 
ATOM     32  C   UNL     1       0.442   0.290  22.811  0.00  0.00    +0.031 A 
ATOM     36  C   UNL     1       3.112   0.561  22.315  0.00  0.00    +0.111 A 
ATOM     37  C   UNL     1       1.089  -0.399  21.798  0.00  0.00    +0.111 A 
ENDBRANCH  21  26
BRANCH  20  22
ATOM     22  C   UNL     1       1.124   2.404  28.221  0.00  0.00    +0.037 C 
BRANCH  22  24
ATOM     24  C   UNL     1       2.380   3.308  28.400  0.00  0.00    +0.006 C 
ATOM     27  C   UNL     1       3.637   2.515  28.734  0.00  0.00    +0.004 C 
ENDBRANCH  22  24
BRANCH  22  25
ATOM     25  C   UNL     1       0.107   2.737  29.352  0.00  0.00    +0.006 C 
ATOM     28  C   UNL     1       0.740   2.727  30.738  0.00  0.00    +0.004 C 
ENDBRANCH  22  25
ENDBRANCH  20  22
ENDBRANCH  11  18
BRANCH  12  17
ATOM     17  C   UNL     1      -5.174   1.450  24.630  0.00  0.00    +0.124 C 
BRANCH  17   5
ATOM      5  N   UNL     1      -4.295   0.652  25.500  0.00  0.00    -0.188 NA
ATOM     39  H   UNL     1      -4.385   0.802  26.513  0.00  0.00    +0.148 HD
BRANCH   5   1
ATOM      1  S   UNL     1      -2.785   0.111  24.928  0.00  0.00    +0.060 S 
ATOM      2  O   UNL     1      -1.858   0.019  26.039  0.00  0.00    -0.153 OA
ATOM      3  O   UNL     1      -2.430   0.866  23.741  0.00  0.00    -0.153 OA
BRANCH   1  23
ATOM     23  C   UNL     1      -3.167  -1.531  24.398  0.00  0.00    +0.123 A 
ATOM     29  C   UNL     1      -2.228  -2.561  24.458  0.00  0.00    +0.078 A 
ATOM     30  C   UNL     1      -4.449  -1.785  23.911  0.00  0.00    +0.030 A 
ATOM     33  C   UNL     1      -2.571  -3.844  24.029  0.00  0.00    +0.021 A 
ATOM     34  C   UNL     1      -4.792  -3.067  23.482  0.00  0.00    +0.002 A 
ATOM     35  C   UNL     1      -3.854  -4.097  23.542  0.00  0.00    +0.001 A 
BRANCH  29  38
ATOM      9  N   UNL     1       0.173  -2.155  25.348  0.00  0.00    -0.191 NA
ATOM     38  C   UNL     1      -0.903  -2.337  24.950  0.00  0.00    +0.101 C 
ENDBRANCH  29  38
ENDBRANCH   1  23
ENDBRANCH   5   1
ENDBRANCH  17   5
ENDBRANCH  12  17
TORSDOF 10
ENDMDL
MODEL 6
REMARK VINA RESULT:       6.3      2.489      5.402
REMARK  Name = 40777310
REMARK  12 active torsions:
REMARK  status: ('A' for Active; 'I' for Inactive)
REMARK    1  A    between atoms: S_1  and  N_5
REMARK    2  A    between atoms: S_1  and  C_23
REMARK    3  A    between atoms: N_5  and  C_17
REMARK    4  A    between atoms: C_11  and  C_18
REMARK    5  A    between atoms: C_12  and  C_17
REMARK    6  A    between atoms: C_20  and  C_22
REMARK    7  A    between atoms: C_21  and  C_26
REMARK    8  A    between atoms: C_22  and  C_24
REMARK    9  A    between atoms: C_22  and  C_25
REMARK   10  A    between atoms: C_24  and  C_27
REMARK   11  A    between atoms: C_25  and  C_28
REMARK   12  A    between atoms: C_29  and  C_38
REMARK                            x       y       z     vdW  Elec       q    Type
REMARK                         _______ _______ _______ _____ _____    ______ ____
ROOT
ATOM      4  N   UNL     1      -4.155   4.146  23.840  0.00  0.00    -0.297 NA
ATOM     10  C   UNL     1      -2.218   5.239  25.197  0.00  0.00    +0.002 C 
ATOM     11  C   UNL     1      -1.657   4.195  24.193  0.00  0.00    +0.055 C 
ATOM     12  C   UNL     1      -4.464   4.102  25.293  0.00  0.00    +0.072 C 
ATOM     13  C   UNL     1      -3.244   4.555  26.124  0.00  0.00    +0.024 C 
ATOM     14  C   UNL     1      -2.988   6.288  24.366  0.00  0.00    +0.019 C 
ATOM     15  C   UNL     1      -2.873   3.449  23.571  0.00  0.00    +0.094 C 
ATOM     16  C   UNL     1      -3.998   5.569  23.453  0.00  0.00    +0.085 C 
ENDROOT
BRANCH  11  18
ATOM      6  N   UNL     1      -0.217   3.340  25.974  0.00  0.00    -0.232 NA
ATOM      7  N   UNL     1       1.349   1.545  25.610  0.00  0.00    -0.232 NA
ATOM     18  C   UNL     1      -0.578   3.238  24.678  0.00  0.00    +0.050 A 
ATOM     19  C   UNL     1      -0.029   2.328  23.799  0.00  0.00    +0.047 A 
ATOM     20  C   UNL     1       0.940   1.498  24.326  0.00  0.00    +0.048 A 
ATOM     21  C   UNL     1       0.737   2.476  26.368  0.00  0.00    +0.160 A 
BRANCH  21  26
ATOM      8  N   UNL     1       1.950   2.711  30.419  0.00  0.00    -0.263 NA
ATOM     26  C   UNL     1       1.150   2.557  27.745  0.00  0.00    +0.022 A 
ATOM     31  C   UNL     1       2.479   2.815  28.061  0.00  0.00    +0.031 A 
ATOM     32  C   UNL     1       0.221   2.375  28.764  0.00  0.00    +0.031 A 
ATOM     36  C   UNL     1       2.826   2.883  29.401  0.00  0.00    +0.111 A 
ATOM     37  C   UNL     1       0.668   2.462  30.072  0.00  0.00    +0.111 A 
ENDBRANCH  21  26
BRANCH  20  22
ATOM     22  C   UNL     1       1.591   0.481  23.450  0.00  0.00    +0.037 C 
BRANCH  22  24
ATOM     24  C   UNL     1       0.596  -0.208  22.471  0.00  0.00    +0.006 C 
ATOM     27  C   UNL     1       1.261  -0.671  21.180  0.00  0.00    +0.004 C 
ENDBRANCH  22  24
BRANCH  22  25
ATOM     25  C   UNL     1       2.781   1.056  22.627  0.00  0.00    +0.006 C 
ATOM     28  C   UNL     1       4.129   0.498  23.068  0.00  0.00    +0.004 C 
ENDBRANCH  22  25
ENDBRANCH  20  22
ENDBRANCH  11  18
BRANCH  12  17
ATOM     17  C   UNL     1      -4.980   2.732  25.738  0.00  0.00    +0.124 C 
BRANCH  17   5
ATOM      5  N   UNL     1      -3.927   1.725  25.525  0.00  0.00    -0.188 NA
ATOM     39  H   UNL     1      -2.955   2.041  25.631  0.00  0.00    +0.148 HD
BRANCH   5   1
ATOM      1  S   UNL     1      -4.204   0.403  24.487  0.00  0.00    +0.060 S 
ATOM      2  O   UNL     1      -4.028   0.829  23.112  0.00  0.00    -0.153 OA
ATOM      3  O   UNL     1      -5.423  -0.271  24.892  0.00  0.00    -0.153 OA
BRANCH   1  23
ATOM     23  C   UNL     1      -2.861  -0.668  24.902  0.00  0.00    +0.123 A 
ATOM     29  C   UNL     1      -2.840  -2.007  24.512  0.00  0.00    +0.078 A 
ATOM     30  C   UNL     1      -1.802  -0.141  25.641  0.00  0.00    +0.030 A 
ATOM     33  C   UNL     1      -1.760  -2.819  24.861  0.00  0.00    +0.021 A 
ATOM     34  C   UNL     1      -0.722  -0.952  25.990  0.00  0.00    +0.002 A 
ATOM     35  C   UNL     1      -0.701  -2.291  25.600  0.00  0.00    +0.001 A 
BRANCH  29  38
ATOM      9  N   UNL     1      -4.779  -3.050  23.143  0.00  0.00    -0.191 NA
ATOM     38  C   UNL     1      -3.910  -2.583  23.756  0.00  0.00    +0.101 C 
ENDBRANCH  29  38
ENDBRANCH   1  23
ENDBRANCH   5   1
ENDBRANCH  17   5
ENDBRANCH  12  17
TORSDOF 10
ENDMDL
MODEL 7
REMARK VINA RESULT:       6.8      1.670      4.300
REMARK  Name = 40777310
REMARK  12 active torsions:
REMARK  status: ('A' for Active; 'I' for Inactive)
REMARK    1  A    between atoms: S_1  and  N_5
REMARK    2  A    between atoms: S_1  and  C_23
REMARK    3  A    between atoms: N_5  and  C_17
REMARK    4  A    between atoms: C_11  and  C_18
REMARK    5  A    between atoms: C_12  and  C_17
REMARK    6  A    between atoms: C_20  and  C_22
REMARK    7  A    between atoms: C_21  and  C_26
REMARK    8  A    between atoms: C_22  and  C_24
REMARK    9  A    between atoms: C_22  and  C_25
REMARK   10  A    between atoms: C_24  and  C_27
REMARK   11  A    between atoms: C_25  and  C_28
REMARK   12  A    between atoms: C_29  and  C_38
REMARK                            x       y       z     vdW  Elec       q    Type
REMARK                         _______ _______ _______ _____ _____    ______ ____
ROOT
ATOM      4  N   UNL     1      -3.263  -2.379  25.716  0.00  0.00    -0.297 NA
ATOM     10  C   UNL     1      -2.278  -2.084  23.323  0.00  0.00    +0.002 C 
ATOM     11  C   UNL     1      -1.182  -1.839  24.397  0.00  0.00    +0.055 C 
ATOM     12  C   UNL     1      -4.130  -1.474  24.918  0.00  0.00    +0.072 C 
ATOM     13  C   UNL     1      -3.458  -1.123  23.572  0.00  0.00    +0.024 C 
ATOM     14  C   UNL     1      -2.806  -3.518  23.544  0.00  0.00    +0.019 C 
ATOM     15  C   UNL     1      -1.884  -1.834  25.784  0.00  0.00    +0.094 C 
ATOM     16  C   UNL     1      -3.209  -3.687  25.020  0.00  0.00    +0.085 C 
ENDROOT
BRANCH  11  18
ATOM      6  N   UNL     1       1.040  -0.927  23.939  0.00  0.00    -0.232 NA
ATOM      7  N   UNL     1       1.469   1.443  23.876  0.00  0.00    -0.232 NA
ATOM     18  C   UNL     1      -0.251  -0.649  24.216  0.00  0.00    +0.050 A 
ATOM     19  C   UNL     1      -0.750   0.631  24.336  0.00  0.00    +0.047 A 
ATOM     20  C   UNL     1       0.165   1.649  24.154  0.00  0.00    +0.048 A 
ATOM     21  C   UNL     1       1.833   0.150  23.783  0.00  0.00    +0.160 A 
BRANCH  21  26
ATOM      8  N   UNL     1       5.908  -0.611  22.915  0.00  0.00    -0.263 NA
ATOM     26  C   UNL     1       3.219  -0.108  23.489  0.00  0.00    +0.022 A 
ATOM     31  C   UNL     1       3.972   0.834  22.797  0.00  0.00    +0.031 A 
ATOM     32  C   UNL     1       3.808  -1.301  23.894  0.00  0.00    +0.031 A 
ATOM     36  C   UNL     1       5.301   0.538  22.537  0.00  0.00    +0.111 A 
ATOM     37  C   UNL     1       5.144  -1.501  23.585  0.00  0.00    +0.111 A 
ENDBRANCH  21  26
BRANCH  20  22
ATOM     22  C   UNL     1      -0.283   3.068  24.265  0.00  0.00    +0.037 C 
BRANCH  22  24
ATOM     24  C   UNL     1      -0.184   3.626  25.715  0.00  0.00    +0.006 C 
ATOM     27  C   UNL     1      -0.113   2.528  26.769  0.00  0.00    +0.004 C 
ENDBRANCH  22  24
BRANCH  22  25
ATOM     25  C   UNL     1       0.486   4.027  23.310  0.00  0.00    +0.006 C 
ATOM     28  C   UNL     1      -0.109   5.430  23.278  0.00  0.00    +0.004 C 
ENDBRANCH  22  25
ENDBRANCH  20  22
ENDBRANCH  11  18
BRANCH  12  17
ATOM     17  C   UNL     1      -4.538  -0.221  25.696  0.00  0.00    +0.124 C 
BRANCH  17   5
ATOM      5  N   UNL     1      -5.126   0.757  24.766  0.00  0.00    -0.188 NA
ATOM     39  H   UNL     1      -4.663   0.869  23.856  0.00  0.00    +0.148 HD
BRANCH   5   1
ATOM      1  S   UNL     1      -5.989   2.097  25.366  0.00  0.00    +0.060 S 
ATOM      2  O   UNL     1      -6.509   1.781  26.683  0.00  0.00    -0.153 OA
ATOM      3  O   UNL     1      -6.877   2.592  24.331  0.00  0.00    -0.153 OA
BRANCH   1  23
ATOM     23  C   UNL     1      -4.705   3.295  25.560  0.00  0.00    +0.123 A 
ATOM     29  C   UNL     1      -3.771   3.543  24.554  0.00  0.00    +0.078 A 
ATOM     30  C   UNL     1      -4.641   4.004  26.759  0.00  0.00    +0.030 A 
ATOM     33  C   UNL     1      -2.773   4.498  24.748  0.00  0.00    +0.021 A 
ATOM     34  C   UNL     1      -3.644   4.960  26.954  0.00  0.00    +0.002 A 
ATOM     35  C   UNL     1      -2.710   5.207  25.948  0.00  0.00    +0.001 A 
BRANCH  29  38
ATOM      9  N   UNL     1      -3.831   2.258  22.303  0.00  0.00    -0.191 NA
ATOM     38  C   UNL     1      -3.805   2.833  23.311  0.00  0.00    +0.101 C 
ENDBRANCH  29  38
ENDBRANCH   1  23
ENDBRANCH   5   1
ENDBRANCH  17   5
ENDBRANCH  12  17
TORSDOF 10
ENDMDL
MODEL 8
REMARK VINA RESULT:       7.0      2.457      6.091
REMARK  Name = 40777310
REMARK  12 active torsions:
REMARK  status: ('A' for Active; 'I' for Inactive)
REMARK    1  A    between atoms: S_1  and  N_5
REMARK    2  A    between atoms: S_1  and  C_23
REMARK    3  A    between atoms: N_5  and  C_17
REMARK    4  A    between atoms: C_11  and  C_18
REMARK    5  A    between atoms: C_12  and  C_17
REMARK    6  A    between atoms: C_20  and  C_22
REMARK    7  A    between atoms: C_21  and  C_26
REMARK    8  A    between atoms: C_22  and  C_24
REMARK    9  A    between atoms: C_22  and  C_25
REMARK   10  A    between atoms: C_24  and  C_27
REMARK   11  A    between atoms: C_25  and  C_28
REMARK   12  A    between atoms: C_29  and  C_38
REMARK                            x       y       z     vdW  Elec       q    Type
REMARK                         _______ _______ _______ _____ _____    ______ ____
ROOT
ATOM      4  N   UNL     1      -4.717   3.678  24.263  0.00  0.00    -0.297 NA
ATOM     10  C   UNL     1      -3.118   4.710  26.043  0.00  0.00    +0.002 C 
ATOM     11  C   UNL     1      -2.304   4.090  24.874  0.00  0.00    +0.055 C 
ATOM     12  C   UNL     1      -5.087   3.196  25.619  0.00  0.00    +0.072 C 
ATOM     13  C   UNL     1      -4.030   3.628  26.659  0.00  0.00    +0.024 C 
ATOM     14  C   UNL     1      -4.041   5.782  25.423  0.00  0.00    +0.019 C 
ATOM     15  C   UNL     1      -3.307   3.325  23.964  0.00  0.00    +0.094 C 
ATOM     16  C   UNL     1      -4.833   5.157  24.261  0.00  0.00    +0.085 C 
ENDROOT
BRANCH  11  18
ATOM      6  N   UNL     1      -0.519   2.559  24.204  0.00  0.00    -0.232 NA
ATOM      7  N   UNL     1       1.122   1.736  25.764  0.00  0.00    -0.232 NA
ATOM     18  C   UNL     1      -1.079   3.253  25.216  0.00  0.00    +0.050 A 
ATOM     19  C   UNL     1      -0.603   3.239  26.510  0.00  0.00    +0.047 A 
ATOM     20  C   UNL     1       0.512   2.455  26.729  0.00  0.00    +0.048 A 
ATOM     21  C   UNL     1       0.563   1.833  24.543  0.00  0.00    +0.160 A 
BRANCH  21  26
ATOM      8  N   UNL     1       2.401  -0.389  21.442  0.00  0.00    -0.263 NA
ATOM     26  C   UNL     1       1.188   1.078  23.488  0.00  0.00    +0.022 A 
ATOM     31  C   UNL     1       0.430   0.212  22.707  0.00  0.00    +0.031 A 
ATOM     32  C   UNL     1       2.551   1.210  23.247  0.00  0.00    +0.031 A 
ATOM     36  C   UNL     1       1.078  -0.493  21.705  0.00  0.00    +0.111 A 
ATOM     37  C   UNL     1       3.104   0.462  22.221  0.00  0.00    +0.111 A 
ENDBRANCH  21  26
BRANCH  20  22
ATOM     22  C   UNL     1       1.099   2.377  28.098  0.00  0.00    +0.037 C 
BRANCH  22  24
ATOM     24  C   UNL     1       2.334   3.307  28.286  0.00  0.00    +0.006 C 
ATOM     27  C   UNL     1       3.587   2.548  28.705  0.00  0.00    +0.004 C 
ENDBRANCH  22  24
BRANCH  22  25
ATOM     25  C   UNL     1       0.068   2.688  29.222  0.00  0.00    +0.006 C 
ATOM     28  C   UNL     1       0.692   2.689  30.613  0.00  0.00    +0.004 C 
ENDBRANCH  22  25
ENDBRANCH  20  22
ENDBRANCH  11  18
BRANCH  12  17
ATOM     17  C   UNL     1      -5.335   1.686  25.653  0.00  0.00    +0.124 C 
BRANCH  17   5
ATOM      5  N   UNL     1      -4.059   0.981  25.451  0.00  0.00    -0.188 NA
ATOM     39  H   UNL     1      -3.204   1.480  25.727  0.00  0.00    +0.148 HD
BRANCH   5   1
ATOM      1  S   UNL     1      -3.911  -0.187  24.220  0.00  0.00    +0.060 S 
ATOM      2  O   UNL     1      -3.542   0.469  22.980  0.00  0.00    -0.153 OA
ATOM      3  O   UNL     1      -5.061  -1.071  24.264  0.00  0.00    -0.153 OA
BRANCH   1  23
ATOM     23  C   UNL     1      -2.520  -1.124  24.777  0.00  0.00    +0.123 A 
ATOM     29  C   UNL     1      -2.383  -2.482  24.487  0.00  0.00    +0.078 A 
ATOM     30  C   UNL     1      -1.542  -0.469  25.525  0.00  0.00    +0.030 A 
ATOM     33  C   UNL     1      -1.268  -3.184  24.946  0.00  0.00    +0.021 A 
ATOM     34  C   UNL     1      -0.427  -1.172  25.984  0.00  0.00    +0.002 A 
ATOM     35  C   UNL     1      -0.290  -2.529  25.694  0.00  0.00    +0.001 A 
BRANCH  29  38
ATOM      9  N   UNL     1      -4.167  -3.756  23.103  0.00  0.00    -0.191 NA
ATOM     38  C   UNL     1      -3.368  -3.186  23.723  0.00  0.00    +0.101 C 
ENDBRANCH  29  38
ENDBRANCH   1  23
ENDBRANCH   5   1
ENDBRANCH  17   5
ENDBRANCH  12  17
TORSDOF 10
ENDMDL
MODEL 9
REMARK VINA RESULT:       7.4      1.230      4.025
REMARK  Name = 40777310
REMARK  12 active torsions:
REMARK  status: ('A' for Active; 'I' for Inactive)
REMARK    1  A    between atoms: S_1  and  N_5
REMARK    2  A    between atoms: S_1  and  C_23
REMARK    3  A    between atoms: N_5  and  C_17
REMARK    4  A    between atoms: C_11  and  C_18
REMARK    5  A    between atoms: C_12  and  C_17
REMARK    6  A    between atoms: C_20  and  C_22
REMARK    7  A    between atoms: C_21  and  C_26
REMARK    8  A    between atoms: C_22  and  C_24
REMARK    9  A    between atoms: C_22  and  C_25
REMARK   10  A    between atoms: C_24  and  C_27
REMARK   11  A    between atoms: C_25  and  C_28
REMARK   12  A    between atoms: C_29  and  C_38
REMARK                            x       y       z     vdW  Elec       q    Type
REMARK                         _______ _______ _______ _____ _____    ______ ____
ROOT
ATOM      4  N   UNL     1      -3.351  -2.536  25.765  0.00  0.00    -0.297 NA
ATOM     10  C   UNL     1      -2.242  -2.074  23.454  0.00  0.00    +0.002 C 
ATOM     11  C   UNL     1      -1.225  -1.833  24.603  0.00  0.00    +0.055 C 
ATOM     12  C   UNL     1      -4.214  -1.633  24.959  0.00  0.00    +0.072 C 
ATOM     13  C   UNL     1      -3.482  -1.183  23.675  0.00  0.00    +0.024 C 
ATOM     14  C   UNL     1      -2.711  -3.541  23.573  0.00  0.00    +0.019 C 
ATOM     15  C   UNL     1      -2.008  -1.931  25.943  0.00  0.00    +0.094 C 
ATOM     16  C   UNL     1      -3.191  -3.803  25.011  0.00  0.00    +0.085 C 
ENDROOT
BRANCH  11  18
ATOM      6  N   UNL     1       0.904  -0.764  24.056  0.00  0.00    -0.232 NA
ATOM      7  N   UNL     1       1.281   1.593  24.388  0.00  0.00    -0.232 NA
ATOM     18  C   UNL     1      -0.345  -0.594  24.536  0.00  0.00    +0.050 A 
ATOM     19  C   UNL     1      -0.846   0.621  24.955  0.00  0.00    +0.047 A 
ATOM     20  C   UNL     1       0.020   1.692  24.857  0.00  0.00    +0.048 A 
ATOM     21  C   UNL     1       1.652   0.355  24.010  0.00  0.00    +0.160 A 
BRANCH  21  26
ATOM      8  N   UNL     1       5.596  -0.064  22.524  0.00  0.00    -0.263 NA
ATOM     26  C   UNL     1       2.993   0.212  23.505  0.00  0.00    +0.022 A 
ATOM     31  C   UNL     1       3.752  -0.902  23.844  0.00  0.00    +0.031 A 
ATOM     32  C   UNL     1       3.535   1.189  22.676  0.00  0.00    +0.031 A 
ATOM     36  C   UNL     1       5.036  -0.993  23.333  0.00  0.00    +0.111 A 
ATOM     37  C   UNL     1       4.829   1.005  22.217  0.00  0.00    +0.111 A 
ENDBRANCH  21  26
BRANCH  20  22
ATOM     22  C   UNL     1      -0.434   3.046  25.287  0.00  0.00    +0.037 C 
BRANCH  22  24
ATOM     24  C   UNL     1      -0.176   4.144  24.214  0.00  0.00    +0.006 C 
ATOM     27  C   UNL     1      -0.599   5.534  24.677  0.00  0.00    +0.004 C 
ENDBRANCH  22  24
BRANCH  22  25
ATOM     25  C   UNL     1      -1.937   3.086  25.689  0.00  0.00    +0.006 C 
ATOM     28  C   UNL     1      -2.181   3.847  26.988  0.00  0.00    +0.004 C 
ENDBRANCH  22  25
ENDBRANCH  20  22
ENDBRANCH  11  18
BRANCH  12  17
ATOM     17  C   UNL     1      -4.728  -0.441  25.769  0.00  0.00    +0.124 C 
BRANCH  17   5
ATOM      5  N   UNL     1      -5.898   0.138  25.090  0.00  0.00    -0.188 NA
ATOM     39  H   UNL     1      -6.199  -0.315  24.218  0.00  0.00    +0.148 HD
BRANCH   5   1
ATOM      1  S   UNL     1      -6.260   1.793  25.269  0.00  0.00    +0.060 S 
ATOM      2  O   UNL     1      -6.037   2.185  26.647  0.00  0.00    -0.153 OA
ATOM      3  O   UNL     1      -7.530   2.073  24.626  0.00  0.00    -0.153 OA
BRANCH   1  23
ATOM     23  C   UNL     1      -5.005   2.545  24.278  0.00  0.00    +0.123 A 
ATOM     29  C   UNL     1      -4.774   3.921  24.302  0.00  0.00    +0.078 A 
ATOM     30  C   UNL     1      -4.234   1.724  23.455  0.00  0.00    +0.030 A 
ATOM     33  C   UNL     1      -3.772   4.474  23.503  0.00  0.00    +0.021 A 
ATOM     34  C   UNL     1      -3.233   2.277  22.657  0.00  0.00    +0.002 A 
ATOM     35  C   UNL     1      -3.002   3.652  22.681  0.00  0.00    +0.001 A 
BRANCH  29  38
ATOM      9  N   UNL     1      -6.174   5.501  25.806  0.00  0.00    -0.191 NA
ATOM     38  C   UNL     1      -5.547   4.794  25.132  0.00  0.00    +0.101 C 
ENDBRANCH  29  38
ENDBRANCH   1  23
ENDBRANCH   5   1
ENDBRANCH  17   5
ENDBRANCH  12  17
TORSDOF 10
ENDMDL
