MODEL 1
REMARK VINA RESULT:       8.2      0.000      0.000
REMARK  Name = 11884549
REMARK  6 active torsions:
REMARK  status: ('A' for Active; 'I' for Inactive)
REMARK    1  A    between atoms: O_3  and  C_23
REMARK    2  A    between atoms: O_6  and  C_26
REMARK    3  A    between atoms: O_6  and  C_31
REMARK    4  A    between atoms: N_9  and  C_21
REMARK    5  A    between atoms: N_10  and  C_25
REMARK    6  A    between atoms: C_20  and  C_23
REMARK                            x       y       z     vdW  Elec       q    Type
REMARK                         _______ _______ _______ _____ _____    ______ ____
ROOT
ATOM      1  O   UNL     1      -1.256   0.821  22.536  0.00  0.00    -0.266 OA
ATOM      2  O   UNL     1      -2.418   3.567  27.263  0.00  0.00    -0.263 OA
ATOM      7  N   UNL     1      -3.137   0.970  23.914  0.00  0.00    -0.310 N 
ATOM      8  N   UNL     1      -4.182   3.408  25.737  0.00  0.00    -0.291 N 
ATOM     11  C   UNL     1      -5.024   2.649  23.506  0.00  0.00    +0.027 C 
ATOM     12  C   UNL     1      -5.140   1.130  25.434  0.00  0.00    +0.054 C 
ATOM     13  C   UNL     1      -5.905   1.623  24.208  0.00  0.00    +0.018 C 
ATOM     14  C   UNL     1      -3.751   1.952  23.012  0.00  0.00    +0.130 C 
ATOM     15  C   UNL     1      -4.708   3.832  24.439  0.00  0.00    +0.113 C 
ATOM     16  C   UNL     1      -4.896   2.309  26.392  0.00  0.00    +0.118 C 
ATOM     17  C   UNL     1      -3.816   0.500  25.042  0.00  0.00    +0.027 A 
ATOM     18  C   UNL     1      -3.288  -0.485  25.788  0.00  0.00    +0.024 A 
ATOM     19  C   UNL     1      -1.884   0.451  23.528  0.00  0.00    +0.273 A 
ATOM     20  C   UNL     1      -3.158   4.058  26.418  0.00  0.00    +0.324 C 
ATOM     21  C   UNL     1      -1.317  -0.626  24.401  0.00  0.00    +0.100 A 
ATOM     22  C   UNL     1      -2.012  -1.056  25.459  0.00  0.00    +0.030 A 
ENDROOT
BRANCH  21   9
ATOM      5  O   UNL     1       1.139   0.802  24.293  0.00  0.00    -0.252 OA
ATOM      9  N   UNL     1      -0.100  -1.145  24.069  0.00  0.00    -0.265 N 
ATOM     10  N   UNL     1       2.156  -1.215  23.656  0.00  0.00    -0.266 N 
ATOM     24  C   UNL     1       1.084  -0.397  24.031  0.00  0.00    +0.308 C 
ATOM     32  H   UNL     1      -0.097  -2.044  23.596  0.00  0.00    +0.157 HD
ATOM     34  H   UNL     1       1.943  -2.194  23.481  0.00  0.00    +0.156 HD
BRANCH  10  25
ATOM     25  C   UNL     1       3.514  -0.850  23.500  0.00  0.00    +0.077 A 
ATOM     26  C   UNL     1       3.878   0.065  22.525  0.00  0.00    +0.141 A 
ATOM     27  C   UNL     1       4.458  -1.424  24.338  0.00  0.00    +0.027 A 
ATOM     28  C   UNL     1       5.222   0.416  22.384  0.00  0.00    +0.047 A 
ATOM     29  C   UNL     1       5.800  -1.074  24.196  0.00  0.00    +0.002 A 
ATOM     30  C   UNL     1       6.182  -0.154  23.218  0.00  0.00    +0.004 A 
BRANCH  26   6
ATOM      6  O   UNL     1       2.956   0.634  21.698  0.00  0.00    -0.493 OA
ATOM     31  C   UNL     1       1.930  -0.217  21.191  0.00  0.00    +0.277 C 
ENDBRANCH  26   6
ENDBRANCH  10  25
ENDBRANCH  21   9
BRANCH  20  23
ATOM      4  O   UNL     1      -3.427   6.388  26.758  0.00  0.00    -0.240 OA
ATOM     23  C   UNL     1      -2.824   5.490  26.206  0.00  0.00    +0.392 C 
BRANCH  23   3
ATOM      3  O   UNL     1      -1.794   5.583  25.353  0.00  0.00    -0.474 OA
ATOM     33  H   UNL     1      -1.902   4.995  24.575  0.00  0.00    +0.296 HD
ENDBRANCH  23   3
ENDBRANCH  20  23
TORSDOF 5
ENDMDL
MODEL 2
REMARK VINA RESULT:      10.1      2.089      3.202
REMARK  Name = 11884549
REMARK  6 active torsions:
REMARK  status: ('A' for Active; 'I' for Inactive)
REMARK    1  A    between atoms: O_3  and  C_23
REMARK    2  A    between atoms: O_6  and  C_26
REMARK    3  A    between atoms: O_6  and  C_31
REMARK    4  A    between atoms: N_9  and  C_21
REMARK    5  A    between atoms: N_10  and  C_25
REMARK    6  A    between atoms: C_20  and  C_23
REMARK                            x       y       z     vdW  Elec       q    Type
REMARK                         _______ _______ _______ _____ _____    ______ ____
ROOT
ATOM      1  O   UNL     1      -0.315   1.645  25.705  0.00  0.00    -0.266 OA
ATOM      2  O   UNL     1      -5.725   0.550  24.828  0.00  0.00    -0.263 OA
ATOM      7  N   UNL     1      -2.068   2.803  24.684  0.00  0.00    -0.310 N 
ATOM      8  N   UNL     1      -5.222   2.777  25.326  0.00  0.00    -0.291 N 
ATOM     11  C   UNL     1      -3.515   4.506  25.930  0.00  0.00    +0.027 C 
ATOM     12  C   UNL     1      -3.972   4.018  23.565  0.00  0.00    +0.054 C 
ATOM     13  C   UNL     1      -3.705   5.144  24.560  0.00  0.00    +0.018 C 
ATOM     14  C   UNL     1      -2.270   3.613  25.892  0.00  0.00    +0.130 C 
ATOM     15  C   UNL     1      -4.773   3.723  26.350  0.00  0.00    +0.113 C 
ATOM     16  C   UNL     1      -5.271   3.291  23.955  0.00  0.00    +0.118 C 
ATOM     17  C   UNL     1      -2.820   3.031  23.526  0.00  0.00    +0.027 A 
ATOM     18  C   UNL     1      -2.539   2.362  22.396  0.00  0.00    +0.024 A 
ATOM     19  C   UNL     1      -1.015   1.867  24.716  0.00  0.00    +0.273 A 
ATOM     20  C   UNL     1      -5.713   1.505  25.596  0.00  0.00    +0.324 C 
ATOM     21  C   UNL     1      -0.751   1.124  23.443  0.00  0.00    +0.100 A 
ATOM     22  C   UNL     1      -1.484   1.388  22.357  0.00  0.00    +0.030 A 
ENDROOT
BRANCH  21   9
ATOM      5  O   UNL     1       2.034   1.669  23.622  0.00  0.00    -0.252 OA
ATOM      9  N   UNL     1       0.251   0.198  23.438  0.00  0.00    -0.265 N 
ATOM     10  N   UNL     1       2.383  -0.648  23.496  0.00  0.00    -0.266 N 
ATOM     24  C   UNL     1       1.612   0.519  23.529  0.00  0.00    +0.308 C 
ATOM     32  H   UNL     1       0.015  -0.734  23.109  0.00  0.00    +0.157 HD
ATOM     34  H   UNL     1       1.877  -1.527  23.424  0.00  0.00    +0.156 HD
BRANCH  10  25
ATOM     25  C   UNL     1       3.792  -0.761  23.562  0.00  0.00    +0.077 A 
ATOM     26  C   UNL     1       4.592   0.153  22.894  0.00  0.00    +0.141 A 
ATOM     27  C   UNL     1       4.343  -1.795  24.303  0.00  0.00    +0.027 A 
ATOM     28  C   UNL     1       5.980   0.029  22.970  0.00  0.00    +0.047 A 
ATOM     29  C   UNL     1       5.730  -1.919  24.377  0.00  0.00    +0.002 A 
ATOM     30  C   UNL     1       6.549  -1.007  23.710  0.00  0.00    +0.004 A 
BRANCH  26   6
ATOM      6  O   UNL     1       4.057   1.172  22.165  0.00  0.00    -0.493 OA
ATOM     31  C   UNL     1       3.572   0.852  20.863  0.00  0.00    +0.277 C 
ENDBRANCH  26   6
ENDBRANCH  10  25
ENDBRANCH  21   9
BRANCH  20  23
ATOM      4  O   UNL     1      -5.925   0.180  27.551  0.00  0.00    -0.240 OA
ATOM     23  C   UNL     1      -6.318   1.128  26.900  0.00  0.00    +0.392 C 
BRANCH  23   3
ATOM      3  O   UNL     1      -7.305   1.985  27.194  0.00  0.00    -0.474 OA
ATOM     33  H   UNL     1      -6.967   2.875  27.429  0.00  0.00    +0.296 HD
ENDBRANCH  23   3
ENDBRANCH  20  23
TORSDOF 5
ENDMDL
