MODEL 1
REMARK VINA RESULT:      -3.1      0.000      0.000
REMARK  Name = 11887564
REMARK  10 active torsions:
REMARK  status: ('A' for Active; 'I' for Inactive)
REMARK    1  A    between atoms: O_3  and  C_19
REMARK    2  A    between atoms: O_3  and  C_25
REMARK    3  A    between atoms: O_5  and  C_24
REMARK    4  A    between atoms: O_5  and  C_26
REMARK    5  A    between atoms: N_8  and  C_14
REMARK    6  A    between atoms: C_9  and  C_13
REMARK    7  A    between atoms: C_14  and  C_16
REMARK    8  A    between atoms: C_14  and  C_19
REMARK    9  A    between atoms: C_15  and  C_17
REMARK   10  A    between atoms: C_16  and  C_18
REMARK                            x       y       z     vdW  Elec       q    Type
REMARK                         _______ _______ _______ _____ _____    ______ ____
ROOT
ATOM      1  O   UNL     1      -2.568   1.836  22.638  0.00  0.00    -0.274 OA
ATOM      8  N   UNL     1      -3.472   0.879  24.558  0.00  0.00    -0.301 N 
ATOM     13  C   UNL     1      -3.308   1.882  23.618  0.00  0.00    +0.235 C 
ATOM     28  H   UNL     1      -4.114   1.025  25.332  0.00  0.00    +0.150 HD
ENDROOT
BRANCH  13   9
ATOM      2  O   UNL     1      -6.671   1.908  24.491  0.00  0.00    -0.276 OA
ATOM      6  N   UNL     1      -4.707   2.894  25.256  0.00  0.00    -0.288 N 
ATOM      7  N   UNL     1      -2.459   4.635  24.818  0.00  0.00    -0.312 NA
ATOM      9  C   UNL     1      -4.173   3.076  23.902  0.00  0.00    +0.175 C 
ATOM     10  C   UNL     1      -3.409   4.390  23.731  0.00  0.00    +0.113 C 
ATOM     11  C   UNL     1      -3.817   3.279  26.360  0.00  0.00    +0.123 C 
ATOM     12  C   UNL     1      -3.145   4.624  26.108  0.00  0.00    +0.100 C 
ATOM     15  C   UNL     1      -5.927   2.230  25.421  0.00  0.00    +0.213 C 
ATOM     17  C   UNL     1      -6.332   1.903  26.837  0.00  0.00    +0.109 C 
ATOM     27  H   UNL     1      -2.015   5.542  24.678  0.00  0.00    +0.122 HD
ENDBRANCH  13   9
BRANCH   8  14
ATOM     14  C   UNL     1      -2.771  -0.383  24.499  0.00  0.00    +0.186 C 
BRANCH  14  19
ATOM      4  O   UNL     1      -3.604  -2.095  25.986  0.00  0.00    -0.249 OA
ATOM     19  C   UNL     1      -3.659  -1.558  24.885  0.00  0.00    +0.328 C 
BRANCH  19   3
ATOM      3  O   UNL     1      -4.486  -1.933  23.869  0.00  0.00    -0.467 OA
ATOM     25  C   UNL     1      -4.366  -3.293  23.439  0.00  0.00    +0.280 C 
ENDBRANCH  19   3
ENDBRANCH  14  19
BRANCH  14  16
ATOM     16  C   UNL     1      -1.478  -0.343  25.327  0.00  0.00    +0.069 C 
BRANCH  16  18
ATOM     18  C   UNL     1      -0.240   0.036  24.547  0.00  0.00    -0.045 A 
ATOM     20  C   UNL     1       0.282   1.326  24.648  0.00  0.00    +0.007 A 
ATOM     21  C   UNL     1       0.382  -0.906  23.727  0.00  0.00    +0.007 A 
ATOM     22  C   UNL     1       1.426   1.674  23.929  0.00  0.00    +0.046 A 
ATOM     23  C   UNL     1       1.525  -0.558  23.008  0.00  0.00    +0.046 A 
ATOM     24  C   UNL     1       2.047   0.732  23.109  0.00  0.00    +0.120 A 
BRANCH  24   5
ATOM      5  O   UNL     1       3.163   1.072  22.407  0.00  0.00    -0.495 OA
ATOM     26  C   UNL     1       4.417   0.639  22.932  0.00  0.00    +0.277 C 
ENDBRANCH  24   5
ENDBRANCH  16  18
ENDBRANCH  14  16
ENDBRANCH   8  14
TORSDOF 7
ENDMDL
MODEL 2
REMARK VINA RESULT:      -2.8      2.181      5.725
REMARK  Name = 11887564
REMARK  10 active torsions:
REMARK  status: ('A' for Active; 'I' for Inactive)
REMARK    1  A    between atoms: O_3  and  C_19
REMARK    2  A    between atoms: O_3  and  C_25
REMARK    3  A    between atoms: O_5  and  C_24
REMARK    4  A    between atoms: O_5  and  C_26
REMARK    5  A    between atoms: N_8  and  C_14
REMARK    6  A    between atoms: C_9  and  C_13
REMARK    7  A    between atoms: C_14  and  C_16
REMARK    8  A    between atoms: C_14  and  C_19
REMARK    9  A    between atoms: C_15  and  C_17
REMARK   10  A    between atoms: C_16  and  C_18
REMARK                            x       y       z     vdW  Elec       q    Type
REMARK                         _______ _______ _______ _____ _____    ______ ____
ROOT
ATOM      1  O   UNL     1      -2.334   1.954  22.427  0.00  0.00    -0.274 OA
ATOM      8  N   UNL     1      -2.555   2.107  24.740  0.00  0.00    -0.301 N 
ATOM     13  C   UNL     1      -1.872   1.858  23.562  0.00  0.00    +0.235 C 
ATOM     28  H   UNL     1      -2.072   1.997  25.626  0.00  0.00    +0.150 HD
ENDROOT
BRANCH  13   9
ATOM      2  O   UNL     1       0.484   3.521  25.500  0.00  0.00    -0.276 OA
ATOM      6  N   UNL     1      -0.284   1.338  25.257  0.00  0.00    -0.288 N 
ATOM      7  N   UNL     1      -0.644  -1.010  23.634  0.00  0.00    -0.312 NA
ATOM      9  C   UNL     1      -0.443   1.468  23.804  0.00  0.00    +0.175 C 
ATOM     10  C   UNL     1      -0.059   0.196  23.045  0.00  0.00    +0.113 C 
ATOM     11  C   UNL     1      -0.729   0.068  25.846  0.00  0.00    +0.123 C 
ATOM     12  C   UNL     1      -0.254  -1.134  25.036  0.00  0.00    +0.100 C 
ATOM     15  C   UNL     1       0.112   2.456  25.999  0.00  0.00    +0.213 C 
ATOM     17  C   UNL     1       0.073   2.319  27.501  0.00  0.00    +0.109 C 
ATOM     27  H   UNL     1      -0.319  -1.827  23.119  0.00  0.00    +0.122 HD
ENDBRANCH  13   9
BRANCH   8  14
ATOM     14  C   UNL     1      -3.939   2.522  24.779  0.00  0.00    +0.186 C 
BRANCH  14  19
ATOM      4  O   UNL     1      -5.191   4.467  25.479  0.00  0.00    -0.249 OA
ATOM     19  C   UNL     1      -4.122   3.865  25.474  0.00  0.00    +0.328 C 
BRANCH  19   3
ATOM      3  O   UNL     1      -2.971   4.304  26.057  0.00  0.00    -0.467 OA
ATOM     25  C   UNL     1      -2.224   5.269  25.309  0.00  0.00    +0.280 C 
ENDBRANCH  19   3
ENDBRANCH  14  19
BRANCH  14  16
ATOM     16  C   UNL     1      -4.831   1.432  25.389  0.00  0.00    +0.069 C 
BRANCH  16  18
ATOM     18  C   UNL     1      -4.395   0.016  25.089  0.00  0.00    -0.045 A 
ATOM     20  C   UNL     1      -3.837  -0.771  26.096  0.00  0.00    +0.007 A 
ATOM     21  C   UNL     1      -4.553  -0.503  23.804  0.00  0.00    +0.007 A 
ATOM     22  C   UNL     1      -3.436  -2.078  25.818  0.00  0.00    +0.046 A 
ATOM     23  C   UNL     1      -4.151  -1.810  23.526  0.00  0.00    +0.046 A 
ATOM     24  C   UNL     1      -3.593  -2.597  24.533  0.00  0.00    +0.120 A 
BRANCH  24   5
ATOM      5  O   UNL     1      -3.201  -3.872  24.261  0.00  0.00    -0.495 OA
ATOM     26  C   UNL     1      -2.184  -4.043  23.275  0.00  0.00    +0.277 C 
ENDBRANCH  24   5
ENDBRANCH  16  18
ENDBRANCH  14  16
ENDBRANCH   8  14
TORSDOF 7
ENDMDL
MODEL 3
REMARK VINA RESULT:      -2.4      1.730      2.877
REMARK  Name = 11887564
REMARK  10 active torsions:
REMARK  status: ('A' for Active; 'I' for Inactive)
REMARK    1  A    between atoms: O_3  and  C_19
REMARK    2  A    between atoms: O_3  and  C_25
REMARK    3  A    between atoms: O_5  and  C_24
REMARK    4  A    between atoms: O_5  and  C_26
REMARK    5  A    between atoms: N_8  and  C_14
REMARK    6  A    between atoms: C_9  and  C_13
REMARK    7  A    between atoms: C_14  and  C_16
REMARK    8  A    between atoms: C_14  and  C_19
REMARK    9  A    between atoms: C_15  and  C_17
REMARK   10  A    between atoms: C_16  and  C_18
REMARK                            x       y       z     vdW  Elec       q    Type
REMARK                         _______ _______ _______ _____ _____    ______ ____
ROOT
ATOM      1  O   UNL     1      -4.763   1.150  24.283  0.00  0.00    -0.274 OA
ATOM      8  N   UNL     1      -2.653   0.646  25.128  0.00  0.00    -0.301 N 
ATOM     13  C   UNL     1      -3.839   1.359  25.065  0.00  0.00    +0.235 C 
ATOM     28  H   UNL     1      -1.955   0.906  25.818  0.00  0.00    +0.150 HD
ENDROOT
BRANCH  13   9
ATOM      2  O   UNL     1      -1.199   3.157  26.434  0.00  0.00    -0.276 OA
ATOM      6  N   UNL     1      -3.281   3.629  25.508  0.00  0.00    -0.288 N 
ATOM      7  N   UNL     1      -6.148   3.395  25.574  0.00  0.00    -0.312 NA
ATOM      9  C   UNL     1      -3.907   2.443  26.101  0.00  0.00    +0.175 C 
ATOM     10  C   UNL     1      -5.340   2.694  26.574  0.00  0.00    +0.113 C 
ATOM     11  C   UNL     1      -4.130   4.432  24.617  0.00  0.00    +0.123 C 
ATOM     12  C   UNL     1      -5.519   4.660  25.205  0.00  0.00    +0.100 C 
ATOM     15  C   UNL     1      -1.908   3.833  25.684  0.00  0.00    +0.213 C 
ATOM     17  C   UNL     1      -1.286   4.959  24.897  0.00  0.00    +0.109 C 
ATOM     27  H   UNL     1      -7.074   3.577  25.959  0.00  0.00    +0.122 HD
ENDBRANCH  13   9
BRANCH   8  14
ATOM     14  C   UNL     1      -2.350  -0.464  24.255  0.00  0.00    +0.186 C 
BRANCH  14  19
ATOM      4  O   UNL     1      -0.551  -1.242  25.669  0.00  0.00    -0.249 OA
ATOM     19  C   UNL     1      -1.497  -1.524  24.938  0.00  0.00    +0.328 C 
BRANCH  19   3
ATOM      3  O   UNL     1      -1.898  -2.788  24.627  0.00  0.00    -0.467 OA
ATOM     25  C   UNL     1      -3.312  -2.980  24.510  0.00  0.00    +0.280 C 
ENDBRANCH  19   3
ENDBRANCH  14  19
BRANCH  14  16
ATOM     16  C   UNL     1      -1.725   0.017  22.937  0.00  0.00    +0.069 C 
BRANCH  16  18
ATOM     18  C   UNL     1      -0.251   0.344  23.020  0.00  0.00    -0.045 A 
ATOM     20  C   UNL     1       0.678  -0.439  22.333  0.00  0.00    +0.007 A 
ATOM     21  C   UNL     1       0.180   1.429  23.782  0.00  0.00    +0.007 A 
ATOM     22  C   UNL     1       2.037  -0.136  22.408  0.00  0.00    +0.046 A 
ATOM     23  C   UNL     1       1.540   1.732  23.858  0.00  0.00    +0.046 A 
ATOM     24  C   UNL     1       2.468   0.949  23.171  0.00  0.00    +0.120 A 
BRANCH  24   5
ATOM      5  O   UNL     1       3.795   1.244  23.245  0.00  0.00    -0.495 OA
ATOM     26  C   UNL     1       4.707   0.147  23.212  0.00  0.00    +0.277 C 
ENDBRANCH  24   5
ENDBRANCH  16  18
ENDBRANCH  14  16
ENDBRANCH   8  14
TORSDOF 7
ENDMDL
MODEL 4
REMARK VINA RESULT:      -2.2      2.046      4.861
REMARK  Name = 11887564
REMARK  10 active torsions:
REMARK  status: ('A' for Active; 'I' for Inactive)
REMARK    1  A    between atoms: O_3  and  C_19
REMARK    2  A    between atoms: O_3  and  C_25
REMARK    3  A    between atoms: O_5  and  C_24
REMARK    4  A    between atoms: O_5  and  C_26
REMARK    5  A    between atoms: N_8  and  C_14
REMARK    6  A    between atoms: C_9  and  C_13
REMARK    7  A    between atoms: C_14  and  C_16
REMARK    8  A    between atoms: C_14  and  C_19
REMARK    9  A    between atoms: C_15  and  C_17
REMARK   10  A    between atoms: C_16  and  C_18
REMARK                            x       y       z     vdW  Elec       q    Type
REMARK                         _______ _______ _______ _____ _____    ______ ____
ROOT
ATOM      1  O   UNL     1      -3.097   4.238  26.514  0.00  0.00    -0.274 OA
ATOM      8  N   UNL     1      -2.063   2.823  24.982  0.00  0.00    -0.301 N 
ATOM     13  C   UNL     1      -3.134   3.516  25.521  0.00  0.00    +0.235 C 
ATOM     28  H   UNL     1      -2.208   2.253  24.153  0.00  0.00    +0.150 HD
ENDROOT
BRANCH  13   9
ATOM      2  O   UNL     1      -3.448   2.232  22.307  0.00  0.00    -0.276 OA
ATOM      6  N   UNL     1      -4.451   1.895  24.380  0.00  0.00    -0.288 N 
ATOM      7  N   UNL     1      -5.998   2.893  26.590  0.00  0.00    -0.312 NA
ATOM      9  C   UNL     1      -4.395   3.318  24.731  0.00  0.00    +0.175 C 
ATOM     10  C   UNL     1      -5.631   3.795  25.496  0.00  0.00    +0.113 C 
ATOM     11  C   UNL     1      -4.963   0.991  25.419  0.00  0.00    +0.123 C 
ATOM     12  C   UNL     1      -6.220   1.541  26.084  0.00  0.00    +0.100 C 
ATOM     15  C   UNL     1      -3.877   1.469  23.177  0.00  0.00    +0.213 C 
ATOM     17  C   UNL     1      -3.794  -0.021  22.959  0.00  0.00    +0.109 C 
ATOM     27  H   UNL     1      -6.852   3.233  27.033  0.00  0.00    +0.122 HD
ENDBRANCH  13   9
BRANCH   8  14
ATOM     14  C   UNL     1      -0.732   2.865  25.541  0.00  0.00    +0.186 C 
BRANCH  14  19
ATOM      4  O   UNL     1       1.267   2.360  24.280  0.00  0.00    -0.249 OA
ATOM     19  C   UNL     1       0.332   3.129  24.485  0.00  0.00    +0.328 C 
BRANCH  19   3
ATOM      3  O   UNL     1       0.125   4.305  23.828  0.00  0.00    -0.467 OA
ATOM     25  C   UNL     1      -0.420   5.369  24.615  0.00  0.00    +0.280 C 
ENDBRANCH  19   3
ENDBRANCH  14  19
BRANCH  14  16
ATOM     16  C   UNL     1      -0.430   1.601  26.359  0.00  0.00    +0.069 C 
BRANCH  16  18
ATOM     18  C   UNL     1      -0.967   0.319  25.764  0.00  0.00    -0.045 A 
ATOM     20  C   UNL     1      -2.072  -0.308  26.340  0.00  0.00    +0.007 A 
ATOM     21  C   UNL     1      -0.360  -0.235  24.637  0.00  0.00    +0.007 A 
ATOM     22  C   UNL     1      -2.569  -1.490  25.790  0.00  0.00    +0.046 A 
ATOM     23  C   UNL     1      -0.856  -1.417  24.088  0.00  0.00    +0.046 A 
ATOM     24  C   UNL     1      -1.960  -2.044  24.664  0.00  0.00    +0.120 A 
BRANCH  24   5
ATOM      5  O   UNL     1      -2.445  -3.198  24.127  0.00  0.00    -0.495 OA
ATOM     26  C   UNL     1      -3.862  -3.313  24.007  0.00  0.00    +0.277 C 
ENDBRANCH  24   5
ENDBRANCH  16  18
ENDBRANCH  14  16
ENDBRANCH   8  14
TORSDOF 7
ENDMDL
MODEL 5
REMARK VINA RESULT:      -2.1      1.808      5.283
REMARK  Name = 11887564
REMARK  10 active torsions:
REMARK  status: ('A' for Active; 'I' for Inactive)
REMARK    1  A    between atoms: O_3  and  C_19
REMARK    2  A    between atoms: O_3  and  C_25
REMARK    3  A    between atoms: O_5  and  C_24
REMARK    4  A    between atoms: O_5  and  C_26
REMARK    5  A    between atoms: N_8  and  C_14
REMARK    6  A    between atoms: C_9  and  C_13
REMARK    7  A    between atoms: C_14  and  C_16
REMARK    8  A    between atoms: C_14  and  C_19
REMARK    9  A    between atoms: C_15  and  C_17
REMARK   10  A    between atoms: C_16  and  C_18
REMARK                            x       y       z     vdW  Elec       q    Type
REMARK                         _______ _______ _______ _____ _____    ______ ____
ROOT
ATOM      1  O   UNL     1       0.626   2.461  25.444  0.00  0.00    -0.274 OA
ATOM      8  N   UNL     1       0.559   1.450  23.348  0.00  0.00    -0.301 N 
ATOM     13  C   UNL     1       0.187   2.385  24.299  0.00  0.00    +0.235 C 
ATOM     28  H   UNL     1       0.130   1.480  22.429  0.00  0.00    +0.150 HD
ENDROOT
BRANCH  13   9
ATOM      2  O   UNL     1      -2.146   1.862  21.777  0.00  0.00    -0.276 OA
ATOM      6  N   UNL     1      -2.141   2.722  23.940  0.00  0.00    -0.288 N 
ATOM      7  N   UNL     1      -1.246   4.692  25.835  0.00  0.00    -0.312 NA
ATOM      9  C   UNL     1      -0.830   3.357  23.774  0.00  0.00    +0.175 C 
ATOM     10  C   UNL     1      -0.732   4.718  24.465  0.00  0.00    +0.113 C 
ATOM     11  C   UNL     1      -2.743   2.819  25.277  0.00  0.00    +0.123 C 
ATOM     12  C   UNL     1      -2.631   4.227  25.852  0.00  0.00    +0.100 C 
ATOM     15  C   UNL     1      -2.655   1.941  22.898  0.00  0.00    +0.213 C 
ATOM     17  C   UNL     1      -3.911   1.160  23.195  0.00  0.00    +0.109 C 
ATOM     27  H   UNL     1      -1.201   5.632  26.229  0.00  0.00    +0.122 HD
ENDBRANCH  13   9
BRANCH   8  14
ATOM     14  C   UNL     1       1.540   0.418  23.595  0.00  0.00    +0.186 C 
BRANCH  14  19
ATOM      4  O   UNL     1       2.652  -0.028  21.496  0.00  0.00    -0.249 OA
ATOM     19  C   UNL     1       2.703   0.477  22.614  0.00  0.00    +0.328 C 
BRANCH  19   3
ATOM      3  O   UNL     1       3.781   1.129  23.132  0.00  0.00    -0.467 OA
ATOM     25  C   UNL     1       4.965   0.341  23.296  0.00  0.00    +0.280 C 
ENDBRANCH  19   3
ENDBRANCH  14  19
BRANCH  14  16
ATOM     16  C   UNL     1       0.890  -0.972  23.635  0.00  0.00    +0.069 C 
BRANCH  16  18
ATOM     18  C   UNL     1      -0.462  -1.019  24.311  0.00  0.00    -0.045 A 
ATOM     20  C   UNL     1      -0.667  -0.336  25.510  0.00  0.00    +0.007 A 
ATOM     21  C   UNL     1      -1.504  -1.745  23.735  0.00  0.00    +0.007 A 
ATOM     22  C   UNL     1      -1.914  -0.378  26.133  0.00  0.00    +0.046 A 
ATOM     23  C   UNL     1      -2.751  -1.788  24.358  0.00  0.00    +0.046 A 
ATOM     24  C   UNL     1      -2.956  -1.105  25.557  0.00  0.00    +0.120 A 
BRANCH  24   5
ATOM      5  O   UNL     1      -4.174  -1.147  26.165  0.00  0.00    -0.495 OA
ATOM     26  C   UNL     1      -5.020  -0.010  26.001  0.00  0.00    +0.277 C 
ENDBRANCH  24   5
ENDBRANCH  16  18
ENDBRANCH  14  16
ENDBRANCH   8  14
TORSDOF 7
ENDMDL
MODEL 6
REMARK VINA RESULT:      -1.8      1.743      4.727
REMARK  Name = 11887564
REMARK  10 active torsions:
REMARK  status: ('A' for Active; 'I' for Inactive)
REMARK    1  A    between atoms: O_3  and  C_19
REMARK    2  A    between atoms: O_3  and  C_25
REMARK    3  A    between atoms: O_5  and  C_24
REMARK    4  A    between atoms: O_5  and  C_26
REMARK    5  A    between atoms: N_8  and  C_14
REMARK    6  A    between atoms: C_9  and  C_13
REMARK    7  A    between atoms: C_14  and  C_16
REMARK    8  A    between atoms: C_14  and  C_19
REMARK    9  A    between atoms: C_15  and  C_17
REMARK   10  A    between atoms: C_16  and  C_18
REMARK                            x       y       z     vdW  Elec       q    Type
REMARK                         _______ _______ _______ _____ _____    ______ ____
ROOT
ATOM      1  O   UNL     1      -1.594   4.174  25.805  0.00  0.00    -0.274 OA
ATOM      8  N   UNL     1      -1.258   2.286  24.485  0.00  0.00    -0.301 N 
ATOM     13  C   UNL     1      -1.955   3.399  24.922  0.00  0.00    +0.235 C 
ATOM     28  H   UNL     1      -1.653   1.713  23.745  0.00  0.00    +0.150 HD
ENDROOT
BRANCH  13   9
ATOM      2  O   UNL     1      -2.868   2.005  21.873  0.00  0.00    -0.276 OA
ATOM      6  N   UNL     1      -3.824   2.267  23.978  0.00  0.00    -0.288 N 
ATOM      7  N   UNL     1      -4.796   3.977  26.077  0.00  0.00    -0.312 NA
ATOM      9  C   UNL     1      -3.239   3.598  24.170  0.00  0.00    +0.175 C 
ATOM     10  C   UNL     1      -4.180   4.568  24.888  0.00  0.00    +0.113 C 
ATOM     11  C   UNL     1      -4.578   1.721  25.115  0.00  0.00    +0.123 C 
ATOM     12  C   UNL     1      -5.517   2.756  25.726  0.00  0.00    +0.100 C 
ATOM     15  C   UNL     1      -3.501   1.543  22.825  0.00  0.00    +0.213 C 
ATOM     17  C   UNL     1      -3.974   0.112  22.772  0.00  0.00    +0.109 C 
ATOM     27  H   UNL     1      -5.446   4.648  26.487  0.00  0.00    +0.122 HD
ENDBRANCH  13   9
BRANCH   8  14
ATOM     14  C   UNL     1       0.019   1.887  25.032  0.00  0.00    +0.186 C 
BRANCH  14  19
ATOM      4  O   UNL     1       2.133   1.951  23.863  0.00  0.00    -0.249 OA
ATOM     19  C   UNL     1       1.007   1.471  23.951  0.00  0.00    +0.328 C 
BRANCH  19   3
ATOM      3  O   UNL     1       0.485   0.536  23.108  0.00  0.00    -0.467 OA
ATOM     25  C   UNL     1       1.432  -0.174  22.303  0.00  0.00    +0.280 C 
ENDBRANCH  19   3
ENDBRANCH  14  19
BRANCH  14  16
ATOM     16  C   UNL     1      -0.148   0.804  26.107  0.00  0.00    +0.069 C 
BRANCH  16  18
ATOM     18  C   UNL     1      -1.089  -0.319  25.733  0.00  0.00    -0.045 A 
ATOM     20  C   UNL     1      -0.644  -1.361  24.919  0.00  0.00    +0.007 A 
ATOM     21  C   UNL     1      -2.402  -0.314  26.204  0.00  0.00    +0.007 A 
ATOM     22  C   UNL     1      -1.512  -2.396  24.575  0.00  0.00    +0.046 A 
ATOM     23  C   UNL     1      -3.270  -1.350  25.860  0.00  0.00    +0.046 A 
ATOM     24  C   UNL     1      -2.825  -2.391  25.045  0.00  0.00    +0.120 A 
BRANCH  24   5
ATOM      5  O   UNL     1      -3.673  -3.402  24.709  0.00  0.00    -0.495 OA
ATOM     26  C   UNL     1      -4.523  -3.189  23.583  0.00  0.00    +0.277 C 
ENDBRANCH  24   5
ENDBRANCH  16  18
ENDBRANCH  14  16
ENDBRANCH   8  14
TORSDOF 7
ENDMDL
MODEL 7
REMARK VINA RESULT:      -1.3      2.029      4.793
REMARK  Name = 11887564
REMARK  10 active torsions:
REMARK  status: ('A' for Active; 'I' for Inactive)
REMARK    1  A    between atoms: O_3  and  C_19
REMARK    2  A    between atoms: O_3  and  C_25
REMARK    3  A    between atoms: O_5  and  C_24
REMARK    4  A    between atoms: O_5  and  C_26
REMARK    5  A    between atoms: N_8  and  C_14
REMARK    6  A    between atoms: C_9  and  C_13
REMARK    7  A    between atoms: C_14  and  C_16
REMARK    8  A    between atoms: C_14  and  C_19
REMARK    9  A    between atoms: C_15  and  C_17
REMARK   10  A    between atoms: C_16  and  C_18
REMARK                            x       y       z     vdW  Elec       q    Type
REMARK                         _______ _______ _______ _____ _____    ______ ____
ROOT
ATOM      1  O   UNL     1      -3.022   2.939  23.408  0.00  0.00    -0.274 OA
ATOM      8  N   UNL     1      -3.927   1.750  25.194  0.00  0.00    -0.301 N 
ATOM     13  C   UNL     1      -2.967   2.524  24.563  0.00  0.00    +0.235 C 
ATOM     28  H   UNL     1      -3.777   1.462  26.156  0.00  0.00    +0.150 HD
ENDROOT
BRANCH  13   9
ATOM      2  O   UNL     1      -0.199   0.540  25.258  0.00  0.00    -0.276 OA
ATOM      6  N   UNL     1      -0.599   2.750  24.646  0.00  0.00    -0.288 N 
ATOM      7  N   UNL     1      -1.753   5.323  25.218  0.00  0.00    -0.312 NA
ATOM      9  C   UNL     1      -1.812   2.845  25.466  0.00  0.00    +0.175 C 
ATOM     10  C   UNL     1      -1.973   4.208  26.141  0.00  0.00    +0.113 C 
ATOM     11  C   UNL     1      -0.280   3.925  23.825  0.00  0.00    +0.123 C 
ATOM     12  C   UNL     1      -0.429   5.226  24.607  0.00  0.00    +0.100 C 
ATOM     15  C   UNL     1       0.072   1.525  24.566  0.00  0.00    +0.213 C 
ATOM     17  C   UNL     1       1.195   1.435  23.563  0.00  0.00    +0.109 C 
ATOM     27  H   UNL     1      -1.825   6.202  25.729  0.00  0.00    +0.122 HD
ENDBRANCH  13   9
BRANCH   8  14
ATOM     14  C   UNL     1      -5.148   1.324  24.549  0.00  0.00    +0.186 C 
BRANCH  14  19
ATOM      4  O   UNL     1      -7.470   1.991  24.511  0.00  0.00    -0.249 OA
ATOM     19  C   UNL     1      -6.356   2.130  25.006  0.00  0.00    +0.328 C 
BRANCH  19   3
ATOM      3  O   UNL     1      -6.042   3.012  25.997  0.00  0.00    -0.467 OA
ATOM     25  C   UNL     1      -5.856   4.370  25.584  0.00  0.00    +0.280 C 
ENDBRANCH  19   3
ENDBRANCH  14  19
BRANCH  14  16
ATOM     16  C   UNL     1      -5.368  -0.186  24.713  0.00  0.00    +0.069 C 
BRANCH  16  18
ATOM     18  C   UNL     1      -4.100  -0.999  24.847  0.00  0.00    -0.045 A 
ATOM     20  C   UNL     1      -3.312  -0.879  25.992  0.00  0.00    +0.007 A 
ATOM     21  C   UNL     1      -3.720  -1.871  23.826  0.00  0.00    +0.007 A 
ATOM     22  C   UNL     1      -2.143  -1.630  26.115  0.00  0.00    +0.046 A 
ATOM     23  C   UNL     1      -2.551  -2.621  23.950  0.00  0.00    +0.046 A 
ATOM     24  C   UNL     1      -1.762  -2.500  25.094  0.00  0.00    +0.120 A 
BRANCH  24   5
ATOM      5  O   UNL     1      -0.621  -3.233  25.215  0.00  0.00    -0.495 OA
ATOM     26  C   UNL     1       0.596  -2.513  25.401  0.00  0.00    +0.277 C 
ENDBRANCH  24   5
ENDBRANCH  16  18
ENDBRANCH  14  16
ENDBRANCH   8  14
TORSDOF 7
ENDMDL
MODEL 8
REMARK VINA RESULT:      -1.2      2.577      4.972
REMARK  Name = 11887564
REMARK  10 active torsions:
REMARK  status: ('A' for Active; 'I' for Inactive)
REMARK    1  A    between atoms: O_3  and  C_19
REMARK    2  A    between atoms: O_3  and  C_25
REMARK    3  A    between atoms: O_5  and  C_24
REMARK    4  A    between atoms: O_5  and  C_26
REMARK    5  A    between atoms: N_8  and  C_14
REMARK    6  A    between atoms: C_9  and  C_13
REMARK    7  A    between atoms: C_14  and  C_16
REMARK    8  A    between atoms: C_14  and  C_19
REMARK    9  A    between atoms: C_15  and  C_17
REMARK   10  A    between atoms: C_16  and  C_18
REMARK                            x       y       z     vdW  Elec       q    Type
REMARK                         _______ _______ _______ _____ _____    ______ ____
ROOT
ATOM      1  O   UNL     1      -4.238   4.476  23.531  0.00  0.00    -0.274 OA
ATOM      8  N   UNL     1      -4.074   2.225  24.102  0.00  0.00    -0.301 N 
ATOM     13  C   UNL     1      -3.616   3.417  23.566  0.00  0.00    +0.235 C 
ATOM     28  H   UNL     1      -3.472   1.407  24.077  0.00  0.00    +0.150 HD
ENDROOT
BRANCH  13   9
ATOM      2  O   UNL     1      -0.745   4.969  24.757  0.00  0.00    -0.276 OA
ATOM      6  N   UNL     1      -1.383   2.820  24.133  0.00  0.00    -0.288 N 
ATOM      7  N   UNL     1      -2.305   0.980  22.123  0.00  0.00    -0.312 NA
ATOM      9  C   UNL     1      -2.220   3.300  23.028  0.00  0.00    +0.175 C 
ATOM     10  C   UNL     1      -2.154   2.399  21.793  0.00  0.00    +0.113 C 
ATOM     11  C   UNL     1      -1.406   1.372  24.382  0.00  0.00    +0.123 C 
ATOM     12  C   UNL     1      -1.289   0.570  23.090  0.00  0.00    +0.100 C 
ATOM     15  C   UNL     1      -0.762   3.754  24.969  0.00  0.00    +0.213 C 
ATOM     17  C   UNL     1      -0.075   3.210  26.197  0.00  0.00    +0.109 C 
ATOM     27  H   UNL     1      -2.206   0.425  21.273  0.00  0.00    +0.122 HD
ENDBRANCH  13   9
BRANCH   8  14
ATOM     14  C   UNL     1      -5.379   2.078  24.704  0.00  0.00    +0.186 C 
BRANCH  14  19
ATOM      4  O   UNL     1      -6.162   2.369  26.972  0.00  0.00    -0.249 OA
ATOM     19  C   UNL     1      -5.483   2.796  26.043  0.00  0.00    +0.328 C 
BRANCH  19   3
ATOM      3  O   UNL     1      -4.758   3.950  26.066  0.00  0.00    -0.467 OA
ATOM     25  C   UNL     1      -3.653   3.972  26.975  0.00  0.00    +0.280 C 
ENDBRANCH  19   3
ENDBRANCH  14  19
BRANCH  14  16
ATOM     16  C   UNL     1      -5.781   0.600  24.812  0.00  0.00    +0.069 C 
BRANCH  16  18
ATOM     18  C   UNL     1      -4.622  -0.368  24.873  0.00  0.00    -0.045 A 
ATOM     20  C   UNL     1      -3.747  -0.342  25.959  0.00  0.00    +0.007 A 
ATOM     21  C   UNL     1      -4.428  -1.289  23.844  0.00  0.00    +0.007 A 
ATOM     22  C   UNL     1      -2.678  -1.235  26.016  0.00  0.00    +0.046 A 
ATOM     23  C   UNL     1      -3.359  -2.183  23.900  0.00  0.00    +0.046 A 
ATOM     24  C   UNL     1      -2.484  -2.156  24.986  0.00  0.00    +0.120 A 
BRANCH  24   5
ATOM      5  O   UNL     1      -1.440  -3.029  25.041  0.00  0.00    -0.495 OA
ATOM     26  C   UNL     1      -0.153  -2.484  25.331  0.00  0.00    +0.277 C 
ENDBRANCH  24   5
ENDBRANCH  16  18
ENDBRANCH  14  16
ENDBRANCH   8  14
TORSDOF 7
ENDMDL
MODEL 9
REMARK VINA RESULT:      -1.1      2.316      5.376
REMARK  Name = 11887564
REMARK  10 active torsions:
REMARK  status: ('A' for Active; 'I' for Inactive)
REMARK    1  A    between atoms: O_3  and  C_19
REMARK    2  A    between atoms: O_3  and  C_25
REMARK    3  A    between atoms: O_5  and  C_24
REMARK    4  A    between atoms: O_5  and  C_26
REMARK    5  A    between atoms: N_8  and  C_14
REMARK    6  A    between atoms: C_9  and  C_13
REMARK    7  A    between atoms: C_14  and  C_16
REMARK    8  A    between atoms: C_14  and  C_19
REMARK    9  A    between atoms: C_15  and  C_17
REMARK   10  A    between atoms: C_16  and  C_18
REMARK                            x       y       z     vdW  Elec       q    Type
REMARK                         _______ _______ _______ _____ _____    ______ ____
ROOT
ATOM      1  O   UNL     1      -0.662   0.686  25.899  0.00  0.00    -0.274 OA
ATOM      8  N   UNL     1      -2.190   0.088  24.247  0.00  0.00    -0.301 N 
ATOM     13  C   UNL     1      -1.172   0.852  24.794  0.00  0.00    +0.235 C 
ATOM     28  H   UNL     1      -2.537   0.316  23.321  0.00  0.00    +0.150 HD
ENDROOT
BRANCH  13   9
ATOM      2  O   UNL     1      -2.512   1.710  21.705  0.00  0.00    -0.276 OA
ATOM      6  N   UNL     1      -1.861   2.819  23.644  0.00  0.00    -0.288 N 
ATOM      7  N   UNL     1       0.191   3.564  25.519  0.00  0.00    -0.312 NA
ATOM      9  C   UNL     1      -0.711   1.935  23.863  0.00  0.00    +0.175 C 
ATOM     10  C   UNL     1       0.516   2.672  24.404  0.00  0.00    +0.113 C 
ATOM     11  C   UNL     1      -2.112   3.825  24.686  0.00  0.00    +0.123 C 
ATOM     12  C   UNL     1      -0.830   4.530  25.118  0.00  0.00    +0.100 C 
ATOM     15  C   UNL     1      -2.726   2.556  22.577  0.00  0.00    +0.213 C 
ATOM     17  C   UNL     1      -3.991   3.376  22.515  0.00  0.00    +0.109 C 
ATOM     27  H   UNL     1       1.032   4.063  25.807  0.00  0.00    +0.122 HD
ENDBRANCH  13   9
BRANCH   8  14
ATOM     14  C   UNL     1      -2.793  -1.031  24.932  0.00  0.00    +0.186 C 
BRANCH  14  19
ATOM      4  O   UNL     1      -3.012  -3.337  24.243  0.00  0.00    -0.249 OA
ATOM     19  C   UNL     1      -2.278  -2.370  24.421  0.00  0.00    +0.328 C 
BRANCH  19   3
ATOM      3  O   UNL     1      -0.932  -2.356  24.210  0.00  0.00    -0.467 OA
ATOM     25  C   UNL     1      -0.119  -2.558  25.371  0.00  0.00    +0.280 C 
ENDBRANCH  19   3
ENDBRANCH  14  19
BRANCH  14  16
ATOM     16  C   UNL     1      -4.326  -0.951  24.890  0.00  0.00    +0.069 C 
BRANCH  16  18
ATOM     18  C   UNL     1      -4.894   0.426  25.151  0.00  0.00    -0.045 A 
ATOM     20  C   UNL     1      -6.124   0.789  24.601  0.00  0.00    +0.007 A 
ATOM     21  C   UNL     1      -4.190   1.332  25.943  0.00  0.00    +0.007 A 
ATOM     22  C   UNL     1      -6.648   2.059  24.842  0.00  0.00    +0.046 A 
ATOM     23  C   UNL     1      -4.714   2.601  26.185  0.00  0.00    +0.046 A 
ATOM     24  C   UNL     1      -5.943   2.965  25.634  0.00  0.00    +0.120 A 
BRANCH  24   5
ATOM      5  O   UNL     1      -6.454   4.205  25.870  0.00  0.00    -0.495 OA
ATOM     26  C   UNL     1      -5.795   5.308  25.250  0.00  0.00    +0.277 C 
ENDBRANCH  24   5
ENDBRANCH  16  18
ENDBRANCH  14  16
ENDBRANCH   8  14
TORSDOF 7
ENDMDL
MODEL 10
REMARK VINA RESULT:      -1.1      2.097      5.972
REMARK  Name = 11887564
REMARK  10 active torsions:
REMARK  status: ('A' for Active; 'I' for Inactive)
REMARK    1  A    between atoms: O_3  and  C_19
REMARK    2  A    between atoms: O_3  and  C_25
REMARK    3  A    between atoms: O_5  and  C_24
REMARK    4  A    between atoms: O_5  and  C_26
REMARK    5  A    between atoms: N_8  and  C_14
REMARK    6  A    between atoms: C_9  and  C_13
REMARK    7  A    between atoms: C_14  and  C_16
REMARK    8  A    between atoms: C_14  and  C_19
REMARK    9  A    between atoms: C_15  and  C_17
REMARK   10  A    between atoms: C_16  and  C_18
REMARK                            x       y       z     vdW  Elec       q    Type
REMARK                         _______ _______ _______ _____ _____    ______ ____
ROOT
ATOM      1  O   UNL     1      -1.357  -0.345  26.918  0.00  0.00    -0.274 OA
ATOM      8  N   UNL     1      -2.022  -0.237  24.690  0.00  0.00    -0.301 N 
ATOM     13  C   UNL     1      -1.203   0.056  25.767  0.00  0.00    +0.235 C 
ATOM     28  H   UNL     1      -1.800   0.151  23.778  0.00  0.00    +0.150 HD
ENDROOT
BRANCH  13   9
ATOM      2  O   UNL     1       1.551  -0.806  23.832  0.00  0.00    -0.276 OA
ATOM      6  N   UNL     1       0.006   0.933  23.915  0.00  0.00    -0.288 N 
ATOM      7  N   UNL     1      -1.183   3.144  25.319  0.00  0.00    -0.312 NA
ATOM      9  C   UNL     1      -0.045   0.929  25.380  0.00  0.00    +0.175 C 
ATOM     10  C   UNL     1      -0.159   2.332  25.979  0.00  0.00    +0.113 C 
ATOM     11  C   UNL     1      -0.913   1.858  23.237  0.00  0.00    +0.123 C 
ATOM     12  C   UNL     1      -0.914   3.238  23.886  0.00  0.00    +0.100 C 
ATOM     15  C   UNL     1       0.780  -0.030  23.259  0.00  0.00    +0.213 C 
ATOM     17  C   UNL     1       0.644  -0.100  21.758  0.00  0.00    +0.109 C 
ATOM     27  H   UNL     1      -1.182   4.080  25.725  0.00  0.00    +0.122 HD
ENDBRANCH  13   9
BRANCH   8  14
ATOM     14  C   UNL     1      -3.193  -1.078  24.792  0.00  0.00    +0.186 C 
BRANCH  14  19
ATOM      4  O   UNL     1      -3.813  -3.350  24.252  0.00  0.00    -0.249 OA
ATOM     19  C   UNL     1      -2.934  -2.494  24.298  0.00  0.00    +0.328 C 
BRANCH  19   3
ATOM      3  O   UNL     1      -1.634  -2.685  23.939  0.00  0.00    -0.467 OA
ATOM     25  C   UNL     1      -0.747  -3.068  24.996  0.00  0.00    +0.280 C 
ENDBRANCH  19   3
ENDBRANCH  14  19
BRANCH  14  16
ATOM     16  C   UNL     1      -4.402  -0.437  24.097  0.00  0.00    +0.069 C 
BRANCH  16  18
ATOM     18  C   UNL     1      -4.784   0.929  24.622  0.00  0.00    -0.045 A 
ATOM     20  C   UNL     1      -5.658   1.042  25.704  0.00  0.00    +0.007 A 
ATOM     21  C   UNL     1      -4.260   2.076  24.025  0.00  0.00    +0.007 A 
ATOM     22  C   UNL     1      -6.008   2.302  26.188  0.00  0.00    +0.046 A 
ATOM     23  C   UNL     1      -4.611   3.335  24.510  0.00  0.00    +0.046 A 
ATOM     24  C   UNL     1      -5.485   3.448  25.591  0.00  0.00    +0.120 A 
BRANCH  24   5
ATOM      5  O   UNL     1      -5.828   4.679  26.064  0.00  0.00    -0.495 OA
ATOM     26  C   UNL     1      -6.448   5.577  25.146  0.00  0.00    +0.277 C 
ENDBRANCH  24   5
ENDBRANCH  16  18
ENDBRANCH  14  16
ENDBRANCH   8  14
TORSDOF 7
ENDMDL
