MODEL 1
REMARK VINA RESULT:      -5.5      0.000      0.000
REMARK  Name = 26763194
REMARK  5 active torsions:
REMARK  status: ('A' for Active; 'I' for Inactive)
REMARK    1  A    between atoms: N_4  and  C_13
REMARK    2  A    between atoms: N_6  and  C_14
REMARK    3  A    between atoms: C_13  and  C_15
REMARK    4  A    between atoms: C_14  and  C_16
REMARK    5  A    between atoms: C_16  and  C_18
REMARK                            x       y       z     vdW  Elec       q    Type
REMARK                         _______ _______ _______ _____ _____    ______ ____
ROOT
ATOM      2  O   UNL     1      -4.961   0.943  24.566  0.00  0.00    -0.273 OA
ATOM      3  O   UNL     1      -0.731  -0.731  25.526  0.00  0.00    -0.252 OA
ATOM      4  N   UNL     1      -0.891   1.433  24.725  0.00  0.00    -0.275 N 
ATOM      5  N   UNL     1      -3.856   3.463  24.147  0.00  0.00    -0.304 NA
ATOM      6  N   UNL     1      -2.852   0.179  25.222  0.00  0.00    -0.225 N 
ATOM      7  C   UNL     1      -1.712   2.600  24.466  0.00  0.00    +0.105 C 
ATOM      8  C   UNL     1      -3.065   2.247  23.901  0.00  0.00    +0.162 C 
ATOM      9  C   UNL     1      -2.029   3.425  25.709  0.00  0.00    +0.040 C 
ATOM     10  C   UNL     1      -3.433   3.963  25.466  0.00  0.00    +0.083 C 
ATOM     11  C   UNL     1      -3.737   1.085  24.605  0.00  0.00    +0.242 C 
ATOM     12  C   UNL     1      -1.433   0.228  25.188  0.00  0.00    +0.312 C 
ATOM     21  H   UNL     1      -4.858   3.278  24.124  0.00  0.00    +0.123 HD
ENDROOT
BRANCH   4  13
ATOM     13  C   UNL     1       0.553   1.615  24.650  0.00  0.00    +0.152 C 
BRANCH  13  15
ATOM      1  S   UNL     1       2.826   1.030  23.163  0.00  0.00    -0.100 S 
ATOM     15  C   UNL     1       1.157   0.854  23.505  0.00  0.00    +0.007 A 
ATOM     17  C   UNL     1       0.540  -0.016  22.634  0.00  0.00    +0.013 A 
ATOM     19  C   UNL     1       1.449  -0.546  21.674  0.00  0.00    +0.008 A 
ATOM     20  C   UNL     1       2.726  -0.060  21.847  0.00  0.00    +0.045 A 
ENDBRANCH  13  15
ENDBRANCH   4  13
BRANCH   6  14
ATOM     14  C   UNL     1      -3.449  -0.990  25.860  0.00  0.00    +0.118 C 
BRANCH  14  16
ATOM     16  C   UNL     1      -3.248  -2.261  25.045  0.00  0.00    +0.016 C 
ATOM     18  C   UNL     1      -4.207  -2.362  23.867  0.00  0.00    +0.005 C 
ENDBRANCH  14  16
ENDBRANCH   6  14
TORSDOF 4
ENDMDL
MODEL 2
REMARK VINA RESULT:      -4.4      2.468      4.538
REMARK  Name = 26763194
REMARK  5 active torsions:
REMARK  status: ('A' for Active; 'I' for Inactive)
REMARK    1  A    between atoms: N_4  and  C_13
REMARK    2  A    between atoms: N_6  and  C_14
REMARK    3  A    between atoms: C_13  and  C_15
REMARK    4  A    between atoms: C_14  and  C_16
REMARK    5  A    between atoms: C_16  and  C_18
REMARK                            x       y       z     vdW  Elec       q    Type
REMARK                         _______ _______ _______ _____ _____    ______ ____
ROOT
ATOM      2  O   UNL     1      -1.577   5.096  25.404  0.00  0.00    -0.273 OA
ATOM      3  O   UNL     1      -3.804   1.733  23.092  0.00  0.00    -0.252 OA
ATOM      4  N   UNL     1      -1.619   1.344  23.745  0.00  0.00    -0.275 N 
ATOM      5  N   UNL     1       0.540   3.352  25.878  0.00  0.00    -0.304 NA
ATOM      6  N   UNL     1      -2.745   3.332  24.411  0.00  0.00    -0.225 N 
ATOM      7  C   UNL     1      -0.494   1.710  24.582  0.00  0.00    +0.105 C 
ATOM      8  C   UNL     1      -0.301   3.203  24.680  0.00  0.00    +0.162 C 
ATOM      9  C   UNL     1      -0.623   1.254  26.032  0.00  0.00    +0.040 C 
ATOM     10  C   UNL     1       0.055   2.352  26.842  0.00  0.00    +0.083 C 
ATOM     11  C   UNL     1      -1.588   3.972  24.896  0.00  0.00    +0.242 C 
ATOM     12  C   UNL     1      -2.797   2.100  23.707  0.00  0.00    +0.312 C 
ATOM     21  H   UNL     1       0.491   4.293  26.264  0.00  0.00    +0.123 HD
ENDROOT
BRANCH   4  13
ATOM     13  C   UNL     1      -1.545   0.054  23.069  0.00  0.00    +0.152 C 
BRANCH  13  15
ATOM      1  S   UNL     1      -1.657  -2.091  24.830  0.00  0.00    -0.100 S 
ATOM     15  C   UNL     1      -2.390  -0.985  23.748  0.00  0.00    +0.007 A 
ATOM     17  C   UNL     1      -3.745  -1.200  23.628  0.00  0.00    +0.013 A 
ATOM     19  C   UNL     1      -4.187  -2.288  24.435  0.00  0.00    +0.008 A 
ATOM     20  C   UNL     1      -3.154  -2.862  25.141  0.00  0.00    +0.045 A 
ENDBRANCH  13  15
ENDBRANCH   4  13
BRANCH   6  14
ATOM     14  C   UNL     1      -4.002   4.063  24.541  0.00  0.00    +0.118 C 
BRANCH  14  16
ATOM     16  C   UNL     1      -4.747   3.711  25.822  0.00  0.00    +0.016 C 
ATOM     18  C   UNL     1      -5.813   2.644  25.609  0.00  0.00    +0.005 C 
ENDBRANCH  14  16
ENDBRANCH   6  14
TORSDOF 4
ENDMDL
MODEL 3
REMARK VINA RESULT:      -4.0      2.414      4.934
REMARK  Name = 26763194
REMARK  5 active torsions:
REMARK  status: ('A' for Active; 'I' for Inactive)
REMARK    1  A    between atoms: N_4  and  C_13
REMARK    2  A    between atoms: N_6  and  C_14
REMARK    3  A    between atoms: C_13  and  C_15
REMARK    4  A    between atoms: C_14  and  C_16
REMARK    5  A    between atoms: C_16  and  C_18
REMARK                            x       y       z     vdW  Elec       q    Type
REMARK                         _______ _______ _______ _____ _____    ______ ____
ROOT
ATOM      2  O   UNL     1       1.280   2.835  23.787  0.00  0.00    -0.273 OA
ATOM      3  O   UNL     1      -0.350  -1.504  24.142  0.00  0.00    -0.252 OA
ATOM      4  N   UNL     1      -1.307   0.131  25.469  0.00  0.00    -0.275 N 
ATOM      5  N   UNL     1      -0.788   3.733  25.419  0.00  0.00    -0.304 NA
ATOM      6  N   UNL     1       0.328   0.701  23.836  0.00  0.00    -0.225 N 
ATOM      7  C   UNL     1      -1.519   1.540  25.737  0.00  0.00    +0.105 C 
ATOM      8  C   UNL     1      -0.268   2.363  25.552  0.00  0.00    +0.162 C 
ATOM      9  C   UNL     1      -2.541   2.202  24.818  0.00  0.00    +0.040 C 
ATOM     10  C   UNL     1      -2.026   3.623  24.631  0.00  0.00    +0.083 C 
ATOM     11  C   UNL     1       0.510   2.019  24.299  0.00  0.00    +0.242 C 
ATOM     12  C   UNL     1      -0.446  -0.314  24.459  0.00  0.00    +0.312 C 
ATOM     21  H   UNL     1      -0.117   4.355  24.971  0.00  0.00    +0.123 HD
ENDROOT
BRANCH   4  13
ATOM     13  C   UNL     1      -2.163  -0.810  26.180  0.00  0.00    +0.152 C 
BRANCH  13  15
ATOM      1  S   UNL     1      -4.159  -0.743  24.248  0.00  0.00    -0.100 S 
ATOM     15  C   UNL     1      -3.047  -1.583  25.244  0.00  0.00    +0.007 A 
ATOM     17  C   UNL     1      -3.107  -2.945  25.051  0.00  0.00    +0.013 A 
ATOM     19  C   UNL     1      -4.079  -3.304  24.072  0.00  0.00    +0.008 A 
ATOM     20  C   UNL     1      -4.723  -2.203  23.555  0.00  0.00    +0.045 A 
ENDBRANCH  13  15
ENDBRANCH   4  13
BRANCH   6  14
ATOM     14  C   UNL     1       1.106   0.304  22.666  0.00  0.00    +0.118 C 
BRANCH  14  16
ATOM     16  C   UNL     1       2.486  -0.221  23.038  0.00  0.00    +0.016 C 
ATOM     18  C   UNL     1       3.609   0.698  22.576  0.00  0.00    +0.005 C 
ENDBRANCH  14  16
ENDBRANCH   6  14
TORSDOF 4
ENDMDL
MODEL 4
REMARK VINA RESULT:      -4.0      2.593      5.418
REMARK  Name = 26763194
REMARK  5 active torsions:
REMARK  status: ('A' for Active; 'I' for Inactive)
REMARK    1  A    between atoms: N_4  and  C_13
REMARK    2  A    between atoms: N_6  and  C_14
REMARK    3  A    between atoms: C_13  and  C_15
REMARK    4  A    between atoms: C_14  and  C_16
REMARK    5  A    between atoms: C_16  and  C_18
REMARK                            x       y       z     vdW  Elec       q    Type
REMARK                         _______ _______ _______ _____ _____    ______ ____
ROOT
ATOM      2  O   UNL     1      -0.878  -2.701  24.211  0.00  0.00    -0.273 OA
ATOM      3  O   UNL     1      -0.748   1.836  23.202  0.00  0.00    -0.252 OA
ATOM      4  N   UNL     1      -2.798   0.889  23.701  0.00  0.00    -0.275 N 
ATOM      5  N   UNL     1      -3.554  -2.451  24.932  0.00  0.00    -0.304 NA
ATOM      6  N   UNL     1      -0.798  -0.387  23.891  0.00  0.00    -0.225 N 
ATOM      7  C   UNL     1      -3.546  -0.212  24.275  0.00  0.00    +0.105 C 
ATOM      8  C   UNL     1      -2.963  -1.559  23.923  0.00  0.00    +0.162 C 
ATOM      9  C   UNL     1      -3.586  -0.210  25.800  0.00  0.00    +0.040 C 
ATOM     10  C   UNL     1      -3.584  -1.683  26.187  0.00  0.00    +0.083 C 
ATOM     11  C   UNL     1      -1.455  -1.623  24.047  0.00  0.00    +0.242 C 
ATOM     12  C   UNL     1      -1.404   0.858  23.576  0.00  0.00    +0.312 C 
ATOM     21  H   UNL     1      -3.023  -3.314  25.038  0.00  0.00    +0.123 HD
ENDROOT
BRANCH   4  13
ATOM     13  C   UNL     1      -3.540   2.110  23.416  0.00  0.00    +0.152 C 
BRANCH  13  15
ATOM      1  S   UNL     1      -4.911   3.279  25.530  0.00  0.00    -0.100 S 
ATOM     15  C   UNL     1      -3.509   3.070  24.571  0.00  0.00    +0.007 A 
ATOM     17  C   UNL     1      -2.463   3.855  25.004  0.00  0.00    +0.013 A 
ATOM     19  C   UNL     1      -2.819   4.639  26.140  0.00  0.00    +0.008 A 
ATOM     20  C   UNL     1      -4.122   4.423  26.530  0.00  0.00    +0.045 A 
ENDBRANCH  13  15
ENDBRANCH   4  13
BRANCH   6  14
ATOM     14  C   UNL     1       0.661  -0.409  23.941  0.00  0.00    +0.118 C 
BRANCH  14  16
ATOM     16  C   UNL     1       1.290  -0.276  22.561  0.00  0.00    +0.016 C 
ATOM     18  C   UNL     1       2.734   0.205  22.616  0.00  0.00    +0.005 C 
ENDBRANCH  14  16
ENDBRANCH   6  14
TORSDOF 4
ENDMDL
MODEL 5
REMARK VINA RESULT:      -3.6      2.680      5.136
REMARK  Name = 26763194
REMARK  5 active torsions:
REMARK  status: ('A' for Active; 'I' for Inactive)
REMARK    1  A    between atoms: N_4  and  C_13
REMARK    2  A    between atoms: N_6  and  C_14
REMARK    3  A    between atoms: C_13  and  C_15
REMARK    4  A    between atoms: C_14  and  C_16
REMARK    5  A    between atoms: C_16  and  C_18
REMARK                            x       y       z     vdW  Elec       q    Type
REMARK                         _______ _______ _______ _____ _____    ______ ____
ROOT
ATOM      2  O   UNL     1      -0.236  -1.130  26.034  0.00  0.00    -0.273 OA
ATOM      3  O   UNL     1      -3.912  -0.499  23.258  0.00  0.00    -0.252 OA
ATOM      4  N   UNL     1      -2.718   1.366  23.927  0.00  0.00    -0.275 N 
ATOM      5  N   UNL     1       0.429   1.557  25.746  0.00  0.00    -0.304 NA
ATOM      6  N   UNL     1      -1.963  -0.820  24.491  0.00  0.00    -0.225 N 
ATOM      7  C   UNL     1      -1.501   1.922  24.486  0.00  0.00    +0.105 C 
ATOM      8  C   UNL     1      -0.971   1.116  25.646  0.00  0.00    +0.162 C 
ATOM      9  C   UNL     1      -0.334   1.977  23.505  0.00  0.00    +0.040 C 
ATOM     10  C   UNL     1       0.901   1.728  24.362  0.00  0.00    +0.083 C 
ATOM     11  C   UNL     1      -0.989  -0.380  25.409  0.00  0.00    +0.242 C 
ATOM     12  C   UNL     1      -2.936  -0.014  23.841  0.00  0.00    +0.312 C 
ATOM     21  H   UNL     1       1.005   0.888  26.254  0.00  0.00    +0.123 HD
ENDROOT
BRANCH   4  13
ATOM     13  C   UNL     1      -3.638   2.302  23.293  0.00  0.00    +0.152 C 
BRANCH  13  15
ATOM      1  S   UNL     1      -5.772   1.978  25.042  0.00  0.00    -0.100 S 
ATOM     15  C   UNL     1      -4.569   2.935  24.287  0.00  0.00    +0.007 A 
ATOM     17  C   UNL     1      -4.608   4.245  24.711  0.00  0.00    +0.013 A 
ATOM     19  C   UNL     1      -5.639   4.466  25.669  0.00  0.00    +0.008 A 
ATOM     20  C   UNL     1      -6.349   3.317  25.940  0.00  0.00    +0.045 A 
ENDBRANCH  13  15
ENDBRANCH   4  13
BRANCH   6  14
ATOM     14  C   UNL     1      -2.060  -2.260  24.276  0.00  0.00    +0.118 C 
BRANCH  14  16
ATOM     16  C   UNL     1      -3.290  -2.864  24.942  0.00  0.00    +0.016 C 
ATOM     18  C   UNL     1      -4.331  -3.337  23.936  0.00  0.00    +0.005 C 
ENDBRANCH  14  16
ENDBRANCH   6  14
TORSDOF 4
ENDMDL
MODEL 6
REMARK VINA RESULT:      -3.5     15.960     18.369
REMARK  Name = 26763194
REMARK  5 active torsions:
REMARK  status: ('A' for Active; 'I' for Inactive)
REMARK    1  A    between atoms: N_4  and  C_13
REMARK    2  A    between atoms: N_6  and  C_14
REMARK    3  A    between atoms: C_13  and  C_15
REMARK    4  A    between atoms: C_14  and  C_16
REMARK    5  A    between atoms: C_16  and  C_18
REMARK                            x       y       z     vdW  Elec       q    Type
REMARK                         _______ _______ _______ _____ _____    ______ ____
ROOT
ATOM      2  O   UNL     1      -7.149  -7.500   8.696  0.00  0.00    -0.273 OA
ATOM      3  O   UNL     1      -6.594  -9.762  12.720  0.00  0.00    -0.252 OA
ATOM      4  N   UNL     1      -8.667  -9.851  11.696  0.00  0.00    -0.275 N 
ATOM      5  N   UNL     1      -9.665  -8.654   8.407  0.00  0.00    -0.304 NA
ATOM      6  N   UNL     1      -6.828  -8.793  10.616  0.00  0.00    -0.225 N 
ATOM      7  C   UNL     1      -9.466  -9.665  10.501  0.00  0.00    +0.105 C 
ATOM      8  C   UNL     1      -9.099  -8.412   9.744  0.00  0.00    +0.162 C 
ATOM      9  C   UNL     1      -9.316 -10.781   9.472  0.00  0.00    +0.040 C 
ATOM     10  C   UNL     1      -9.444 -10.082   8.125  0.00  0.00    +0.083 C 
ATOM     11  C   UNL     1      -7.607  -8.198   9.604  0.00  0.00    +0.242 C 
ATOM     12  C   UNL     1      -7.313  -9.498  11.750  0.00  0.00    +0.312 C 
ATOM     21  H   UNL     1      -9.233  -8.065   7.697  0.00  0.00    +0.123 HD
ENDROOT
BRANCH   4  13
ATOM     13  C   UNL     1      -9.284 -10.586  12.793  0.00  0.00    +0.152 C 
BRANCH  13  15
ATOM      1  S   UNL     1      -8.800 -10.110  15.486  0.00  0.00    -0.100 S 
ATOM     15  C   UNL     1      -9.528  -9.711  13.989  0.00  0.00    +0.007 A 
ATOM     17  C   UNL     1     -10.292  -8.569  14.073  0.00  0.00    +0.013 A 
ATOM     19  C   UNL     1     -10.280  -8.013  15.385  0.00  0.00    +0.008 A 
ATOM     20  C   UNL     1      -9.507  -8.752  16.253  0.00  0.00    +0.045 A 
ENDBRANCH  13  15
ENDBRANCH   4  13
BRANCH   6  14
ATOM     14  C   UNL     1      -5.388  -8.561  10.558  0.00  0.00    +0.118 C 
BRANCH  14  16
ATOM     16  C   UNL     1      -4.655  -9.661   9.801  0.00  0.00    +0.016 C 
ATOM     18  C   UNL     1      -3.199  -9.798  10.225  0.00  0.00    +0.005 C 
ENDBRANCH  14  16
ENDBRANCH   6  14
TORSDOF 4
ENDMDL
MODEL 7
REMARK VINA RESULT:      -3.4      2.723      5.756
REMARK  Name = 26763194
REMARK  5 active torsions:
REMARK  status: ('A' for Active; 'I' for Inactive)
REMARK    1  A    between atoms: N_4  and  C_13
REMARK    2  A    between atoms: N_6  and  C_14
REMARK    3  A    between atoms: C_13  and  C_15
REMARK    4  A    between atoms: C_14  and  C_16
REMARK    5  A    between atoms: C_16  and  C_18
REMARK                            x       y       z     vdW  Elec       q    Type
REMARK                         _______ _______ _______ _____ _____    ______ ____
ROOT
ATOM      2  O   UNL     1       0.256  -1.472  24.712  0.00  0.00    -0.273 OA
ATOM      3  O   UNL     1      -1.464   2.634  23.367  0.00  0.00    -0.252 OA
ATOM      4  N   UNL     1      -2.934   0.866  23.620  0.00  0.00    -0.275 N 
ATOM      5  N   UNL     1      -2.334  -2.453  24.988  0.00  0.00    -0.304 NA
ATOM      6  N   UNL     1      -0.643   0.629  24.220  0.00  0.00    -0.225 N 
ATOM      7  C   UNL     1      -3.204  -0.453  24.159  0.00  0.00    +0.105 C 
ATOM      8  C   UNL     1      -2.033  -1.393  24.013  0.00  0.00    +0.162 C 
ATOM      9  C   UNL     1      -3.507  -0.463  25.654  0.00  0.00    +0.040 C 
ATOM     10  C   UNL     1      -2.919  -1.776  26.157  0.00  0.00    +0.083 C 
ATOM     11  C   UNL     1      -0.701  -0.770  24.374  0.00  0.00    +0.242 C 
ATOM     12  C   UNL     1      -1.673   1.466  23.715  0.00  0.00    +0.312 C 
ATOM     21  H   UNL     1      -1.503  -2.983  25.245  0.00  0.00    +0.123 HD
ENDROOT
BRANCH   4  13
ATOM     13  C   UNL     1      -4.078   1.621  23.125  0.00  0.00    +0.152 C 
BRANCH  13  15
ATOM      1  S   UNL     1      -4.237   3.883  24.729  0.00  0.00    -0.100 S 
ATOM     15  C   UNL     1      -4.795   2.343  24.229  0.00  0.00    +0.007 A 
ATOM     17  C   UNL     1      -5.898   1.935  24.945  0.00  0.00    +0.013 A 
ATOM     19  C   UNL     1      -6.291   2.899  25.918  0.00  0.00    +0.008 A 
ATOM     20  C   UNL     1      -5.473   4.007  25.907  0.00  0.00    +0.045 A 
ENDBRANCH  13  15
ENDBRANCH   4  13
BRANCH   6  14
ATOM     14  C   UNL     1       0.640   1.267  24.497  0.00  0.00    +0.118 C 
BRANCH  14  16
ATOM     16  C   UNL     1       0.489   2.537  25.325  0.00  0.00    +0.016 C 
ATOM     18  C   UNL     1      -0.135   2.279  26.689  0.00  0.00    +0.005 C 
ENDBRANCH  14  16
ENDBRANCH   6  14
TORSDOF 4
ENDMDL
MODEL 8
REMARK VINA RESULT:      -3.2      2.832      4.654
REMARK  Name = 26763194
REMARK  5 active torsions:
REMARK  status: ('A' for Active; 'I' for Inactive)
REMARK    1  A    between atoms: N_4  and  C_13
REMARK    2  A    between atoms: N_6  and  C_14
REMARK    3  A    between atoms: C_13  and  C_15
REMARK    4  A    between atoms: C_14  and  C_16
REMARK    5  A    between atoms: C_16  and  C_18
REMARK                            x       y       z     vdW  Elec       q    Type
REMARK                         _______ _______ _______ _____ _____    ______ ____
ROOT
ATOM      2  O   UNL     1      -3.960   4.608  24.218  0.00  0.00    -0.273 OA
ATOM      3  O   UNL     1      -0.559   2.619  26.687  0.00  0.00    -0.252 OA
ATOM      4  N   UNL     1      -1.685   1.320  25.139  0.00  0.00    -0.275 N 
ATOM      5  N   UNL     1      -4.143   2.318  22.648  0.00  0.00    -0.304 NA
ATOM      6  N   UNL     1      -2.132   3.651  25.316  0.00  0.00    -0.225 N 
ATOM      7  C   UNL     1      -2.553   1.250  23.980  0.00  0.00    +0.105 C 
ATOM      8  C   UNL     1      -3.695   2.234  24.046  0.00  0.00    +0.162 C 
ATOM      9  C   UNL     1      -1.858   1.572  22.661  0.00  0.00    +0.040 C 
ATOM     10  C   UNL     1      -2.923   2.271  21.826  0.00  0.00    +0.083 C 
ATOM     11  C   UNL     1      -3.282   3.618  24.504  0.00  0.00    +0.242 C 
ATOM     12  C   UNL     1      -1.390   2.531  25.777  0.00  0.00    +0.312 C 
ATOM     21  H   UNL     1      -4.678   3.166  22.468  0.00  0.00    +0.123 HD
ENDROOT
BRANCH   4  13
ATOM     13  C   UNL     1      -0.986   0.097  25.513  0.00  0.00    +0.152 C 
BRANCH  13  15
ATOM      1  S   UNL     1      -3.376  -1.303  25.725  0.00  0.00    -0.100 S 
ATOM     15  C   UNL     1      -1.771  -1.131  25.153  0.00  0.00    +0.007 A 
ATOM     17  C   UNL     1      -1.377  -2.206  24.388  0.00  0.00    +0.013 A 
ATOM     19  C   UNL     1      -2.406  -3.185  24.270  0.00  0.00    +0.008 A 
ATOM     20  C   UNL     1      -3.547  -2.820  24.949  0.00  0.00    +0.045 A 
ENDBRANCH  13  15
ENDBRANCH   4  13
BRANCH   6  14
ATOM     14  C   UNL     1      -1.731   4.957  25.832  0.00  0.00    +0.118 C 
BRANCH  14  16
ATOM     16  C   UNL     1      -0.917   5.754  24.822  0.00  0.00    +0.016 C 
ATOM     18  C   UNL     1      -0.170   4.866  23.836  0.00  0.00    +0.005 C 
ENDBRANCH  14  16
ENDBRANCH   6  14
TORSDOF 4
ENDMDL
MODEL 9
REMARK VINA RESULT:      -3.2     17.981     20.147
REMARK  Name = 26763194
REMARK  5 active torsions:
REMARK  status: ('A' for Active; 'I' for Inactive)
REMARK    1  A    between atoms: N_4  and  C_13
REMARK    2  A    between atoms: N_6  and  C_14
REMARK    3  A    between atoms: C_13  and  C_15
REMARK    4  A    between atoms: C_14  and  C_16
REMARK    5  A    between atoms: C_16  and  C_18
REMARK                            x       y       z     vdW  Elec       q    Type
REMARK                         _______ _______ _______ _____ _____    ______ ____
ROOT
ATOM      2  O   UNL     1      16.459  -7.601  24.860  0.00  0.00    -0.273 OA
ATOM      3  O   UNL     1      16.656  -5.179  28.824  0.00  0.00    -0.252 OA
ATOM      4  N   UNL     1      15.993  -7.393  28.931  0.00  0.00    -0.275 N 
ATOM      5  N   UNL     1      15.990  -9.925  26.317  0.00  0.00    -0.304 NA
ATOM      6  N   UNL     1      16.735  -6.450  26.875  0.00  0.00    -0.225 N 
ATOM      7  C   UNL     1      15.923  -8.696  28.299  0.00  0.00    +0.105 C 
ATOM      8  C   UNL     1      15.564  -8.616  26.836  0.00  0.00    +0.162 C 
ATOM      9  C   UNL     1      17.239  -9.469  28.319  0.00  0.00    +0.040 C 
ATOM     10  C   UNL     1      17.246 -10.249  27.011  0.00  0.00    +0.083 C 
ATOM     11  C   UNL     1      16.309  -7.534  26.082  0.00  0.00    +0.242 C 
ATOM     12  C   UNL     1      16.479  -6.265  28.259  0.00  0.00    +0.312 C 
ATOM     21  H   UNL     1      16.117  -9.913  25.306  0.00  0.00    +0.123 HD
ENDROOT
BRANCH   4  13
ATOM     13  C   UNL     1      15.699  -7.337  30.357  0.00  0.00    +0.152 C 
BRANCH  13  15
ATOM      1  S   UNL     1      13.210  -8.451  30.881  0.00  0.00    -0.100 S 
ATOM     15  C   UNL     1      14.239  -7.108  30.621  0.00  0.00    +0.007 A 
ATOM     17  C   UNL     1      13.558  -5.913  30.691  0.00  0.00    +0.013 A 
ATOM     19  C   UNL     1      12.172  -6.103  30.961  0.00  0.00    +0.008 A 
ATOM     20  C   UNL     1      11.847  -7.435  31.088  0.00  0.00    +0.045 A 
ENDBRANCH  13  15
ENDBRANCH   4  13
BRANCH   6  14
ATOM     14  C   UNL     1      17.404  -5.353  26.182  0.00  0.00    +0.118 C 
BRANCH  14  16
ATOM     16  C   UNL     1      16.440  -4.524  25.343  0.00  0.00    +0.016 C 
ATOM     18  C   UNL     1      17.047  -4.073  24.022  0.00  0.00    +0.005 C 
ENDBRANCH  14  16
ENDBRANCH   6  14
TORSDOF 4
ENDMDL
MODEL 10
REMARK VINA RESULT:      -3.2      3.009      4.643
REMARK  Name = 26763194
REMARK  5 active torsions:
REMARK  status: ('A' for Active; 'I' for Inactive)
REMARK    1  A    between atoms: N_4  and  C_13
REMARK    2  A    between atoms: N_6  and  C_14
REMARK    3  A    between atoms: C_13  and  C_15
REMARK    4  A    between atoms: C_14  and  C_16
REMARK    5  A    between atoms: C_16  and  C_18
REMARK                            x       y       z     vdW  Elec       q    Type
REMARK                         _______ _______ _______ _____ _____    ______ ____
ROOT
ATOM      2  O   UNL     1      -3.055   4.468  26.878  0.00  0.00    -0.273 OA
ATOM      3  O   UNL     1      -1.352   2.116  23.248  0.00  0.00    -0.252 OA
ATOM      4  N   UNL     1      -3.442   1.526  24.045  0.00  0.00    -0.275 N 
ATOM      5  N   UNL     1      -5.496   3.171  26.559  0.00  0.00    -0.304 NA
ATOM      6  N   UNL     1      -2.292   3.408  24.940  0.00  0.00    -0.225 N 
ATOM      7  C   UNL     1      -4.604   1.867  24.841  0.00  0.00    +0.105 C 
ATOM      8  C   UNL     1      -4.241   2.519  26.153  0.00  0.00    +0.162 C 
ATOM      9  C   UNL     1      -5.543   2.868  24.174  0.00  0.00    +0.040 C 
ATOM     10  C   UNL     1      -6.097   3.700  25.324  0.00  0.00    +0.083 C 
ATOM     11  C   UNL     1      -3.165   3.578  26.032  0.00  0.00    +0.242 C 
ATOM     12  C   UNL     1      -2.297   2.333  24.013  0.00  0.00    +0.312 C 
ATOM     21  H   UNL     1      -5.339   3.911  27.241  0.00  0.00    +0.123 HD
ENDROOT
BRANCH   4  13
ATOM     13  C   UNL     1      -3.575   0.394  23.137  0.00  0.00    +0.152 C 
BRANCH  13  15
ATOM      1  S   UNL     1      -1.864  -1.170  24.667  0.00  0.00    -0.100 S 
ATOM     15  C   UNL     1      -3.337  -0.915  23.832  0.00  0.00    +0.007 A 
ATOM     17  C   UNL     1      -4.170  -2.010  23.906  0.00  0.00    +0.013 A 
ATOM     19  C   UNL     1      -3.591  -3.072  24.659  0.00  0.00    +0.008 A 
ATOM     20  C   UNL     1      -2.338  -2.748  25.131  0.00  0.00    +0.045 A 
ENDBRANCH  13  15
ENDBRANCH   4  13
BRANCH   6  14
ATOM     14  C   UNL     1      -1.200   4.370  24.818  0.00  0.00    +0.118 C 
BRANCH  14  16
ATOM     16  C   UNL     1       0.126   3.807  25.314  0.00  0.00    +0.016 C 
ATOM     18  C   UNL     1      -0.053   2.642  26.277  0.00  0.00    +0.005 C 
ENDBRANCH  14  16
ENDBRANCH   6  14
TORSDOF 4
ENDMDL
