MODEL 1
REMARK VINA RESULT:      -2.4      0.000      0.000
REMARK  Name = 11912603
REMARK  9 active torsions:
REMARK  status: ('A' for Active; 'I' for Inactive)
REMARK    1  A    between atoms: N_7  and  C_19
REMARK    2  A    between atoms: N_8  and  C_20
REMARK    3  A    between atoms: C_9  and  C_15
REMARK    4  A    between atoms: C_10  and  C_14
REMARK    5  A    between atoms: C_14  and  C_16
REMARK    6  A    between atoms: C_15  and  C_17
REMARK    7  A    between atoms: C_19  and  C_21
REMARK    8  A    between atoms: C_21  and  C_24
REMARK    9  A    between atoms: C_25  and  C_28
REMARK                            x       y       z     vdW  Elec       q    Type
REMARK                         _______ _______ _______ _____ _____    ______ ____
ROOT
ATOM      5  O   UNL     1      -0.129  -1.046  25.858  0.00  0.00    -0.252 OA
ATOM      6  N   UNL     1      -2.059  -0.931  24.591  0.00  0.00    -0.285 N 
ATOM      8  N   UNL     1       0.057  -0.760  23.564  0.00  0.00    -0.269 N 
ATOM      9  C   UNL     1      -4.670   0.316  24.566  0.00  0.00    +0.004 C 
ATOM     10  C   UNL     1      -3.735   0.391  23.330  0.00  0.00    +0.010 C 
ATOM     11  C   UNL     1      -3.879   0.114  25.871  0.00  0.00    +0.023 C 
ATOM     12  C   UNL     1      -2.795  -0.827  23.322  0.00  0.00    +0.113 C 
ATOM     13  C   UNL     1      -2.919  -1.071  25.767  0.00  0.00    +0.109 C 
ATOM     18  C   UNL     1      -0.657  -0.931  24.748  0.00  0.00    +0.306 C 
ATOM     30  H   UNL     1      -0.356  -1.088  22.699  0.00  0.00    +0.156 HD
ENDROOT
BRANCH   8  20
ATOM     20  C   UNL     1       1.327  -0.151  23.405  0.00  0.00    +0.035 A 
ATOM     22  C   UNL     1       2.489  -0.884  23.648  0.00  0.00    +0.035 A 
ATOM     23  C   UNL     1       1.415   1.182  23.004  0.00  0.00    +0.023 A 
ATOM     25  C   UNL     1       3.738  -0.284  23.491  0.00  0.00    +0.057 A 
ATOM     26  C   UNL     1       2.664   1.783  22.847  0.00  0.00    +0.002 A 
ATOM     27  C   UNL     1       3.825   1.050  23.091  0.00  0.00    +0.012 A 
BRANCH  25  28
ATOM      1  F   UNL     1       5.543  -0.810  24.969  0.00  0.00    -0.166 F 
ATOM      2  F   UNL     1       4.789  -2.419  23.728  0.00  0.00    -0.166 F 
ATOM      3  F   UNL     1       5.959  -0.819  22.835  0.00  0.00    -0.166 F 
ATOM     28  C   UNL     1       4.979  -1.067  23.752  0.00  0.00    +0.417 C 
ENDBRANCH  25  28
ENDBRANCH   8  20
BRANCH  10  14
ATOM     14  C   UNL     1      -2.928   1.691  23.235  0.00  0.00    +0.002 C 
ATOM     16  C   UNL     1      -2.533   1.985  21.803  0.00  0.00    +0.004 C 
ENDBRANCH  10  14
BRANCH   9  15
ATOM     15  C   UNL     1      -5.606   1.519  24.684  0.00  0.00    +0.099 C 
BRANCH  15  17
ATOM      4  O   UNL     1      -5.733   2.765  26.753  0.00  0.00    -0.276 OA
ATOM      7  N   UNL     1      -3.931   3.105  25.325  0.00  0.00    -0.315 N 
ATOM     17  C   UNL     1      -5.127   2.518  25.714  0.00  0.00    +0.213 C 
ATOM     29  H   UNL     1      -3.506   2.828  24.444  0.00  0.00    +0.149 HD
BRANCH   7  19
ATOM     19  C   UNL     1      -3.245   4.100  26.117  0.00  0.00    +0.104 C 
BRANCH  19  21
ATOM     21  C   UNL     1      -1.958   4.581  25.457  0.00  0.00    +0.015 C 
ATOM     24  C   UNL     1      -0.857   3.530  25.481  0.00  0.00    +0.005 C 
ENDBRANCH  19  21
ENDBRANCH   7  19
ENDBRANCH  15  17
ENDBRANCH   9  15
TORSDOF 7
ENDMDL
MODEL 2
REMARK VINA RESULT:       0.9      2.020      3.696
REMARK  Name = 11912603
REMARK  9 active torsions:
REMARK  status: ('A' for Active; 'I' for Inactive)
REMARK    1  A    between atoms: N_7  and  C_19
REMARK    2  A    between atoms: N_8  and  C_20
REMARK    3  A    between atoms: C_9  and  C_15
REMARK    4  A    between atoms: C_10  and  C_14
REMARK    5  A    between atoms: C_14  and  C_16
REMARK    6  A    between atoms: C_15  and  C_17
REMARK    7  A    between atoms: C_19  and  C_21
REMARK    8  A    between atoms: C_21  and  C_24
REMARK    9  A    between atoms: C_25  and  C_28
REMARK                            x       y       z     vdW  Elec       q    Type
REMARK                         _______ _______ _______ _____ _____    ______ ____
ROOT
ATOM      5  O   UNL     1       0.487   4.057  23.316  0.00  0.00    -0.252 OA
ATOM      6  N   UNL     1      -1.016   3.656  25.026  0.00  0.00    -0.285 N 
ATOM      8  N   UNL     1       0.751   2.151  24.611  0.00  0.00    -0.269 N 
ATOM      9  C   UNL     1      -3.856   3.678  25.586  0.00  0.00    +0.004 C 
ATOM     10  C   UNL     1      -2.982   2.443  25.929  0.00  0.00    +0.010 C 
ATOM     11  C   UNL     1      -3.246   4.511  24.444  0.00  0.00    +0.023 C 
ATOM     12  C   UNL     1      -1.531   2.892  26.173  0.00  0.00    +0.113 C 
ATOM     13  C   UNL     1      -1.786   4.864  24.725  0.00  0.00    +0.109 C 
ATOM     18  C   UNL     1       0.118   3.339  24.251  0.00  0.00    +0.306 C 
ATOM     30  H   UNL     1       0.695   1.846  25.576  0.00  0.00    +0.156 HD
ENDROOT
BRANCH   8  20
ATOM     20  C   UNL     1       1.477   1.272  23.768  0.00  0.00    +0.035 A 
ATOM     22  C   UNL     1       2.859   1.148  23.912  0.00  0.00    +0.035 A 
ATOM     23  C   UNL     1       0.808   0.532  22.794  0.00  0.00    +0.023 A 
ATOM     25  C   UNL     1       3.572   0.283  23.082  0.00  0.00    +0.057 A 
ATOM     26  C   UNL     1       1.520  -0.334  21.963  0.00  0.00    +0.002 A 
ATOM     27  C   UNL     1       2.902  -0.457  22.107  0.00  0.00    +0.012 A 
BRANCH  25  28
ATOM      1  F   UNL     1       5.716   0.057  22.047  0.00  0.00    -0.166 F 
ATOM      2  F   UNL     1       5.628   1.204  23.884  0.00  0.00    -0.166 F 
ATOM      3  F   UNL     1       5.406  -0.958  23.945  0.00  0.00    -0.166 F 
ATOM     28  C   UNL     1       5.049   0.151  23.235  0.00  0.00    +0.417 C 
ENDBRANCH  25  28
ENDBRANCH   8  20
BRANCH  10  14
ATOM     14  C   UNL     1      -3.029   1.332  24.874  0.00  0.00    +0.002 C 
ATOM     16  C   UNL     1      -1.941   0.306  25.112  0.00  0.00    +0.004 C 
ENDBRANCH  10  14
BRANCH   9  15
ATOM     15  C   UNL     1      -5.308   3.318  25.274  0.00  0.00    +0.099 C 
BRANCH  15  17
ATOM      4  O   UNL     1      -6.114   1.521  26.680  0.00  0.00    -0.276 OA
ATOM      7  N   UNL     1      -5.288   1.032  24.563  0.00  0.00    -0.315 N 
ATOM     17  C   UNL     1      -5.625   1.877  25.611  0.00  0.00    +0.213 C 
ATOM     29  H   UNL     1      -4.890   1.427  23.715  0.00  0.00    +0.149 HD
BRANCH   7  19
ATOM     19  C   UNL     1      -5.478  -0.400  24.610  0.00  0.00    +0.104 C 
BRANCH  19  21
ATOM     21  C   UNL     1      -4.483  -1.147  23.730  0.00  0.00    +0.015 C 
ATOM     24  C   UNL     1      -3.960  -2.418  24.383  0.00  0.00    +0.005 C 
ENDBRANCH  19  21
ENDBRANCH   7  19
ENDBRANCH  15  17
ENDBRANCH   9  15
TORSDOF 7
ENDMDL
MODEL 3
REMARK VINA RESULT:       0.9      4.629      8.317
REMARK  Name = 11912603
REMARK  9 active torsions:
REMARK  status: ('A' for Active; 'I' for Inactive)
REMARK    1  A    between atoms: N_7  and  C_19
REMARK    2  A    between atoms: N_8  and  C_20
REMARK    3  A    between atoms: C_9  and  C_15
REMARK    4  A    between atoms: C_10  and  C_14
REMARK    5  A    between atoms: C_14  and  C_16
REMARK    6  A    between atoms: C_15  and  C_17
REMARK    7  A    between atoms: C_19  and  C_21
REMARK    8  A    between atoms: C_21  and  C_24
REMARK    9  A    between atoms: C_25  and  C_28
REMARK                            x       y       z     vdW  Elec       q    Type
REMARK                         _______ _______ _______ _____ _____    ______ ____
ROOT
ATOM      5  O   UNL     1      -3.172  -0.854  23.478  0.00  0.00    -0.252 OA
ATOM      6  N   UNL     1      -1.106  -0.319  24.364  0.00  0.00    -0.285 N 
ATOM      8  N   UNL     1      -3.080   0.498  25.361  0.00  0.00    -0.269 N 
ATOM      9  C   UNL     1       1.533   0.563  23.565  0.00  0.00    +0.004 C 
ATOM     10  C   UNL     1       0.751   1.293  24.689  0.00  0.00    +0.010 C 
ATOM     11  C   UNL     1       0.589  -0.164  22.590  0.00  0.00    +0.023 C 
ATOM     12  C   UNL     1      -0.223   0.309  25.360  0.00  0.00    +0.113 C 
ATOM     13  C   UNL     1      -0.392  -1.072  23.331  0.00  0.00    +0.109 C 
ATOM     18  C   UNL     1      -2.515  -0.273  24.347  0.00  0.00    +0.306 C 
ATOM     30  H   UNL     1      -2.581   0.584  26.238  0.00  0.00    +0.156 HD
ENDROOT
BRANCH   8  20
ATOM     20  C   UNL     1      -4.302   1.216  25.316  0.00  0.00    +0.035 A 
ATOM     22  C   UNL     1      -4.295   2.610  25.371  0.00  0.00    +0.035 A 
ATOM     23  C   UNL     1      -5.510   0.528  25.218  0.00  0.00    +0.023 A 
ATOM     25  C   UNL     1      -5.497   3.316  25.326  0.00  0.00    +0.057 A 
ATOM     26  C   UNL     1      -6.713   1.233  25.173  0.00  0.00    +0.002 A 
ATOM     27  C   UNL     1      -6.706   2.627  25.228  0.00  0.00    +0.012 A 
BRANCH  25  28
ATOM      1  F   UNL     1      -5.050   5.397  24.234  0.00  0.00    -0.166 F 
ATOM      2  F   UNL     1      -6.721   5.350  25.615  0.00  0.00    -0.166 F 
ATOM      3  F   UNL     1      -4.684   5.288  26.375  0.00  0.00    -0.166 F 
ATOM     28  C   UNL     1      -5.489   4.805  25.385  0.00  0.00    +0.417 C 
ENDBRANCH  25  28
ENDBRANCH   8  20
BRANCH  10  14
ATOM     14  C   UNL     1       0.006   2.548  24.218  0.00  0.00    +0.002 C 
ATOM     16  C   UNL     1      -0.666   3.252  25.378  0.00  0.00    +0.004 C 
ENDBRANCH  10  14
BRANCH   9  15
ATOM     15  C   UNL     1       2.489   1.482  22.806  0.00  0.00    +0.099 C 
BRANCH  15  17
ATOM      4  O   UNL     1       4.293   0.465  21.555  0.00  0.00    -0.276 OA
ATOM      7  N   UNL     1       4.541   0.810  23.840  0.00  0.00    -0.315 N 
ATOM     17  C   UNL     1       3.859   0.864  22.632  0.00  0.00    +0.213 C 
ATOM     29  H   UNL     1       4.094   1.171  24.678  0.00  0.00    +0.149 HD
BRANCH   7  19
ATOM     19  C   UNL     1       5.873   0.264  23.971  0.00  0.00    +0.104 C 
BRANCH  19  21
ATOM     21  C   UNL     1       5.860  -1.227  24.285  0.00  0.00    +0.015 C 
ATOM     24  C   UNL     1       4.534  -1.890  23.936  0.00  0.00    +0.005 C 
ENDBRANCH  19  21
ENDBRANCH   7  19
ENDBRANCH  15  17
ENDBRANCH   9  15
TORSDOF 7
ENDMDL
