MODEL 1
REMARK VINA RESULT:      -5.3      0.000      0.000
REMARK  Name = 26744106
REMARK  7 active torsions:
REMARK  status: ('A' for Active; 'I' for Inactive)
REMARK    1  A    between atoms: O_1  and  C_8
REMARK    2  A    between atoms: N_3  and  C_10
REMARK    3  A    between atoms: C_6  and  C_11
REMARK    4  A    between atoms: C_10  and  C_12
REMARK    5  A    between atoms: C_15  and  C_16
REMARK    6  A    between atoms: C_16  and  C_20
REMARK    7  A    between atoms: C_19  and  C_21
REMARK                            x       y       z     vdW  Elec       q    Type
REMARK                         _______ _______ _______ _____ _____    ______ ____
ROOT
ATOM      3  N   UNL     1      -2.875   2.755  25.021  0.00  0.00    -0.285 NA
ATOM      6  C   UNL     1      -1.852   2.852  23.961  0.00  0.00    +0.149 C 
ATOM      7  C   UNL     1      -1.073   4.142  24.282  0.00  0.00    +0.061 C 
ATOM      8  C   UNL     1      -1.761   4.721  25.512  0.00  0.00    +0.130 C 
ATOM      9  C   UNL     1      -3.154   4.123  25.456  0.00  0.00    +0.116 C 
ENDROOT
BRANCH   6  11
ATOM      2  O   UNL     1      -0.954   0.827  24.992  0.00  0.00    -0.336 OA
ATOM      4  N   UNL     1      -0.179   1.223  22.928  0.00  0.00    -0.194 NA
ATOM      5  N   UNL     1      -0.068  -0.219  24.701  0.00  0.00    -0.061 NA
ATOM     11  C   UNL     1      -0.960   1.630  23.897  0.00  0.00    +0.245 A 
ATOM     15  C   UNL     1       0.347   0.086  23.468  0.00  0.00    +0.176 A 
BRANCH  15  16
ATOM     16  C   UNL     1       1.310  -0.751  22.744  0.00  0.00    +0.114 C 
BRANCH  16  20
ATOM     20  C   UNL     1       2.775  -0.436  23.029  0.00  0.00    -0.040 A 
ATOM     22  C   UNL     1       3.578  -1.378  23.674  0.00  0.00    +0.004 A 
ATOM     23  C   UNL     1       3.311   0.792  22.645  0.00  0.00    +0.004 A 
ATOM     24  C   UNL     1       4.918  -1.089  23.934  0.00  0.00    +0.000 A 
ATOM     25  C   UNL     1       4.652   1.080  22.906  0.00  0.00    +0.000 A 
ATOM     26  C   UNL     1       5.454   0.140  23.551  0.00  0.00    +0.000 A 
ENDBRANCH  16  20
ENDBRANCH  15  16
ENDBRANCH   6  11
BRANCH   8   1
ATOM      1  O   UNL     1      -1.794   6.134  25.450  0.00  0.00    -0.390 OA
ATOM     27  H   UNL     1      -1.104   6.415  24.824  0.00  0.00    +0.210 HD
ENDBRANCH   8   1
BRANCH   3  10
ATOM     10  C   UNL     1      -4.082   2.059  24.593  0.00  0.00    +0.120 C 
BRANCH  10  12
ATOM     12  C   UNL     1      -3.917   0.564  24.649  0.00  0.00    -0.033 A 
ATOM     13  C   UNL     1      -3.675  -0.065  25.870  0.00  0.00    +0.005 A 
ATOM     14  C   UNL     1      -4.005  -0.191  23.479  0.00  0.00    +0.005 A 
ATOM     17  C   UNL     1      -3.520  -1.451  25.922  0.00  0.00    +0.003 A 
ATOM     18  C   UNL     1      -3.850  -1.577  23.532  0.00  0.00    +0.003 A 
ATOM     19  C   UNL     1      -3.608  -2.206  24.753  0.00  0.00    -0.050 A 
ATOM     21  C   UNL     1      -3.441  -3.687  24.809  0.00  0.00    +0.044 C 
ENDBRANCH  10  12
ENDBRANCH   3  10
TORSDOF 6
ENDMDL
MODEL 2
REMARK VINA RESULT:      -4.6      1.991      6.239
REMARK  Name = 26744106
REMARK  7 active torsions:
REMARK  status: ('A' for Active; 'I' for Inactive)
REMARK    1  A    between atoms: O_1  and  C_8
REMARK    2  A    between atoms: N_3  and  C_10
REMARK    3  A    between atoms: C_6  and  C_11
REMARK    4  A    between atoms: C_10  and  C_12
REMARK    5  A    between atoms: C_15  and  C_16
REMARK    6  A    between atoms: C_16  and  C_20
REMARK    7  A    between atoms: C_19  and  C_21
REMARK                            x       y       z     vdW  Elec       q    Type
REMARK                         _______ _______ _______ _____ _____    ______ ____
ROOT
ATOM      3  N   UNL     1      -0.090   0.273  24.202  0.00  0.00    -0.285 NA
ATOM      6  C   UNL     1       0.589   1.476  24.726  0.00  0.00    +0.149 C 
ATOM      7  C   UNL     1       1.697   1.782  23.699  0.00  0.00    +0.061 C 
ATOM      8  C   UNL     1       1.589   0.672  22.661  0.00  0.00    +0.130 C 
ATOM      9  C   UNL     1       0.904  -0.454  23.414  0.00  0.00    +0.116 C 
ENDROOT
BRANCH   6  11
ATOM      2  O   UNL     1       0.152   3.881  24.724  0.00  0.00    -0.336 OA
ATOM      4  N   UNL     1      -1.620   2.629  25.278  0.00  0.00    -0.194 NA
ATOM      5  N   UNL     1      -0.895   4.777  24.970  0.00  0.00    -0.061 NA
ATOM     11  C   UNL     1      -0.359   2.639  24.928  0.00  0.00    +0.245 A 
ATOM     15  C   UNL     1      -1.905   3.964  25.291  0.00  0.00    +0.176 A 
BRANCH  15  16
ATOM     16  C   UNL     1      -3.236   4.476  25.637  0.00  0.00    +0.114 C 
BRANCH  16  20
ATOM     20  C   UNL     1      -4.374   3.476  25.454  0.00  0.00    -0.040 A 
ATOM     22  C   UNL     1      -4.563   2.852  24.220  0.00  0.00    +0.004 A 
ATOM     23  C   UNL     1      -5.224   3.186  26.520  0.00  0.00    +0.004 A 
ATOM     24  C   UNL     1      -5.603   1.937  24.054  0.00  0.00    +0.000 A 
ATOM     25  C   UNL     1      -6.265   2.271  26.353  0.00  0.00    +0.000 A 
ATOM     26  C   UNL     1      -6.454   1.648  25.120  0.00  0.00    +0.000 A 
ENDBRANCH  16  20
ENDBRANCH  15  16
ENDBRANCH   6  11
BRANCH   8   1
ATOM      1  O   UNL     1       2.871   0.291  22.200  0.00  0.00    -0.390 OA
ATOM     27  H   UNL     1       3.098   0.872  21.455  0.00  0.00    +0.210 HD
ENDBRANCH   8   1
BRANCH   3  10
ATOM     10  C   UNL     1      -0.676  -0.557  25.247  0.00  0.00    +0.120 C 
BRANCH  10  12
ATOM     12  C   UNL     1      -1.921  -1.256  24.774  0.00  0.00    -0.033 A 
ATOM     13  C   UNL     1      -1.918  -2.640  24.595  0.00  0.00    +0.005 A 
ATOM     14  C   UNL     1      -3.078  -0.521  24.514  0.00  0.00    +0.005 A 
ATOM     17  C   UNL     1      -3.073  -3.288  24.155  0.00  0.00    +0.003 A 
ATOM     18  C   UNL     1      -4.232  -1.171  24.074  0.00  0.00    +0.003 A 
ATOM     19  C   UNL     1      -4.229  -2.553  23.895  0.00  0.00    -0.050 A 
ATOM     21  C   UNL     1      -5.462  -3.248  23.424  0.00  0.00    +0.044 C 
ENDBRANCH  10  12
ENDBRANCH   3  10
TORSDOF 6
ENDMDL
MODEL 3
REMARK VINA RESULT:      -4.1      1.640      4.512
REMARK  Name = 26744106
REMARK  7 active torsions:
REMARK  status: ('A' for Active; 'I' for Inactive)
REMARK    1  A    between atoms: O_1  and  C_8
REMARK    2  A    between atoms: N_3  and  C_10
REMARK    3  A    between atoms: C_6  and  C_11
REMARK    4  A    between atoms: C_10  and  C_12
REMARK    5  A    between atoms: C_15  and  C_16
REMARK    6  A    between atoms: C_16  and  C_20
REMARK    7  A    between atoms: C_19  and  C_21
REMARK                            x       y       z     vdW  Elec       q    Type
REMARK                         _______ _______ _______ _____ _____    ______ ____
ROOT
ATOM      3  N   UNL     1      -3.516  -0.289  24.283  0.00  0.00    -0.285 NA
ATOM      6  C   UNL     1      -2.328  -0.794  25.001  0.00  0.00    +0.149 C 
ATOM      7  C   UNL     1      -2.297  -2.304  24.697  0.00  0.00    +0.061 C 
ATOM      8  C   UNL     1      -3.531  -2.559  23.841  0.00  0.00    +0.130 C 
ATOM      9  C   UNL     1      -4.454  -1.407  24.194  0.00  0.00    +0.116 C 
ENDROOT
BRANCH   6  11
ATOM      2  O   UNL     1      -0.552   0.818  25.468  0.00  0.00    -0.336 OA
ATOM      4  N   UNL     1      -0.351  -0.217  23.492  0.00  0.00    -0.194 NA
ATOM      5  N   UNL     1       0.608   1.333  24.875  0.00  0.00    -0.061 NA
ATOM     11  C   UNL     1      -1.054  -0.087  24.589  0.00  0.00    +0.245 A 
ATOM     15  C   UNL     1       0.658   0.674  23.713  0.00  0.00    +0.176 A 
BRANCH  15  16
ATOM     16  C   UNL     1       1.731   0.899  22.739  0.00  0.00    +0.114 C 
BRANCH  16  20
ATOM     20  C   UNL     1       3.084   0.313  23.130  0.00  0.00    -0.040 A 
ATOM     22  C   UNL     1       3.181  -1.027  23.508  0.00  0.00    +0.004 A 
ATOM     23  C   UNL     1       4.224   1.115  23.109  0.00  0.00    +0.004 A 
ATOM     24  C   UNL     1       4.419  -1.563  23.865  0.00  0.00    +0.000 A 
ATOM     25  C   UNL     1       5.462   0.579  23.467  0.00  0.00    +0.000 A 
ATOM     26  C   UNL     1       5.559  -0.759  23.845  0.00  0.00    +0.000 A 
ENDBRANCH  16  20
ENDBRANCH  15  16
ENDBRANCH   6  11
BRANCH   8   1
ATOM      1  O   UNL     1      -4.110  -3.810  24.156  0.00  0.00    -0.390 OA
ATOM     27  H   UNL     1      -3.632  -4.489  23.649  0.00  0.00    +0.210 HD
ENDBRANCH   8   1
BRANCH   3  10
ATOM     10  C   UNL     1      -4.116   0.880  24.914  0.00  0.00    +0.120 C 
BRANCH  10  12
ATOM     12  C   UNL     1      -3.218   2.085  24.832  0.00  0.00    -0.033 A 
ATOM     13  C   UNL     1      -2.640   2.442  23.613  0.00  0.00    +0.005 A 
ATOM     14  C   UNL     1      -2.961   2.842  25.974  0.00  0.00    +0.005 A 
ATOM     17  C   UNL     1      -1.806   3.557  23.537  0.00  0.00    +0.003 A 
ATOM     18  C   UNL     1      -2.126   3.958  25.897  0.00  0.00    +0.003 A 
ATOM     19  C   UNL     1      -1.549   4.315  24.680  0.00  0.00    -0.050 A 
ATOM     21  C   UNL     1      -0.656   5.506  24.598  0.00  0.00    +0.044 C 
ENDBRANCH  10  12
ENDBRANCH   3  10
TORSDOF 6
ENDMDL
MODEL 4
REMARK VINA RESULT:      -3.7      1.662      4.153
REMARK  Name = 26744106
REMARK  7 active torsions:
REMARK  status: ('A' for Active; 'I' for Inactive)
REMARK    1  A    between atoms: O_1  and  C_8
REMARK    2  A    between atoms: N_3  and  C_10
REMARK    3  A    between atoms: C_6  and  C_11
REMARK    4  A    between atoms: C_10  and  C_12
REMARK    5  A    between atoms: C_15  and  C_16
REMARK    6  A    between atoms: C_16  and  C_20
REMARK    7  A    between atoms: C_19  and  C_21
REMARK                            x       y       z     vdW  Elec       q    Type
REMARK                         _______ _______ _______ _____ _____    ______ ____
ROOT
ATOM      3  N   UNL     1      -2.971  -0.477  23.524  0.00  0.00    -0.285 NA
ATOM      6  C   UNL     1      -2.012  -0.177  24.606  0.00  0.00    +0.149 C 
ATOM      7  C   UNL     1      -1.961  -1.462  25.454  0.00  0.00    +0.061 C 
ATOM      8  C   UNL     1      -2.958  -2.409  24.796  0.00  0.00    +0.130 C 
ATOM      9  C   UNL     1      -3.898  -1.476  24.055  0.00  0.00    +0.116 C 
ENDROOT
BRANCH   6  11
ATOM      2  O   UNL     1      -0.102   1.347  24.631  0.00  0.00    -0.336 OA
ATOM      4  N   UNL     1       0.088  -0.332  23.163  0.00  0.00    -0.194 NA
ATOM      5  N   UNL     1       1.133   1.525  23.995  0.00  0.00    -0.061 NA
ATOM     11  C   UNL     1      -0.652   0.233  24.083  0.00  0.00    +0.245 A 
ATOM     15  C   UNL     1       1.172   0.496  23.144  0.00  0.00    +0.176 A 
BRANCH  15  16
ATOM     16  C   UNL     1       2.311   0.273  22.246  0.00  0.00    +0.114 C 
BRANCH  16  20
ATOM     20  C   UNL     1       3.624  -0.057  22.947  0.00  0.00    -0.040 A 
ATOM     22  C   UNL     1       3.835  -1.334  23.469  0.00  0.00    +0.004 A 
ATOM     23  C   UNL     1       4.615   0.916  23.066  0.00  0.00    +0.004 A 
ATOM     24  C   UNL     1       5.037  -1.636  24.109  0.00  0.00    +0.000 A 
ATOM     25  C   UNL     1       5.818   0.614  23.707  0.00  0.00    +0.000 A 
ATOM     26  C   UNL     1       6.028  -0.662  24.229  0.00  0.00    +0.000 A 
ENDBRANCH  16  20
ENDBRANCH  15  16
ENDBRANCH   6  11
BRANCH   8   1
ATOM      1  O   UNL     1      -3.639  -3.175  25.770  0.00  0.00    -0.390 OA
ATOM     27  H   UNL     1      -2.982  -3.742  26.207  0.00  0.00    +0.210 HD
ENDBRANCH   8   1
BRANCH   3  10
ATOM     10  C   UNL     1      -3.665   0.705  23.027  0.00  0.00    +0.120 C 
BRANCH  10  12
ATOM     12  C   UNL     1      -3.651   1.826  24.030  0.00  0.00    -0.033 A 
ATOM     13  C   UNL     1      -4.625   1.882  25.028  0.00  0.00    +0.005 A 
ATOM     14  C   UNL     1      -2.666   2.811  23.962  0.00  0.00    +0.005 A 
ATOM     17  C   UNL     1      -4.614   2.923  25.956  0.00  0.00    +0.003 A 
ATOM     18  C   UNL     1      -2.655   3.852  24.891  0.00  0.00    +0.003 A 
ATOM     19  C   UNL     1      -3.628   3.908  25.888  0.00  0.00    -0.050 A 
ATOM     21  C   UNL     1      -3.618   5.021  26.880  0.00  0.00    +0.044 C 
ENDBRANCH  10  12
ENDBRANCH   3  10
TORSDOF 6
ENDMDL
MODEL 5
REMARK VINA RESULT:      -3.1      2.191      6.570
REMARK  Name = 26744106
REMARK  7 active torsions:
REMARK  status: ('A' for Active; 'I' for Inactive)
REMARK    1  A    between atoms: O_1  and  C_8
REMARK    2  A    between atoms: N_3  and  C_10
REMARK    3  A    between atoms: C_6  and  C_11
REMARK    4  A    between atoms: C_10  and  C_12
REMARK    5  A    between atoms: C_15  and  C_16
REMARK    6  A    between atoms: C_16  and  C_20
REMARK    7  A    between atoms: C_19  and  C_21
REMARK                            x       y       z     vdW  Elec       q    Type
REMARK                         _______ _______ _______ _____ _____    ______ ____
ROOT
ATOM      3  N   UNL     1       1.668   1.463  23.639  0.00  0.00    -0.285 NA
ATOM      6  C   UNL     1       1.100   0.282  22.957  0.00  0.00    +0.149 C 
ATOM      7  C   UNL     1       2.279  -0.701  22.825  0.00  0.00    +0.061 C 
ATOM      8  C   UNL     1       3.473   0.034  23.420  0.00  0.00    +0.130 C 
ATOM      9  C   UNL     1       3.089   1.497  23.297  0.00  0.00    +0.116 C 
ENDROOT
BRANCH   6  11
ATOM      2  O   UNL     1       0.206  -1.278  24.611  0.00  0.00    -0.336 OA
ATOM      4  N   UNL     1      -1.351  -0.028  23.597  0.00  0.00    -0.194 NA
ATOM      5  N   UNL     1      -1.023  -1.667  25.159  0.00  0.00    -0.061 NA
ATOM     11  C   UNL     1      -0.077  -0.311  23.701  0.00  0.00    +0.245 A 
ATOM     15  C   UNL     1      -1.891  -0.886  24.511  0.00  0.00    +0.176 A 
BRANCH  15  16
ATOM     16  C   UNL     1      -3.335  -0.949  24.766  0.00  0.00    +0.114 C 
BRANCH  16  20
ATOM     20  C   UNL     1      -4.045   0.401  24.763  0.00  0.00    -0.040 A 
ATOM     22  C   UNL     1      -3.672   1.384  23.846  0.00  0.00    +0.004 A 
ATOM     23  C   UNL     1      -5.068   0.652  25.676  0.00  0.00    +0.004 A 
ATOM     24  C   UNL     1      -4.323   2.618  23.843  0.00  0.00    +0.000 A 
ATOM     25  C   UNL     1      -5.719   1.887  25.673  0.00  0.00    +0.000 A 
ATOM     26  C   UNL     1      -5.346   2.869  24.758  0.00  0.00    +0.000 A 
ENDBRANCH  16  20
ENDBRANCH  15  16
ENDBRANCH   6  11
BRANCH   8   1
ATOM      1  O   UNL     1       4.654  -0.261  22.699  0.00  0.00    -0.390 OA
ATOM     27  H   UNL     1       5.370   0.276  23.078  0.00  0.00    +0.210 HD
ENDBRANCH   8   1
BRANCH   3  10
ATOM     10  C   UNL     1       0.992   2.707  23.294  0.00  0.00    +0.120 C 
BRANCH  10  12
ATOM     12  C   UNL     1      -0.052   3.079  24.312  0.00  0.00    -0.033 A 
ATOM     13  C   UNL     1      -0.232   2.288  25.447  0.00  0.00    +0.005 A 
ATOM     14  C   UNL     1      -0.842   4.213  24.120  0.00  0.00    +0.005 A 
ATOM     17  C   UNL     1      -1.201   2.631  26.390  0.00  0.00    +0.003 A 
ATOM     18  C   UNL     1      -1.811   4.556  25.064  0.00  0.00    +0.003 A 
ATOM     19  C   UNL     1      -1.990   3.765  26.198  0.00  0.00    -0.050 A 
ATOM     21  C   UNL     1      -3.026   4.131  27.206  0.00  0.00    +0.044 C 
ENDBRANCH  10  12
ENDBRANCH   3  10
TORSDOF 6
ENDMDL
MODEL 6
REMARK VINA RESULT:      -3.0      2.027      2.950
REMARK  Name = 26744106
REMARK  7 active torsions:
REMARK  status: ('A' for Active; 'I' for Inactive)
REMARK    1  A    between atoms: O_1  and  C_8
REMARK    2  A    between atoms: N_3  and  C_10
REMARK    3  A    between atoms: C_6  and  C_11
REMARK    4  A    between atoms: C_10  and  C_12
REMARK    5  A    between atoms: C_15  and  C_16
REMARK    6  A    between atoms: C_16  and  C_20
REMARK    7  A    between atoms: C_19  and  C_21
REMARK                            x       y       z     vdW  Elec       q    Type
REMARK                         _______ _______ _______ _____ _____    ______ ____
ROOT
ATOM      3  N   UNL     1      -4.522   1.780  25.181  0.00  0.00    -0.285 NA
ATOM      6  C   UNL     1      -3.755   2.859  24.527  0.00  0.00    +0.149 C 
ATOM      7  C   UNL     1      -4.416   4.163  25.011  0.00  0.00    +0.061 C 
ATOM      8  C   UNL     1      -5.572   3.714  25.896  0.00  0.00    +0.130 C 
ATOM      9  C   UNL     1      -5.867   2.307  25.408  0.00  0.00    +0.116 C 
ENDROOT
BRANCH   6  11
ATOM      2  O   UNL     1      -1.930   2.955  26.149  0.00  0.00    -0.336 OA
ATOM      4  N   UNL     1      -1.260   2.617  24.040  0.00  0.00    -0.194 NA
ATOM      5  N   UNL     1      -0.533   2.865  26.195  0.00  0.00    -0.061 NA
ATOM     11  C   UNL     1      -2.276   2.799  24.846  0.00  0.00    +0.245 A 
ATOM     15  C   UNL     1      -0.213   2.665  24.913  0.00  0.00    +0.176 A 
BRANCH  15  16
ATOM     16  C   UNL     1       1.178   2.510  24.475  0.00  0.00    +0.114 C 
BRANCH  16  20
ATOM     20  C   UNL     1       1.420   1.355  23.507  0.00  0.00    -0.040 A 
ATOM     22  C   UNL     1       2.690   1.153  22.966  0.00  0.00    +0.004 A 
ATOM     23  C   UNL     1       0.372   0.501  23.166  0.00  0.00    +0.004 A 
ATOM     24  C   UNL     1       2.910   0.096  22.081  0.00  0.00    +0.000 A 
ATOM     25  C   UNL     1       0.593  -0.555  22.281  0.00  0.00    +0.000 A 
ATOM     26  C   UNL     1       1.861  -0.757  21.739  0.00  0.00    +0.000 A 
ENDBRANCH  16  20
ENDBRANCH  15  16
ENDBRANCH   6  11
BRANCH   8   1
ATOM      1  O   UNL     1      -6.687   4.568  25.738  0.00  0.00    -0.390 OA
ATOM     27  H   UNL     1      -6.919   4.574  24.793  0.00  0.00    +0.210 HD
ENDBRANCH   8   1
BRANCH   3  10
ATOM     10  C   UNL     1      -4.541   0.541  24.414  0.00  0.00    +0.120 C 
BRANCH  10  12
ATOM     12  C   UNL     1      -3.351  -0.327  24.721  0.00  0.00    -0.033 A 
ATOM     13  C   UNL     1      -2.517  -0.012  25.794  0.00  0.00    +0.005 A 
ATOM     14  C   UNL     1      -3.081  -1.445  23.931  0.00  0.00    +0.005 A 
ATOM     17  C   UNL     1      -1.413  -0.816  26.078  0.00  0.00    +0.003 A 
ATOM     18  C   UNL     1      -1.976  -2.248  24.216  0.00  0.00    +0.003 A 
ATOM     19  C   UNL     1      -1.142  -1.934  25.289  0.00  0.00    -0.050 A 
ATOM     21  C   UNL     1       0.039  -2.791  25.592  0.00  0.00    +0.044 C 
ENDBRANCH  10  12
ENDBRANCH   3  10
TORSDOF 6
ENDMDL
MODEL 7
REMARK VINA RESULT:      -3.0      2.912      5.913
REMARK  Name = 26744106
REMARK  7 active torsions:
REMARK  status: ('A' for Active; 'I' for Inactive)
REMARK    1  A    between atoms: O_1  and  C_8
REMARK    2  A    between atoms: N_3  and  C_10
REMARK    3  A    between atoms: C_6  and  C_11
REMARK    4  A    between atoms: C_10  and  C_12
REMARK    5  A    between atoms: C_15  and  C_16
REMARK    6  A    between atoms: C_16  and  C_20
REMARK    7  A    between atoms: C_19  and  C_21
REMARK                            x       y       z     vdW  Elec       q    Type
REMARK                         _______ _______ _______ _____ _____    ______ ____
ROOT
ATOM      3  N   UNL     1      -3.651  -1.234  24.425  0.00  0.00    -0.285 NA
ATOM      6  C   UNL     1      -2.328  -1.654  24.931  0.00  0.00    +0.149 C 
ATOM      7  C   UNL     1      -2.093  -3.045  24.312  0.00  0.00    +0.061 C 
ATOM      8  C   UNL     1      -3.356  -3.339  23.513  0.00  0.00    +0.130 C 
ATOM      9  C   UNL     1      -4.405  -2.460  24.169  0.00  0.00    +0.116 C 
ENDROOT
BRANCH   6  11
ATOM      2  O   UNL     1      -0.289  -1.092  23.708  0.00  0.00    -0.336 OA
ATOM      4  N   UNL     1      -1.052   0.556  25.019  0.00  0.00    -0.194 NA
ATOM      5  N   UNL     1       0.604  -0.024  23.551  0.00  0.00    -0.061 NA
ATOM     11  C   UNL     1      -1.232  -0.667  24.588  0.00  0.00    +0.245 A 
ATOM     15  C   UNL     1       0.086   0.909  24.356  0.00  0.00    +0.176 A 
BRANCH  15  16
ATOM     16  C   UNL     1       0.707   2.229  24.515  0.00  0.00    +0.114 C 
BRANCH  16  20
ATOM     20  C   UNL     1      -0.254   3.344  24.915  0.00  0.00    -0.040 A 
ATOM     22  C   UNL     1      -0.194   4.581  24.272  0.00  0.00    +0.004 A 
ATOM     23  C   UNL     1      -1.194   3.127  25.922  0.00  0.00    +0.004 A 
ATOM     24  C   UNL     1      -1.074   5.600  24.638  0.00  0.00    +0.000 A 
ATOM     25  C   UNL     1      -2.074   4.146  26.287  0.00  0.00    +0.000 A 
ATOM     26  C   UNL     1      -2.013   5.383  25.646  0.00  0.00    +0.000 A 
ENDBRANCH  16  20
ENDBRANCH  15  16
ENDBRANCH   6  11
BRANCH   8   1
ATOM      1  O   UNL     1      -3.695  -4.710  23.596  0.00  0.00    -0.390 OA
ATOM     27  H   UNL     1      -4.396  -4.797  24.263  0.00  0.00    +0.210 HD
ENDBRANCH   8   1
BRANCH   3  10
ATOM     10  C   UNL     1      -4.355  -0.337  25.332  0.00  0.00    +0.120 C 
BRANCH  10  12
ATOM     12  C   UNL     1      -4.368   1.079  24.822  0.00  0.00    -0.033 A 
ATOM     13  C   UNL     1      -3.654   1.412  23.671  0.00  0.00    +0.005 A 
ATOM     14  C   UNL     1      -5.093   2.058  25.502  0.00  0.00    +0.005 A 
ATOM     17  C   UNL     1      -3.664   2.725  23.200  0.00  0.00    +0.003 A 
ATOM     18  C   UNL     1      -5.104   3.371  25.029  0.00  0.00    +0.003 A 
ATOM     19  C   UNL     1      -4.389   3.705  23.879  0.00  0.00    -0.050 A 
ATOM     21  C   UNL     1      -4.399   5.108  23.375  0.00  0.00    +0.044 C 
ENDBRANCH  10  12
ENDBRANCH   3  10
TORSDOF 6
ENDMDL
MODEL 8
REMARK VINA RESULT:      -1.4      1.842      4.749
REMARK  Name = 26744106
REMARK  7 active torsions:
REMARK  status: ('A' for Active; 'I' for Inactive)
REMARK    1  A    between atoms: O_1  and  C_8
REMARK    2  A    between atoms: N_3  and  C_10
REMARK    3  A    between atoms: C_6  and  C_11
REMARK    4  A    between atoms: C_10  and  C_12
REMARK    5  A    between atoms: C_15  and  C_16
REMARK    6  A    between atoms: C_16  and  C_20
REMARK    7  A    between atoms: C_19  and  C_21
REMARK                            x       y       z     vdW  Elec       q    Type
REMARK                         _______ _______ _______ _____ _____    ______ ____
ROOT
ATOM      3  N   UNL     1      -4.028  -0.262  24.238  0.00  0.00    -0.285 NA
ATOM      6  C   UNL     1      -3.076  -0.586  25.320  0.00  0.00    +0.149 C 
ATOM      7  C   UNL     1      -2.758  -2.081  25.130  0.00  0.00    +0.061 C 
ATOM      8  C   UNL     1      -3.611  -2.519  23.946  0.00  0.00    +0.130 C 
ATOM      9  C   UNL     1      -4.738  -1.502  23.924  0.00  0.00    +0.116 C 
ENDROOT
BRANCH   6  11
ATOM      2  O   UNL     1      -1.308   0.628  26.490  0.00  0.00    -0.336 OA
ATOM      4  N   UNL     1      -1.191   0.768  24.258  0.00  0.00    -0.194 NA
ATOM      5  N   UNL     1      -0.190   1.424  26.208  0.00  0.00    -0.061 NA
ATOM     11  C   UNL     1      -1.839   0.285  25.288  0.00  0.00    +0.245 A 
ATOM     15  C   UNL     1      -0.188   1.460  24.872  0.00  0.00    +0.176 A 
BRANCH  15  16
ATOM     16  C   UNL     1       0.829   2.199  24.116  0.00  0.00    +0.114 C 
BRANCH  16  20
ATOM     20  C   UNL     1       1.760   1.330  23.276  0.00  0.00    -0.040 A 
ATOM     22  C   UNL     1       3.125   1.616  23.226  0.00  0.00    +0.004 A 
ATOM     23  C   UNL     1       1.247   0.250  22.560  0.00  0.00    +0.004 A 
ATOM     24  C   UNL     1       3.976   0.820  22.458  0.00  0.00    +0.000 A 
ATOM     25  C   UNL     1       2.098  -0.546  21.792  0.00  0.00    +0.000 A 
ATOM     26  C   UNL     1       3.462  -0.260  21.741  0.00  0.00    +0.000 A 
ENDBRANCH  16  20
ENDBRANCH  15  16
ENDBRANCH   6  11
BRANCH   8   1
ATOM      1  O   UNL     1      -4.096  -3.834  24.136  0.00  0.00    -0.390 OA
ATOM     27  H   UNL     1      -5.058  -3.775  24.263  0.00  0.00    +0.210 HD
ENDBRANCH   8   1
BRANCH   3  10
ATOM     10  C   UNL     1      -4.941   0.821  24.580  0.00  0.00    +0.120 C 
BRANCH  10  12
ATOM     12  C   UNL     1      -4.224   2.136  24.720  0.00  0.00    -0.033 A 
ATOM     13  C   UNL     1      -3.658   2.744  23.599  0.00  0.00    +0.005 A 
ATOM     14  C   UNL     1      -4.123   2.747  25.970  0.00  0.00    +0.005 A 
ATOM     17  C   UNL     1      -2.991   3.962  23.728  0.00  0.00    +0.003 A 
ATOM     18  C   UNL     1      -3.456   3.966  26.099  0.00  0.00    +0.003 A 
ATOM     19  C   UNL     1      -2.890   4.573  24.979  0.00  0.00    -0.050 A 
ATOM     21  C   UNL     1      -2.176   5.875  25.116  0.00  0.00    +0.044 C 
ENDBRANCH  10  12
ENDBRANCH   3  10
TORSDOF 6
ENDMDL
