MODEL 1
REMARK VINA RESULT:      -6.6      0.000      0.000
REMARK  Name = 40779879
REMARK  7 active torsions:
REMARK  status: ('A' for Active; 'I' for Inactive)
REMARK    1  A    between atoms: O_2  and  C_24
REMARK    2  A    between atoms: O_2  and  C_25
REMARK    3  A    between atoms: N_4  and  C_13
REMARK    4  A    between atoms: N_5  and  C_14
REMARK    5  A    between atoms: C_7  and  C_13
REMARK    6  A    between atoms: C_8  and  C_14
REMARK    7  A    between atoms: C_20  and  C_24
REMARK                            x       y       z     vdW  Elec       q    Type
REMARK                         _______ _______ _______ _____ _____    ______ ____
ROOT
ATOM      3  N   UNL     1      -2.589  -2.421  24.328  0.00  0.00    -0.298 NA
ATOM      6  C   UNL     1      -3.081  -0.299  25.751  0.00  0.00    -0.002 C 
ATOM      7  C   UNL     1      -3.965  -0.331  24.483  0.00  0.00    +0.023 C 
ATOM      8  C   UNL     1      -1.321  -1.701  24.624  0.00  0.00    +0.074 C 
ATOM      9  C   UNL     1      -1.598  -0.360  25.339  0.00  0.00    +0.024 C 
ATOM     10  C   UNL     1      -3.531  -1.529  23.608  0.00  0.00    +0.090 C 
ATOM     11  C   UNL     1      -3.388  -1.585  26.542  0.00  0.00    +0.019 C 
ATOM     12  C   UNL     1      -3.209  -2.803  25.619  0.00  0.00    +0.085 C 
ENDROOT
BRANCH   7  13
ATOM     13  C   UNL     1      -3.939   0.978  23.697  0.00  0.00    +0.110 C 
BRANCH  13   4
ATOM      4  N   UNL     1      -3.749   2.085  24.602  0.00  0.00    -0.329 N 
ATOM     15  C   UNL     1      -4.865   2.866  25.132  0.00  0.00    +0.110 C 
ATOM     16  C   UNL     1      -2.639   2.918  24.589  0.00  0.00    +0.033 A 
ATOM     17  C   UNL     1      -4.246   4.048  25.906  0.00  0.00    +0.056 C 
ATOM     18  C   UNL     1      -2.870   4.089  25.323  0.00  0.00    -0.025 A 
ATOM     19  C   UNL     1      -1.410   2.720  23.980  0.00  0.00    +0.023 A 
ATOM     21  C   UNL     1      -1.901   5.067  25.472  0.00  0.00    +0.005 A 
ATOM     22  C   UNL     1      -0.423   3.701  24.113  0.00  0.00    +0.002 A 
ATOM     23  C   UNL     1      -0.668   4.868  24.855  0.00  0.00    +0.000 A 
ENDBRANCH  13   4
ENDBRANCH   7  13
BRANCH   8  14
ATOM     14  C   UNL     1      -0.452  -1.512  23.379  0.00  0.00    +0.123 C 
BRANCH  14   5
ATOM      1  O   UNL     1       1.436  -0.386  21.498  0.00  0.00    -0.273 OA
ATOM      5  N   UNL     1       0.597  -0.570  23.661  0.00  0.00    -0.312 N 
ATOM     20  C   UNL     1       1.462  -0.081  22.688  0.00  0.00    +0.239 C 
ATOM     26  H   UNL     1       0.705  -0.253  24.620  0.00  0.00    +0.149 HD
BRANCH  20  24
ATOM     24  C   UNL     1       2.466   0.894  23.262  0.00  0.00    +0.255 C 
BRANCH  24   2
ATOM      2  O   UNL     1       3.655   0.893  22.500  0.00  0.00    -0.374 OA
ATOM     25  C   UNL     1       4.764   0.402  23.246  0.00  0.00    +0.194 C 
ENDBRANCH  24   2
ENDBRANCH  20  24
ENDBRANCH  14   5
ENDBRANCH   8  14
TORSDOF 6
ENDMDL
MODEL 2
REMARK VINA RESULT:      -4.6     14.384     16.938
REMARK  Name = 40779879
REMARK  7 active torsions:
REMARK  status: ('A' for Active; 'I' for Inactive)
REMARK    1  A    between atoms: O_2  and  C_24
REMARK    2  A    between atoms: O_2  and  C_25
REMARK    3  A    between atoms: N_4  and  C_13
REMARK    4  A    between atoms: N_5  and  C_14
REMARK    5  A    between atoms: C_7  and  C_13
REMARK    6  A    between atoms: C_8  and  C_14
REMARK    7  A    between atoms: C_20  and  C_24
REMARK                            x       y       z     vdW  Elec       q    Type
REMARK                         _______ _______ _______ _____ _____    ______ ____
ROOT
ATOM      3  N   UNL     1      -5.873  -8.333   9.564  0.00  0.00    -0.298 NA
ATOM      6  C   UNL     1      -7.533 -10.215  10.251  0.00  0.00    -0.002 C 
ATOM      7  C   UNL     1      -6.976  -9.488  11.497  0.00  0.00    +0.023 C 
ATOM      8  C   UNL     1      -5.485  -9.616   8.918  0.00  0.00    +0.074 C 
ATOM      9  C   UNL     1      -6.363 -10.781   9.426  0.00  0.00    +0.024 C 
ATOM     10  C   UNL     1      -5.892  -8.485  11.038  0.00  0.00    +0.090 C 
ATOM     11  C   UNL     1      -8.228  -9.147   9.384  0.00  0.00    +0.019 C 
ATOM     12  C   UNL     1      -7.245  -7.994   9.115  0.00  0.00    +0.085 C 
ENDROOT
BRANCH   7  13
ATOM     13  C   UNL     1      -6.444 -10.442  12.563  0.00  0.00    +0.110 C 
BRANCH  13   4
ATOM      4  N   UNL     1      -7.232 -10.318  13.764  0.00  0.00    -0.329 N 
ATOM     15  C   UNL     1      -8.510  -9.610  13.796  0.00  0.00    +0.110 C 
ATOM     16  C   UNL     1      -6.695 -10.245  15.043  0.00  0.00    +0.033 A 
ATOM     17  C   UNL     1      -8.944  -9.548  15.274  0.00  0.00    +0.056 C 
ATOM     18  C   UNL     1      -7.642  -9.789  15.969  0.00  0.00    -0.025 A 
ATOM     19  C   UNL     1      -5.416 -10.566  15.468  0.00  0.00    +0.023 A 
ATOM     21  C   UNL     1      -7.347  -9.652  17.315  0.00  0.00    +0.005 A 
ATOM     22  C   UNL     1      -5.099 -10.424  16.822  0.00  0.00    +0.002 A 
ATOM     23  C   UNL     1      -6.058  -9.970  17.740  0.00  0.00    +0.000 A 
ENDBRANCH  13   4
ENDBRANCH   7  13
BRANCH   8  14
ATOM     14  C   UNL     1      -3.992  -9.921   9.073  0.00  0.00    +0.123 C 
BRANCH  14   5
ATOM      1  O   UNL     1      -1.803  -9.210  10.825  0.00  0.00    -0.273 OA
ATOM      5  N   UNL     1      -3.738 -10.428  10.394  0.00  0.00    -0.312 N 
ATOM     20  C   UNL     1      -2.655 -10.027  11.167  0.00  0.00    +0.239 C 
ATOM     26  H   UNL     1      -4.386 -11.113  10.773  0.00  0.00    +0.149 HD
BRANCH  20  24
ATOM     24  C   UNL     1      -2.632 -10.719  12.512  0.00  0.00    +0.255 C 
BRANCH  24   2
ATOM      2  O   UNL     1      -1.652 -10.145  13.352  0.00  0.00    -0.374 OA
ATOM     25  C   UNL     1      -1.797 -10.570  14.704  0.00  0.00    +0.194 C 
ENDBRANCH  24   2
ENDBRANCH  20  24
ENDBRANCH  14   5
ENDBRANCH   8  14
TORSDOF 6
ENDMDL
MODEL 3
REMARK VINA RESULT:      -3.9      1.499      4.563
REMARK  Name = 40779879
REMARK  7 active torsions:
REMARK  status: ('A' for Active; 'I' for Inactive)
REMARK    1  A    between atoms: O_2  and  C_24
REMARK    2  A    between atoms: O_2  and  C_25
REMARK    3  A    between atoms: N_4  and  C_13
REMARK    4  A    between atoms: N_5  and  C_14
REMARK    5  A    between atoms: C_7  and  C_13
REMARK    6  A    between atoms: C_8  and  C_14
REMARK    7  A    between atoms: C_20  and  C_24
REMARK                            x       y       z     vdW  Elec       q    Type
REMARK                         _______ _______ _______ _____ _____    ______ ____
ROOT
ATOM      3  N   UNL     1      -1.748   3.759  24.808  0.00  0.00    -0.298 NA
ATOM      6  C   UNL     1      -3.614   2.358  23.658  0.00  0.00    -0.002 C 
ATOM      7  C   UNL     1      -3.893   2.512  25.171  0.00  0.00    +0.023 C 
ATOM      8  C   UNL     1      -1.142   2.646  24.028  0.00  0.00    +0.074 C 
ATOM      9  C   UNL     1      -2.231   1.711  23.458  0.00  0.00    +0.024 C 
ATOM     10  C   UNL     1      -2.686   3.224  25.824  0.00  0.00    +0.090 C 
ATOM     11  C   UNL     1      -3.542   3.780  23.070  0.00  0.00    +0.019 C 
ATOM     12  C   UNL     1      -2.519   4.608  23.868  0.00  0.00    +0.085 C 
ENDROOT
BRANCH   7  13
ATOM     13  C   UNL     1      -4.208   1.188  25.863  0.00  0.00    +0.110 C 
BRANCH  13   4
ATOM      4  N   UNL     1      -3.893   0.091  24.982  0.00  0.00    -0.329 N 
ATOM     15  C   UNL     1      -4.923  -0.672  24.280  0.00  0.00    +0.110 C 
ATOM     16  C   UNL     1      -2.804  -0.753  25.148  0.00  0.00    +0.033 A 
ATOM     17  C   UNL     1      -4.205  -1.850  23.590  0.00  0.00    +0.056 C 
ATOM     18  C   UNL     1      -2.932  -1.911  24.371  0.00  0.00    -0.025 A 
ATOM     19  C   UNL     1      -1.678  -0.574  25.936  0.00  0.00    +0.023 A 
ATOM     21  C   UNL     1      -1.959  -2.897  24.354  0.00  0.00    +0.005 A 
ATOM     22  C   UNL     1      -0.690  -1.563  25.938  0.00  0.00    +0.002 A 
ATOM     23  C   UNL     1      -0.830  -2.718  25.152  0.00  0.00    +0.000 A 
ENDBRANCH  13   4
ENDBRANCH   7  13
BRANCH   8  14
ATOM     14  C   UNL     1      -0.093   1.873  24.832  0.00  0.00    +0.123 C 
BRANCH  14   5
ATOM      1  O   UNL     1       0.391  -0.454  23.184  0.00  0.00    -0.273 OA
ATOM      5  N   UNL     1       1.056   1.618  24.006  0.00  0.00    -0.312 N 
ATOM     20  C   UNL     1       1.203   0.465  23.243  0.00  0.00    +0.239 C 
ATOM     26  H   UNL     1       1.790   2.320  23.985  0.00  0.00    +0.149 HD
BRANCH  20  24
ATOM     24  C   UNL     1       2.505   0.460  22.472  0.00  0.00    +0.255 C 
BRANCH  24   2
ATOM      2  O   UNL     1       3.500   1.181  23.169  0.00  0.00    -0.374 OA
ATOM     25  C   UNL     1       4.744   0.488  23.187  0.00  0.00    +0.194 C 
ENDBRANCH  24   2
ENDBRANCH  20  24
ENDBRANCH  14   5
ENDBRANCH   8  14
TORSDOF 6
ENDMDL
MODEL 4
REMARK VINA RESULT:      -3.3      3.251      6.873
REMARK  Name = 40779879
REMARK  7 active torsions:
REMARK  status: ('A' for Active; 'I' for Inactive)
REMARK    1  A    between atoms: O_2  and  C_24
REMARK    2  A    between atoms: O_2  and  C_25
REMARK    3  A    between atoms: N_4  and  C_13
REMARK    4  A    between atoms: N_5  and  C_14
REMARK    5  A    between atoms: C_7  and  C_13
REMARK    6  A    between atoms: C_8  and  C_14
REMARK    7  A    between atoms: C_20  and  C_24
REMARK                            x       y       z     vdW  Elec       q    Type
REMARK                         _______ _______ _______ _____ _____    ______ ____
ROOT
ATOM      3  N   UNL     1      -0.739   4.218  24.861  0.00  0.00    -0.298 NA
ATOM      6  C   UNL     1      -0.621   1.786  25.778  0.00  0.00    -0.002 C 
ATOM      7  C   UNL     1      -0.017   1.870  24.357  0.00  0.00    +0.023 C 
ATOM      8  C   UNL     1      -2.082   3.786  25.334  0.00  0.00    +0.074 C 
ATOM      9  C   UNL     1      -2.073   2.297  25.745  0.00  0.00    +0.024 C 
ATOM     10  C   UNL     1      -0.244   3.298  23.809  0.00  0.00    +0.090 C 
ATOM     11  C   UNL     1       0.184   2.756  26.664  0.00  0.00    +0.019 C 
ATOM     12  C   UNL     1       0.193   4.149  26.011  0.00  0.00    +0.085 C 
ENDROOT
BRANCH   7  13
ATOM     13  C   UNL     1      -0.564   0.808  23.406  0.00  0.00    +0.110 C 
BRANCH  13   4
ATOM      4  N   UNL     1      -0.913  -0.377  24.149  0.00  0.00    -0.329 N 
ATOM     15  C   UNL     1       0.056  -1.427  24.453  0.00  0.00    +0.110 C 
ATOM     16  C   UNL     1      -2.165  -0.976  24.115  0.00  0.00    +0.033 A 
ATOM     17  C   UNL     1      -0.735  -2.585  25.096  0.00  0.00    +0.056 C 
ATOM     18  C   UNL     1      -2.125  -2.273  24.643  0.00  0.00    -0.025 A 
ATOM     19  C   UNL     1      -3.365  -0.456  23.658  0.00  0.00    +0.023 A 
ATOM     21  C   UNL     1      -3.258  -3.065  24.733  0.00  0.00    +0.005 A 
ATOM     22  C   UNL     1      -4.517  -1.245  23.734  0.00  0.00    +0.002 A 
ATOM     23  C   UNL     1      -4.463  -2.542  24.268  0.00  0.00    +0.000 A 
ENDBRANCH  13   4
ENDBRANCH   7  13
BRANCH   8  14
ATOM     14  C   UNL     1      -3.186   4.089  24.317  0.00  0.00    +0.123 C 
BRANCH  14   5
ATOM      1  O   UNL     1      -5.722   4.187  25.703  0.00  0.00    -0.273 OA
ATOM      5  N   UNL     1      -4.186   3.058  24.369  0.00  0.00    -0.312 N 
ATOM     20  C   UNL     1      -5.382   3.194  25.064  0.00  0.00    +0.239 C 
ATOM     26  H   UNL     1      -4.002   2.191  23.872  0.00  0.00    +0.149 HD
BRANCH  20  24
ATOM     24  C   UNL     1      -6.248   1.958  24.949  0.00  0.00    +0.255 C 
BRANCH  24   2
ATOM      2  O   UNL     1      -5.974   1.058  26.003  0.00  0.00    -0.374 OA
ATOM     25  C   UNL     1      -6.666   1.412  27.196  0.00  0.00    +0.194 C 
ENDBRANCH  24   2
ENDBRANCH  20  24
ENDBRANCH  14   5
ENDBRANCH   8  14
TORSDOF 6
ENDMDL
MODEL 5
REMARK VINA RESULT:      -3.3      0.768      1.939
REMARK  Name = 40779879
REMARK  7 active torsions:
REMARK  status: ('A' for Active; 'I' for Inactive)
REMARK    1  A    between atoms: O_2  and  C_24
REMARK    2  A    between atoms: O_2  and  C_25
REMARK    3  A    between atoms: N_4  and  C_13
REMARK    4  A    between atoms: N_5  and  C_14
REMARK    5  A    between atoms: C_7  and  C_13
REMARK    6  A    between atoms: C_8  and  C_14
REMARK    7  A    between atoms: C_20  and  C_24
REMARK                            x       y       z     vdW  Elec       q    Type
REMARK                         _______ _______ _______ _____ _____    ______ ____
ROOT
ATOM      3  N   UNL     1      -2.532  -2.106  24.330  0.00  0.00    -0.298 NA
ATOM      6  C   UNL     1      -2.834   0.323  25.211  0.00  0.00    -0.002 C 
ATOM      7  C   UNL     1      -3.371   0.189  23.768  0.00  0.00    +0.023 C 
ATOM      8  C   UNL     1      -1.239  -1.590  24.854  0.00  0.00    +0.074 C 
ATOM      9  C   UNL     1      -1.354  -0.100  25.246  0.00  0.00    +0.024 C 
ATOM     10  C   UNL     1      -3.036  -1.228  23.247  0.00  0.00    +0.090 C 
ATOM     11  C   UNL     1      -3.617  -0.685  26.075  0.00  0.00    +0.019 C 
ATOM     12  C   UNL     1      -3.516  -2.082  25.440  0.00  0.00    +0.085 C 
ENDROOT
BRANCH   7  13
ATOM     13  C   UNL     1      -2.849   1.272  22.827  0.00  0.00    +0.110 C 
BRANCH  13   4
ATOM      4  N   UNL     1      -2.452   2.429  23.591  0.00  0.00    -0.329 N 
ATOM     15  C   UNL     1      -1.069   2.663  24.000  0.00  0.00    +0.110 C 
ATOM     16  C   UNL     1      -3.264   3.065  24.520  0.00  0.00    +0.033 A 
ATOM     17  C   UNL     1      -1.087   3.891  24.933  0.00  0.00    +0.056 C 
ATOM     18  C   UNL     1      -2.524   3.924  25.343  0.00  0.00    -0.025 A 
ATOM     19  C   UNL     1      -4.634   2.956  24.695  0.00  0.00    +0.023 A 
ATOM     21  C   UNL     1      -3.119   4.684  26.335  0.00  0.00    +0.005 A 
ATOM     22  C   UNL     1      -5.250   3.710  25.698  0.00  0.00    +0.002 A 
ATOM     23  C   UNL     1      -4.496   4.569  26.514  0.00  0.00    +0.000 A 
ENDBRANCH  13   4
ENDBRANCH   7  13
BRANCH   8  14
ATOM     14  C   UNL     1      -0.077  -1.835  23.888  0.00  0.00    +0.123 C 
BRANCH  14   5
ATOM      1  O   UNL     1       1.270  -0.591  21.651  0.00  0.00    -0.273 OA
ATOM      5  N   UNL     1       0.831  -0.722  23.932  0.00  0.00    -0.312 N 
ATOM     20  C   UNL     1       1.435  -0.188  22.799  0.00  0.00    +0.239 C 
ATOM     26  H   UNL     1       1.037  -0.313  24.839  0.00  0.00    +0.149 HD
BRANCH  20  24
ATOM     24  C   UNL     1       2.341   0.976  23.137  0.00  0.00    +0.255 C 
BRANCH  24   2
ATOM      2  O   UNL     1       3.544   0.902  22.401  0.00  0.00    -0.374 OA
ATOM     25  C   UNL     1       4.621   0.409  23.191  0.00  0.00    +0.194 C 
ENDBRANCH  24   2
ENDBRANCH  20  24
ENDBRANCH  14   5
ENDBRANCH   8  14
TORSDOF 6
ENDMDL
MODEL 6
REMARK VINA RESULT:      -3.2      1.817      5.094
REMARK  Name = 40779879
REMARK  7 active torsions:
REMARK  status: ('A' for Active; 'I' for Inactive)
REMARK    1  A    between atoms: O_2  and  C_24
REMARK    2  A    between atoms: O_2  and  C_25
REMARK    3  A    between atoms: N_4  and  C_13
REMARK    4  A    between atoms: N_5  and  C_14
REMARK    5  A    between atoms: C_7  and  C_13
REMARK    6  A    between atoms: C_8  and  C_14
REMARK    7  A    between atoms: C_20  and  C_24
REMARK                            x       y       z     vdW  Elec       q    Type
REMARK                         _______ _______ _______ _____ _____    ______ ____
ROOT
ATOM      3  N   UNL     1      -2.936   3.722  26.284  0.00  0.00    -0.298 NA
ATOM      6  C   UNL     1      -4.339   3.439  24.111  0.00  0.00    -0.002 C 
ATOM      7  C   UNL     1      -3.734   2.089  24.557  0.00  0.00    +0.023 C 
ATOM      8  C   UNL     1      -2.494   4.707  25.260  0.00  0.00    +0.074 C 
ATOM      9  C   UNL     1      -3.206   4.464  23.911  0.00  0.00    +0.024 C 
ATOM     10  C   UNL     1      -2.798   2.341  25.762  0.00  0.00    +0.090 C 
ATOM     11  C   UNL     1      -5.210   3.945  25.276  0.00  0.00    +0.019 C 
ATOM     12  C   UNL     1      -4.370   3.970  26.565  0.00  0.00    +0.085 C 
ENDROOT
BRANCH   7  13
ATOM     13  C   UNL     1      -3.014   1.350  23.432  0.00  0.00    +0.110 C 
BRANCH  13   4
ATOM      4  N   UNL     1      -3.205  -0.072  23.582  0.00  0.00    -0.329 N 
ATOM     15  C   UNL     1      -4.526  -0.673  23.748  0.00  0.00    +0.110 C 
ATOM     16  C   UNL     1      -2.293  -0.919  24.197  0.00  0.00    +0.033 A 
ATOM     17  C   UNL     1      -4.295  -2.168  24.049  0.00  0.00    +0.056 C 
ATOM     18  C   UNL     1      -2.872  -2.156  24.506  0.00  0.00    -0.025 A 
ATOM     19  C   UNL     1      -0.961  -0.687  24.500  0.00  0.00    +0.023 A 
ATOM     21  C   UNL     1      -2.152  -3.175  25.108  0.00  0.00    +0.005 A 
ATOM     22  C   UNL     1      -0.222  -1.702  25.116  0.00  0.00    +0.002 A 
ATOM     23  C   UNL     1      -0.814  -2.938  25.418  0.00  0.00    +0.000 A 
ENDBRANCH  13   4
ENDBRANCH   7  13
BRANCH   8  14
ATOM     14  C   UNL     1      -0.971   4.741  25.100  0.00  0.00    +0.123 C 
BRANCH  14   5
ATOM      1  O   UNL     1       0.667   2.495  25.896  0.00  0.00    -0.273 OA
ATOM      5  N   UNL     1      -0.548   3.642  24.277  0.00  0.00    -0.312 N 
ATOM     20  C   UNL     1       0.243   2.600  24.748  0.00  0.00    +0.239 C 
ATOM     26  H   UNL     1      -0.845   3.633  23.306  0.00  0.00    +0.149 HD
BRANCH  20  24
ATOM     24  C   UNL     1       0.537   1.580  23.670  0.00  0.00    +0.255 C 
BRANCH  24   2
ATOM      2  O   UNL     1       1.927   1.348  23.567  0.00  0.00    -0.374 OA
ATOM     25  C   UNL     1       2.217   0.213  22.758  0.00  0.00    +0.194 C 
ENDBRANCH  24   2
ENDBRANCH  20  24
ENDBRANCH  14   5
ENDBRANCH   8  14
TORSDOF 6
ENDMDL
MODEL 7
REMARK VINA RESULT:      -3.2      1.504      4.528
REMARK  Name = 40779879
REMARK  7 active torsions:
REMARK  status: ('A' for Active; 'I' for Inactive)
REMARK    1  A    between atoms: O_2  and  C_24
REMARK    2  A    between atoms: O_2  and  C_25
REMARK    3  A    between atoms: N_4  and  C_13
REMARK    4  A    between atoms: N_5  and  C_14
REMARK    5  A    between atoms: C_7  and  C_13
REMARK    6  A    between atoms: C_8  and  C_14
REMARK    7  A    between atoms: C_20  and  C_24
REMARK                            x       y       z     vdW  Elec       q    Type
REMARK                         _______ _______ _______ _____ _____    ______ ____
ROOT
ATOM      3  N   UNL     1      -0.157   3.686  24.989  0.00  0.00    -0.298 NA
ATOM      6  C   UNL     1      -2.705   3.756  24.465  0.00  0.00    -0.002 C 
ATOM      7  C   UNL     1      -2.457   3.541  25.976  0.00  0.00    +0.023 C 
ATOM      8  C   UNL     1      -0.480   2.726  23.899  0.00  0.00    +0.074 C 
ATOM      9  C   UNL     1      -2.005   2.638  23.670  0.00  0.00    +0.024 C 
ATOM     10  C   UNL     1      -0.939   3.363  26.207  0.00  0.00    +0.090 C 
ATOM     11  C   UNL     1      -2.020   5.083  24.085  0.00  0.00    +0.019 C 
ATOM     12  C   UNL     1      -0.549   5.041  24.533  0.00  0.00    +0.085 C 
ENDROOT
BRANCH   7  13
ATOM     13  C   UNL     1      -3.255   2.376  26.557  0.00  0.00    +0.110 C 
BRANCH  13   4
ATOM      4  N   UNL     1      -3.833   1.600  25.488  0.00  0.00    -0.329 N 
ATOM     15  C   UNL     1      -5.212   1.783  25.042  0.00  0.00    +0.110 C 
ATOM     16  C   UNL     1      -3.483   0.287  25.202  0.00  0.00    +0.033 A 
ATOM     17  C   UNL     1      -5.497   0.663  24.019  0.00  0.00    +0.056 C 
ATOM     18  C   UNL     1      -4.422  -0.320  24.359  0.00  0.00    -0.025 A 
ATOM     19  C   UNL     1      -2.374  -0.428  25.625  0.00  0.00    +0.023 A 
ATOM     21  C   UNL     1      -4.280  -1.625  23.918  0.00  0.00    +0.005 A 
ATOM     22  C   UNL     1      -2.219  -1.750  25.197  0.00  0.00    +0.002 A 
ATOM     23  C   UNL     1      -3.167  -2.345  24.349  0.00  0.00    +0.000 A 
ENDBRANCH  13   4
ENDBRANCH   7  13
BRANCH   8  14
ATOM     14  C   UNL     1       0.140   1.345  24.134  0.00  0.00    +0.123 C 
BRANCH  14   5
ATOM      1  O   UNL     1       1.437  -0.358  22.189  0.00  0.00    -0.273 OA
ATOM      5  N   UNL     1       1.524   1.366  23.748  0.00  0.00    -0.312 N 
ATOM     20  C   UNL     1       2.062   0.505  22.799  0.00  0.00    +0.239 C 
ATOM     26  H   UNL     1       2.132   2.046  24.196  0.00  0.00    +0.149 HD
BRANCH  20  24
ATOM     24  C   UNL     1       3.541   0.748  22.588  0.00  0.00    +0.255 C 
BRANCH  24   2
ATOM      2  O   UNL     1       4.304  -0.297  23.157  0.00  0.00    -0.374 OA
ATOM     25  C   UNL     1       5.461   0.195  23.826  0.00  0.00    +0.194 C 
ENDBRANCH  24   2
ENDBRANCH  20  24
ENDBRANCH  14   5
ENDBRANCH   8  14
TORSDOF 6
ENDMDL
