MODEL 1
REMARK VINA RESULT:       4.4      0.000      0.000
REMARK  Name = 45360872
REMARK  7 active torsions:
REMARK  status: ('A' for Active; 'I' for Inactive)
REMARK    1  A    between atoms: N_3  and  C_17
REMARK    2  A    between atoms: N_4  and  C_18
REMARK    3  A    between atoms: N_7  and  C_28
REMARK    4  A    between atoms: C_13  and  C_16
REMARK    5  A    between atoms: C_16  and  C_19
REMARK    6  A    between atoms: C_17  and  C_20
REMARK    7  A    between atoms: C_19  and  C_21
REMARK                            x       y       z     vdW  Elec       q    Type
REMARK                         _______ _______ _______ _____ _____    ______ ____
ROOT
ATOM      1  O   UNL     1      -0.935   2.228  23.497  0.00  0.00    -0.274 OA
ATOM      3  N   UNL     1      -0.037  -0.288  23.889  0.00  0.00    -0.283 NA
ATOM      4  N   UNL     1      -3.371  -0.112  25.388  0.00  0.00    -0.296 NA
ATOM      5  N   UNL     1      -3.100   1.610  23.089  0.00  0.00    -0.312 N 
ATOM      9  C   UNL     1      -2.234  -0.828  24.770  0.00  0.00    +0.084 C 
ATOM     10  C   UNL     1      -1.475  -0.142  23.596  0.00  0.00    +0.161 C 
ATOM     11  C   UNL     1      -1.089  -1.146  25.750  0.00  0.00    +0.036 C 
ATOM     12  C   UNL     1       0.097  -1.387  24.839  0.00  0.00    +0.087 C 
ATOM     13  C   UNL     1      -4.521   0.127  24.471  0.00  0.00    +0.074 C 
ATOM     14  C   UNL     1      -1.782   1.342  23.408  0.00  0.00    +0.232 C 
ATOM     15  C   UNL     1      -4.136   0.598  23.056  0.00  0.00    +0.123 C 
ATOM     18  C   UNL     1      -3.825  -0.802  26.607  0.00  0.00    +0.105 C 
ATOM     33  H   UNL     1      -3.351   2.570  22.874  0.00  0.00    +0.149 HD
ENDROOT
BRANCH  13  16
ATOM     16  C   UNL     1      -5.477   1.182  25.068  0.00  0.00    +0.029 C 
BRANCH  16  19
ATOM     19  C   UNL     1      -4.750   2.162  25.968  0.00  0.00    +0.097 C 
BRANCH  19  21
ATOM      2  O   UNL     1      -5.357   4.040  24.637  0.00  0.00    -0.276 OA
ATOM      6  N   UNL     1      -3.158   3.904  25.329  0.00  0.00    -0.301 N 
ATOM     21  C   UNL     1      -4.463   3.455  25.249  0.00  0.00    +0.216 C 
ATOM     22  C   UNL     1      -2.717   5.132  24.682  0.00  0.00    +0.108 C 
ATOM     23  C   UNL     1      -2.055   3.262  26.038  0.00  0.00    +0.108 C 
ATOM     24  C   UNL     1      -1.347   5.408  25.284  0.00  0.00    +0.020 C 
ATOM     25  C   UNL     1      -0.815   4.010  25.570  0.00  0.00    +0.020 C 
ENDBRANCH  19  21
ENDBRANCH  16  19
ENDBRANCH  13  16
BRANCH   3  17
ATOM     17  C   UNL     1       0.778  -0.489  22.698  0.00  0.00    +0.159 C 
BRANCH  17  20
ATOM      7  N   UNL     1       2.983   0.669  23.056  0.00  0.00    -0.330 N 
ATOM      8  N   UNL     1       2.982  -1.541  23.292  0.00  0.00    -0.231 NA
ATOM     20  C   UNL     1       2.250  -0.485  23.019  0.00  0.00    +0.125 A 
ATOM     26  C   UNL     1       4.274   0.334  23.373  0.00  0.00    +0.069 A 
ATOM     27  C   UNL     1       4.247  -1.050  23.515  0.00  0.00    +0.089 A 
ATOM     28  C   UNL     1       2.488   2.004  22.805  0.00  0.00    +0.150 C 
ATOM     29  C   UNL     1       5.427   1.100  23.543  0.00  0.00    +0.028 A 
ATOM     30  C   UNL     1       5.433  -1.728  23.847  0.00  0.00    +0.030 A 
ATOM     31  C   UNL     1       6.598   0.411  23.873  0.00  0.00    +0.002 A 
ATOM     32  C   UNL     1       6.604  -0.978  24.021  0.00  0.00    +0.002 A 
ENDBRANCH  17  20
ENDBRANCH   3  17
TORSDOF 5
ENDMDL
MODEL 2
REMARK VINA RESULT:       5.9      1.495      7.147
REMARK  Name = 45360872
REMARK  7 active torsions:
REMARK  status: ('A' for Active; 'I' for Inactive)
REMARK    1  A    between atoms: N_3  and  C_17
REMARK    2  A    between atoms: N_4  and  C_18
REMARK    3  A    between atoms: N_7  and  C_28
REMARK    4  A    between atoms: C_13  and  C_16
REMARK    5  A    between atoms: C_16  and  C_19
REMARK    6  A    between atoms: C_17  and  C_20
REMARK    7  A    between atoms: C_19  and  C_21
REMARK                            x       y       z     vdW  Elec       q    Type
REMARK                         _______ _______ _______ _____ _____    ______ ____
ROOT
ATOM      1  O   UNL     1      -3.058   0.558  22.478  0.00  0.00    -0.274 OA
ATOM      3  N   UNL     1      -3.838  -0.096  24.980  0.00  0.00    -0.283 NA
ATOM      4  N   UNL     1      -0.545  -1.608  24.473  0.00  0.00    -0.296 NA
ATOM      5  N   UNL     1      -0.858   0.868  23.027  0.00  0.00    -0.312 N 
ATOM      9  C   UNL     1      -1.634  -1.058  25.309  0.00  0.00    +0.084 C 
ATOM     10  C   UNL     1      -2.404   0.194  24.793  0.00  0.00    +0.161 C 
ATOM     11  C   UNL     1      -2.780  -2.052  25.576  0.00  0.00    +0.036 C 
ATOM     12  C   UNL     1      -3.936  -1.157  25.975  0.00  0.00    +0.087 C 
ATOM     13  C   UNL     1       0.609  -0.686  24.277  0.00  0.00    +0.074 C 
ATOM     14  C   UNL     1      -2.167   0.538  23.325  0.00  0.00    +0.232 C 
ATOM     15  C   UNL     1       0.227   0.777  23.982  0.00  0.00    +0.123 C 
ATOM     18  C   UNL     1      -0.081  -2.902  25.003  0.00  0.00    +0.105 C 
ATOM     33  H   UNL     1      -0.650   1.183  22.084  0.00  0.00    +0.149 HD
ENDROOT
BRANCH  13  16
ATOM     16  C   UNL     1       1.500  -1.176  23.116  0.00  0.00    +0.029 C 
BRANCH  16  19
ATOM     19  C   UNL     1       1.911  -0.041  22.198  0.00  0.00    +0.097 C 
BRANCH  19  21
ATOM      2  O   UNL     1       3.118   1.948  22.703  0.00  0.00    -0.276 OA
ATOM      6  N   UNL     1       4.084  -0.058  23.318  0.00  0.00    -0.301 N 
ATOM     21  C   UNL     1       3.085   0.718  22.761  0.00  0.00    +0.216 C 
ATOM     22  C   UNL     1       5.287   0.522  23.897  0.00  0.00    +0.108 C 
ATOM     23  C   UNL     1       4.104  -1.514  23.421  0.00  0.00    +0.108 C 
ATOM     24  C   UNL     1       5.931  -0.623  24.664  0.00  0.00    +0.020 C 
ATOM     25  C   UNL     1       5.526  -1.845  23.850  0.00  0.00    +0.020 C 
ENDBRANCH  19  21
ENDBRANCH  16  19
ENDBRANCH  13  16
BRANCH   3  17
ATOM     17  C   UNL     1      -4.621   1.077  25.349  0.00  0.00    +0.159 C 
BRANCH  17  20
ATOM      7  N   UNL     1      -4.387   3.581  25.305  0.00  0.00    -0.330 N 
ATOM      8  N   UNL     1      -2.501   2.413  25.165  0.00  0.00    -0.231 NA
ATOM     20  C   UNL     1      -3.808   2.342  25.271  0.00  0.00    +0.125 A 
ATOM     26  C   UNL     1      -3.385   4.513  25.214  0.00  0.00    +0.069 A 
ATOM     27  C   UNL     1      -2.218   3.758  25.128  0.00  0.00    +0.089 A 
ATOM     28  C   UNL     1      -5.800   3.862  25.416  0.00  0.00    +0.150 C 
ATOM     29  C   UNL     1      -3.399   5.907  25.201  0.00  0.00    +0.028 A 
ATOM     30  C   UNL     1      -0.982   4.419  25.022  0.00  0.00    +0.030 A 
ATOM     31  C   UNL     1      -2.161   6.548  25.095  0.00  0.00    +0.002 A 
ATOM     32  C   UNL     1      -0.972   5.819  25.006  0.00  0.00    +0.002 A 
ENDBRANCH  17  20
ENDBRANCH   3  17
TORSDOF 5
ENDMDL
MODEL 3
REMARK VINA RESULT:       6.3      2.620      7.518
REMARK  Name = 45360872
REMARK  7 active torsions:
REMARK  status: ('A' for Active; 'I' for Inactive)
REMARK    1  A    between atoms: N_3  and  C_17
REMARK    2  A    between atoms: N_4  and  C_18
REMARK    3  A    between atoms: N_7  and  C_28
REMARK    4  A    between atoms: C_13  and  C_16
REMARK    5  A    between atoms: C_16  and  C_19
REMARK    6  A    between atoms: C_17  and  C_20
REMARK    7  A    between atoms: C_19  and  C_21
REMARK                            x       y       z     vdW  Elec       q    Type
REMARK                         _______ _______ _______ _____ _____    ______ ____
ROOT
ATOM      1  O   UNL     1      -0.272   2.646  27.116  0.00  0.00    -0.274 OA
ATOM      3  N   UNL     1      -0.467   4.071  24.830  0.00  0.00    -0.283 NA
ATOM      4  N   UNL     1       0.696   0.731  23.893  0.00  0.00    -0.296 NA
ATOM      5  N   UNL     1      -1.035   0.692  26.201  0.00  0.00    -0.312 N 
ATOM      9  C   UNL     1       0.025   2.022  23.626  0.00  0.00    +0.084 C 
ATOM     10  C   UNL     1      -0.850   2.649  24.752  0.00  0.00    +0.161 C 
ATOM     11  C   UNL     1       0.993   3.173  23.294  0.00  0.00    +0.036 C 
ATOM     12  C   UNL     1       0.170   4.415  23.564  0.00  0.00    +0.087 C 
ATOM     13  C   UNL     1      -0.232  -0.409  24.133  0.00  0.00    +0.074 C 
ATOM     14  C   UNL     1      -0.672   2.024  26.133  0.00  0.00    +0.232 C 
ATOM     15  C   UNL     1      -1.431  -0.088  25.046  0.00  0.00    +0.123 C 
ATOM     18  C   UNL     1       1.643   0.401  22.815  0.00  0.00    +0.105 C 
ATOM     33  H   UNL     1      -1.015   0.239  27.109  0.00  0.00    +0.149 HD
ENDROOT
BRANCH  13  16
ATOM     16  C   UNL     1       0.524  -1.598  24.761  0.00  0.00    +0.029 C 
BRANCH  16  19
ATOM     19  C   UNL     1      -0.417  -2.709  25.186  0.00  0.00    +0.097 C 
BRANCH  19  21
ATOM      2  O   UNL     1      -1.107  -3.690  23.129  0.00  0.00    -0.276 OA
ATOM      6  N   UNL     1      -2.685  -2.479  24.303  0.00  0.00    -0.301 N 
ATOM     21  C   UNL     1      -1.425  -3.013  24.107  0.00  0.00    +0.216 C 
ATOM     22  C   UNL     1      -3.768  -2.674  23.350  0.00  0.00    +0.108 C 
ATOM     23  C   UNL     1      -3.126  -1.674  25.438  0.00  0.00    +0.108 C 
ATOM     24  C   UNL     1      -5.015  -2.219  24.094  0.00  0.00    +0.020 C 
ATOM     25  C   UNL     1      -4.482  -1.129  25.014  0.00  0.00    +0.020 C 
ENDBRANCH  19  21
ENDBRANCH  16  19
ENDBRANCH  13  16
BRANCH   3  17
ATOM     17  C   UNL     1      -1.585   4.954  25.140  0.00  0.00    +0.159 C 
BRANCH  17  20
ATOM      7  N   UNL     1      -3.522   3.591  24.293  0.00  0.00    -0.330 N 
ATOM      8  N   UNL     1      -3.490   4.007  26.477  0.00  0.00    -0.231 NA
ATOM     20  C   UNL     1      -2.867   4.189  25.335  0.00  0.00    +0.125 A 
ATOM     26  C   UNL     1      -4.643   2.983  24.798  0.00  0.00    +0.069 A 
ATOM     27  C   UNL     1      -4.600   3.258  26.163  0.00  0.00    +0.089 A 
ATOM     28  C   UNL     1      -3.110   3.596  22.908  0.00  0.00    +0.150 C 
ATOM     29  C   UNL     1      -5.659   2.240  24.197  0.00  0.00    +0.028 A 
ATOM     30  C   UNL     1      -5.624   2.769  26.992  0.00  0.00    +0.030 A 
ATOM     31  C   UNL     1      -6.669   1.761  25.037  0.00  0.00    +0.002 A 
ATOM     32  C   UNL     1      -6.655   2.021  26.410  0.00  0.00    +0.002 A 
ENDBRANCH  17  20
ENDBRANCH   3  17
TORSDOF 5
ENDMDL
MODEL 4
REMARK VINA RESULT:       6.9      1.543      2.207
REMARK  Name = 45360872
REMARK  7 active torsions:
REMARK  status: ('A' for Active; 'I' for Inactive)
REMARK    1  A    between atoms: N_3  and  C_17
REMARK    2  A    between atoms: N_4  and  C_18
REMARK    3  A    between atoms: N_7  and  C_28
REMARK    4  A    between atoms: C_13  and  C_16
REMARK    5  A    between atoms: C_16  and  C_19
REMARK    6  A    between atoms: C_17  and  C_20
REMARK    7  A    between atoms: C_19  and  C_21
REMARK                            x       y       z     vdW  Elec       q    Type
REMARK                         _______ _______ _______ _____ _____    ______ ____
ROOT
ATOM      1  O   UNL     1      -0.062   1.415  24.101  0.00  0.00    -0.274 OA
ATOM      3  N   UNL     1      -1.242  -1.003  24.329  0.00  0.00    -0.283 NA
ATOM      4  N   UNL     1      -3.868   1.502  24.803  0.00  0.00    -0.296 NA
ATOM      5  N   UNL     1      -1.808   2.389  22.989  0.00  0.00    -0.312 N 
ATOM      9  C   UNL     1      -3.372   0.157  24.436  0.00  0.00    +0.084 C 
ATOM     10  C   UNL     1      -2.027   0.050  23.658  0.00  0.00    +0.161 C 
ATOM     11  C   UNL     1      -3.119  -0.767  25.642  0.00  0.00    +0.036 C 
ATOM     12  C   UNL     1      -2.182  -1.820  25.088  0.00  0.00    +0.087 C 
ATOM     13  C   UNL     1      -4.196   2.376  23.643  0.00  0.00    +0.074 C 
ATOM     14  C   UNL     1      -1.194   1.329  23.629  0.00  0.00    +0.232 C 
ATOM     15  C   UNL     1      -3.170   2.344  22.495  0.00  0.00    +0.123 C 
ATOM     18  C   UNL     1      -5.022   1.403  25.712  0.00  0.00    +0.105 C 
ATOM     33  H   UNL     1      -1.275   3.245  22.866  0.00  0.00    +0.149 HD
ENDROOT
BRANCH  13  16
ATOM     16  C   UNL     1      -4.338   3.844  24.097  0.00  0.00    +0.029 C 
BRANCH  16  19
ATOM     19  C   UNL     1      -3.648   4.098  25.424  0.00  0.00    +0.097 C 
BRANCH  19  21
ATOM      2  O   UNL     1      -1.900   5.429  24.505  0.00  0.00    -0.276 OA
ATOM      6  N   UNL     1      -1.283   3.682  25.884  0.00  0.00    -0.301 N 
ATOM     21  C   UNL     1      -2.202   4.475  25.223  0.00  0.00    +0.216 C 
ATOM     22  C   UNL     1       0.152   3.909  25.788  0.00  0.00    +0.108 C 
ATOM     23  C   UNL     1      -1.574   2.542  26.750  0.00  0.00    +0.108 C 
ATOM     24  C   UNL     1       0.748   3.052  26.894  0.00  0.00    +0.020 C 
ATOM     25  C   UNL     1      -0.223   1.881  26.976  0.00  0.00    +0.020 C 
ENDBRANCH  19  21
ENDBRANCH  16  19
ENDBRANCH  13  16
BRANCH   3  17
ATOM     17  C   UNL     1      -0.439  -1.800  23.410  0.00  0.00    +0.159 C 
BRANCH  17  20
ATOM      7  N   UNL     1       1.415  -0.554  22.253  0.00  0.00    -0.330 N 
ATOM      8  N   UNL     1       1.924  -1.488  24.205  0.00  0.00    -0.231 NA
ATOM     20  C   UNL     1       0.975  -1.294  23.317  0.00  0.00    +0.125 A 
ATOM     26  C   UNL     1       2.735  -0.253  22.470  0.00  0.00    +0.069 A 
ATOM     27  C   UNL     1       3.028  -0.847  23.694  0.00  0.00    +0.089 A 
ATOM     28  C   UNL     1       0.631  -0.160  21.104  0.00  0.00    +0.150 C 
ATOM     29  C   UNL     1       3.668   0.466  21.723  0.00  0.00    +0.028 A 
ATOM     30  C   UNL     1       4.326  -0.725  24.220  0.00  0.00    +0.030 A 
ATOM     31  C   UNL     1       4.954   0.577  22.261  0.00  0.00    +0.002 A 
ATOM     32  C   UNL     1       5.280  -0.008  23.487  0.00  0.00    +0.002 A 
ENDBRANCH  17  20
ENDBRANCH   3  17
TORSDOF 5
ENDMDL
MODEL 5
REMARK VINA RESULT:       7.5      1.852      7.883
REMARK  Name = 45360872
REMARK  7 active torsions:
REMARK  status: ('A' for Active; 'I' for Inactive)
REMARK    1  A    between atoms: N_3  and  C_17
REMARK    2  A    between atoms: N_4  and  C_18
REMARK    3  A    between atoms: N_7  and  C_28
REMARK    4  A    between atoms: C_13  and  C_16
REMARK    5  A    between atoms: C_16  and  C_19
REMARK    6  A    between atoms: C_17  and  C_20
REMARK    7  A    between atoms: C_19  and  C_21
REMARK                            x       y       z     vdW  Elec       q    Type
REMARK                         _______ _______ _______ _____ _____    ______ ____
ROOT
ATOM      1  O   UNL     1      -3.045   0.800  22.170  0.00  0.00    -0.274 OA
ATOM      3  N   UNL     1      -3.650  -0.931  24.153  0.00  0.00    -0.283 NA
ATOM      4  N   UNL     1      -0.008  -0.573  24.140  0.00  0.00    -0.296 NA
ATOM      5  N   UNL     1      -1.359   1.839  23.317  0.00  0.00    -0.312 N 
ATOM      9  C   UNL     1      -1.306  -0.876  24.782  0.00  0.00    +0.084 C 
ATOM     10  C   UNL     1      -2.538   0.003  24.413  0.00  0.00    +0.161 C 
ATOM     11  C   UNL     1      -1.828  -2.296  24.498  0.00  0.00    +0.036 C 
ATOM     12  C   UNL     1      -3.309  -2.194  24.798  0.00  0.00    +0.087 C 
ATOM     13  C   UNL     1       0.548   0.767  24.476  0.00  0.00    +0.074 C 
ATOM     14  C   UNL     1      -2.355   0.889  23.184  0.00  0.00    +0.232 C 
ATOM     15  C   UNL     1      -0.477   1.917  24.463  0.00  0.00    +0.123 C 
ATOM     18  C   UNL     1       0.979  -1.625  24.435  0.00  0.00    +0.105 C 
ATOM     33  H   UNL     1      -1.240   2.511  22.565  0.00  0.00    +0.149 HD
ENDROOT
BRANCH  13  16
ATOM     16  C   UNL     1       1.679   1.143  23.494  0.00  0.00    +0.029 C 
BRANCH  16  19
ATOM     19  C   UNL     1       2.017   0.002  22.554  0.00  0.00    +0.097 C 
BRANCH  19  21
ATOM      2  O   UNL     1       3.525   0.584  20.805  0.00  0.00    -0.276 OA
ATOM      6  N   UNL     1       4.446  -0.159  22.788  0.00  0.00    -0.301 N 
ATOM     21  C   UNL     1       3.392   0.175  21.959  0.00  0.00    +0.216 C 
ATOM     22  C   UNL     1       5.834  -0.056  22.361  0.00  0.00    +0.108 C 
ATOM     23  C   UNL     1       4.357  -0.644  24.162  0.00  0.00    +0.108 C 
ATOM     24  C   UNL     1       6.638  -0.195  23.644  0.00  0.00    +0.020 C 
ATOM     25  C   UNL     1       5.767  -1.113  24.492  0.00  0.00    +0.020 C 
ENDBRANCH  19  21
ENDBRANCH  16  19
ENDBRANCH  13  16
BRANCH   3  17
ATOM     17  C   UNL     1      -4.945  -0.424  24.589  0.00  0.00    +0.159 C 
BRANCH  17  20
ATOM      7  N   UNL     1      -5.933   1.873  24.862  0.00  0.00    -0.330 N 
ATOM      8  N   UNL     1      -3.826   1.623  25.522  0.00  0.00    -0.231 NA
ATOM     20  C   UNL     1      -4.871   1.022  25.001  0.00  0.00    +0.125 A 
ATOM     26  C   UNL     1      -5.546   3.105  25.324  0.00  0.00    +0.069 A 
ATOM     27  C   UNL     1      -4.227   2.922  25.730  0.00  0.00    +0.089 A 
ATOM     28  C   UNL     1      -7.232   1.538  24.324  0.00  0.00    +0.150 C 
ATOM     29  C   UNL     1      -6.216   4.324  25.418  0.00  0.00    +0.028 A 
ATOM     30  C   UNL     1      -3.519   4.011  26.266  0.00  0.00    +0.030 A 
ATOM     31  C   UNL     1      -5.496   5.397  25.953  0.00  0.00    +0.002 A 
ATOM     32  C   UNL     1      -4.171   5.246  26.369  0.00  0.00    +0.002 A 
ENDBRANCH  17  20
ENDBRANCH   3  17
TORSDOF 5
ENDMDL
MODEL 6
REMARK VINA RESULT:       8.3      1.902      7.607
REMARK  Name = 45360872
REMARK  7 active torsions:
REMARK  status: ('A' for Active; 'I' for Inactive)
REMARK    1  A    between atoms: N_3  and  C_17
REMARK    2  A    between atoms: N_4  and  C_18
REMARK    3  A    between atoms: N_7  and  C_28
REMARK    4  A    between atoms: C_13  and  C_16
REMARK    5  A    between atoms: C_16  and  C_19
REMARK    6  A    between atoms: C_17  and  C_20
REMARK    7  A    between atoms: C_19  and  C_21
REMARK                            x       y       z     vdW  Elec       q    Type
REMARK                         _______ _______ _______ _____ _____    ______ ____
ROOT
ATOM      1  O   UNL     1      -0.805   2.152  27.291  0.00  0.00    -0.274 OA
ATOM      3  N   UNL     1      -2.830   3.363  25.978  0.00  0.00    -0.283 NA
ATOM      4  N   UNL     1       0.129   3.648  23.845  0.00  0.00    -0.296 NA
ATOM      5  N   UNL     1       0.128   1.229  25.417  0.00  0.00    -0.312 N 
ATOM      9  C   UNL     1      -1.330   3.600  24.085  0.00  0.00    +0.084 C 
ATOM     10  C   UNL     1      -1.873   2.604  25.152  0.00  0.00    +0.161 C 
ATOM     11  C   UNL     1      -1.930   4.936  24.559  0.00  0.00    +0.036 C 
ATOM     12  C   UNL     1      -3.239   4.527  25.201  0.00  0.00    +0.087 C 
ATOM     13  C   UNL     1       0.707   2.385  23.305  0.00  0.00    +0.074 C 
ATOM     14  C   UNL     1      -0.814   2.001  26.071  0.00  0.00    +0.232 C 
ATOM     15  C   UNL     1       0.192   1.097  23.975  0.00  0.00    +0.123 C 
ATOM     18  C   UNL     1       0.479   4.783  22.974  0.00  0.00    +0.105 C 
ATOM     33  H   UNL     1       0.813   0.735  25.980  0.00  0.00    +0.149 HD
ENDROOT
BRANCH  13  16
ATOM     16  C   UNL     1       2.245   2.395  23.440  0.00  0.00    +0.029 C 
BRANCH  16  19
ATOM     19  C   UNL     1       2.918   1.624  22.322  0.00  0.00    +0.097 C 
BRANCH  19  21
ATOM      2  O   UNL     1       2.028  -0.585  22.285  0.00  0.00    -0.276 OA
ATOM      6  N   UNL     1       4.084  -0.292  23.296  0.00  0.00    -0.301 N 
ATOM     21  C   UNL     1       2.958   0.147  22.624  0.00  0.00    +0.216 C 
ATOM     22  C   UNL     1       4.272  -1.687  23.669  0.00  0.00    +0.108 C 
ATOM     23  C   UNL     1       5.220   0.520  23.722  0.00  0.00    +0.108 C 
ATOM     24  C   UNL     1       5.735  -1.779  24.072  0.00  0.00    +0.020 C 
ATOM     25  C   UNL     1       6.018  -0.394  24.640  0.00  0.00    +0.020 C 
ENDBRANCH  19  21
ENDBRANCH  16  19
ENDBRANCH  13  16
BRANCH   3  17
ATOM     17  C   UNL     1      -3.971   2.569  26.418  0.00  0.00    +0.159 C 
BRANCH  17  20
ATOM      7  N   UNL     1      -4.523   0.835  24.682  0.00  0.00    -0.330 N 
ATOM      8  N   UNL     1      -3.334   0.138  26.427  0.00  0.00    -0.231 NA
ATOM     20  C   UNL     1      -3.926   1.169  25.867  0.00  0.00    +0.125 A 
ATOM     26  C   UNL     1      -4.302  -0.501  24.465  0.00  0.00    +0.069 A 
ATOM     27  C   UNL     1      -3.558  -0.912  25.568  0.00  0.00    +0.089 A 
ATOM     28  C   UNL     1      -5.257   1.726  23.813  0.00  0.00    +0.150 C 
ATOM     29  C   UNL     1      -4.678  -1.358  23.431  0.00  0.00    +0.028 A 
ATOM     30  C   UNL     1      -3.156  -2.256  25.659  0.00  0.00    +0.030 A 
ATOM     31  C   UNL     1      -4.269  -2.691  23.538  0.00  0.00    +0.002 A 
ATOM     32  C   UNL     1      -3.522  -3.135  24.632  0.00  0.00    +0.002 A 
ENDBRANCH  17  20
ENDBRANCH   3  17
TORSDOF 5
ENDMDL
