MODEL 1
REMARK VINA RESULT:      -2.2      0.000      0.000
REMARK  Name = 28963143
REMARK  13 active torsions:
REMARK  status: ('A' for Active; 'I' for Inactive)
REMARK    1  A    between atoms: O_1  and  C_10
REMARK    2  A    between atoms: N_4  and  C_14
REMARK    3  A    between atoms: N_5  and  C_23
REMARK    4  A    between atoms: N_5  and  C_24
REMARK    5  A    between atoms: N_6  and  C_25
REMARK    6  A    between atoms: C_7  and  C_17
REMARK    7  A    between atoms: C_9  and  C_19
REMARK    8  A    between atoms: C_12  and  C_18
REMARK    9  A    between atoms: C_18  and  C_20
REMARK   10  A    between atoms: C_18  and  C_21
REMARK   11  A    between atoms: C_23  and  C_26
REMARK   12  A    between atoms: C_24  and  C_27
REMARK   13  A    between atoms: C_25  and  C_28
REMARK                            x       y       z     vdW  Elec       q    Type
REMARK                         _______ _______ _______ _____ _____    ______ ____
ROOT
ATOM      7  C   UNL     1      -2.479  -1.136  24.938  0.00  0.00    -0.027 C 
ATOM      8  C   UNL     1      -1.899   0.136  24.235  0.00  0.00    +0.028 C 
ATOM      9  C   UNL     1      -0.333   0.176  24.357  0.00  0.00    +0.012 C 
ATOM     10  C   UNL     1      -2.639   1.424  24.700  0.00  0.00    +0.122 C 
ATOM     11  C   UNL     1      -4.007  -1.204  24.703  0.00  0.00    +0.007 C 
ATOM     12  C   UNL     1      -4.175   1.310  24.558  0.00  0.00    +0.029 C 
ATOM     13  C   UNL     1      -1.849  -2.396  24.302  0.00  0.00    +0.009 C 
ATOM     14  C   UNL     1       0.286  -1.129  23.781  0.00  0.00    +0.078 C 
ATOM     15  C   UNL     1      -4.739   0.039  25.192  0.00  0.00    +0.007 C 
ATOM     16  C   UNL     1      -0.328  -2.401  24.366  0.00  0.00    +0.023 C 
ATOM     17  C   UNL     1      -2.210  -1.146  26.464  0.00  0.00    +0.011 C 
ATOM     19  C   UNL     1       0.308   1.389  23.661  0.00  0.00    +0.010 C 
ENDROOT
BRANCH  14   4
ATOM      3  O   UNL     1       2.313   0.092  22.131  0.00  0.00    -0.253 OA
ATOM      4  N   UNL     1       1.719  -1.176  23.982  0.00  0.00    -0.296 N 
ATOM      6  N   UNL     1       3.935  -0.760  23.554  0.00  0.00    -0.300 N 
ATOM     22  C   UNL     1       2.625  -0.556  23.129  0.00  0.00    +0.300 C 
ATOM     29  H   UNL     1       2.083  -1.754  24.733  0.00  0.00    +0.151 HD
ATOM     31  H   UNL     1       4.097  -1.297  24.400  0.00  0.00    +0.150 HD
BRANCH   6  25
ATOM     25  C   UNL     1       5.078  -0.224  22.853  0.00  0.00    +0.102 C 
ATOM     28  C   UNL     1       5.998   0.533  23.788  0.00  0.00    +0.024 C 
ENDBRANCH   6  25
ENDBRANCH  14   4
BRANCH  10   1
ATOM      1  O   UNL     1      -2.234   2.525  23.885  0.00  0.00    -0.391 OA
ATOM     30  H   UNL     1      -2.814   3.280  24.088  0.00  0.00    +0.210 HD
ENDBRANCH  10   1
BRANCH  12  18
ATOM     18  C   UNL     1      -4.891   2.535  25.141  0.00  0.00    +0.078 C 
ATOM     20  C   UNL     1      -6.357   2.523  24.704  0.00  0.00    +0.017 C 
BRANCH  18  21
ATOM      2  O   UNL     1      -4.433   4.270  23.556  0.00  0.00    -0.275 OA
ATOM      5  N   UNL     1      -3.275   4.409  25.554  0.00  0.00    -0.302 N 
ATOM     21  C   UNL     1      -4.190   3.815  24.678  0.00  0.00    +0.219 C 
BRANCH   5  23
ATOM     23  C   UNL     1      -2.574   5.619  25.134  0.00  0.00    +0.104 C 
ATOM     26  C   UNL     1      -1.102   5.351  24.894  0.00  0.00    +0.024 C 
ENDBRANCH   5  23
BRANCH   5  24
ATOM     24  C   UNL     1      -2.958   3.958  26.907  0.00  0.00    +0.104 C 
ATOM     27  C   UNL     1      -1.637   3.219  26.951  0.00  0.00    +0.024 C 
ENDBRANCH   5  24
ENDBRANCH  18  21
ENDBRANCH  12  18
TORSDOF 7
ENDMDL
MODEL 2
REMARK VINA RESULT:       0.6      1.409      1.850
REMARK  Name = 28963143
REMARK  13 active torsions:
REMARK  status: ('A' for Active; 'I' for Inactive)
REMARK    1  A    between atoms: O_1  and  C_10
REMARK    2  A    between atoms: N_4  and  C_14
REMARK    3  A    between atoms: N_5  and  C_23
REMARK    4  A    between atoms: N_5  and  C_24
REMARK    5  A    between atoms: N_6  and  C_25
REMARK    6  A    between atoms: C_7  and  C_17
REMARK    7  A    between atoms: C_9  and  C_19
REMARK    8  A    between atoms: C_12  and  C_18
REMARK    9  A    between atoms: C_18  and  C_20
REMARK   10  A    between atoms: C_18  and  C_21
REMARK   11  A    between atoms: C_23  and  C_26
REMARK   12  A    between atoms: C_24  and  C_27
REMARK   13  A    between atoms: C_25  and  C_28
REMARK                            x       y       z     vdW  Elec       q    Type
REMARK                         _______ _______ _______ _____ _____    ______ ____
ROOT
ATOM      7  C   UNL     1      -1.545  -0.900  24.755  0.00  0.00    -0.027 C 
ATOM      8  C   UNL     1      -1.644   0.554  24.186  0.00  0.00    +0.028 C 
ATOM      9  C   UNL     1      -0.220   1.207  24.068  0.00  0.00    +0.012 C 
ATOM     10  C   UNL     1      -2.702   1.392  24.961  0.00  0.00    +0.122 C 
ATOM     11  C   UNL     1      -2.948  -1.552  24.752  0.00  0.00    +0.007 C 
ATOM     12  C   UNL     1      -4.076   0.687  25.043  0.00  0.00    +0.029 C 
ATOM     13  C   UNL     1      -0.633  -1.741  23.834  0.00  0.00    +0.009 C 
ATOM     14  C   UNL     1       0.711   0.314  23.201  0.00  0.00    +0.078 C 
ATOM     15  C   UNL     1      -3.977  -0.754  25.543  0.00  0.00    +0.007 C 
ATOM     16  C   UNL     1       0.756  -1.143  23.661  0.00  0.00    +0.023 C 
ATOM     17  C   UNL     1      -0.984  -0.935  26.200  0.00  0.00    +0.011 C 
ATOM     19  C   UNL     1      -0.241   2.631  23.487  0.00  0.00    +0.010 C 
ENDROOT
BRANCH  14   4
ATOM      3  O   UNL     1       3.154  -1.221  23.257  0.00  0.00    -0.253 OA
ATOM      4  N   UNL     1       2.065   0.827  23.167  0.00  0.00    -0.296 N 
ATOM      6  N   UNL     1       4.360   0.759  23.156  0.00  0.00    -0.300 N 
ATOM     22  C   UNL     1       3.188   0.007  23.200  0.00  0.00    +0.300 C 
ATOM     29  H   UNL     1       2.202   1.832  23.202  0.00  0.00    +0.151 HD
ATOM     31  H   UNL     1       4.290   1.770  23.095  0.00  0.00    +0.150 HD
BRANCH   6  25
ATOM     25  C   UNL     1       5.673   0.161  23.175  0.00  0.00    +0.102 C 
ATOM     28  C   UNL     1       5.888  -0.670  24.423  0.00  0.00    +0.024 C 
ENDBRANCH   6  25
ENDBRANCH  14   4
BRANCH  10   1
ATOM      1  O   UNL     1      -2.919   2.631  24.283  0.00  0.00    -0.391 OA
ATOM     30  H   UNL     1      -2.779   2.483  23.332  0.00  0.00    +0.210 HD
ENDBRANCH  10   1
BRANCH  12  18
ATOM     18  C   UNL     1      -5.064   1.466  25.920  0.00  0.00    +0.078 C 
ATOM     20  C   UNL     1      -6.267   0.579  26.243  0.00  0.00    +0.017 C 
BRANCH  18  21
ATOM      2  O   UNL     1      -6.347   2.676  24.300  0.00  0.00    -0.275 OA
ATOM      5  N   UNL     1      -4.898   3.947  25.581  0.00  0.00    -0.302 N 
ATOM     21  C   UNL     1      -5.501   2.743  25.198  0.00  0.00    +0.219 C 
BRANCH   5  23
ATOM     23  C   UNL     1      -5.278   5.180  24.898  0.00  0.00    +0.104 C 
ATOM     26  C   UNL     1      -6.607   5.705  25.400  0.00  0.00    +0.024 C 
ENDBRANCH   5  23
BRANCH   5  24
ATOM     24  C   UNL     1      -3.921   4.119  26.653  0.00  0.00    +0.104 C 
ATOM     27  C   UNL     1      -2.633   4.727  26.139  0.00  0.00    +0.024 C 
ENDBRANCH   5  24
ENDBRANCH  18  21
ENDBRANCH  12  18
TORSDOF 7
ENDMDL
MODEL 3
REMARK VINA RESULT:       0.8      1.223      1.750
REMARK  Name = 28963143
REMARK  13 active torsions:
REMARK  status: ('A' for Active; 'I' for Inactive)
REMARK    1  A    between atoms: O_1  and  C_10
REMARK    2  A    between atoms: N_4  and  C_14
REMARK    3  A    between atoms: N_5  and  C_23
REMARK    4  A    between atoms: N_5  and  C_24
REMARK    5  A    between atoms: N_6  and  C_25
REMARK    6  A    between atoms: C_7  and  C_17
REMARK    7  A    between atoms: C_9  and  C_19
REMARK    8  A    between atoms: C_12  and  C_18
REMARK    9  A    between atoms: C_18  and  C_20
REMARK   10  A    between atoms: C_18  and  C_21
REMARK   11  A    between atoms: C_23  and  C_26
REMARK   12  A    between atoms: C_24  and  C_27
REMARK   13  A    between atoms: C_25  and  C_28
REMARK                            x       y       z     vdW  Elec       q    Type
REMARK                         _______ _______ _______ _____ _____    ______ ____
ROOT
ATOM      7  C   UNL     1      -2.240  -0.950  24.662  0.00  0.00    -0.027 C 
ATOM      8  C   UNL     1      -1.448  -0.028  23.675  0.00  0.00    +0.028 C 
ATOM      9  C   UNL     1       0.089  -0.055  23.998  0.00  0.00    +0.012 C 
ATOM     10  C   UNL     1      -2.089   1.388  23.590  0.00  0.00    +0.122 C 
ATOM     11  C   UNL     1      -3.730  -0.989  24.247  0.00  0.00    +0.007 C 
ATOM     12  C   UNL     1      -3.602   1.338  23.277  0.00  0.00    +0.029 C 
ATOM     13  C   UNL     1      -1.685  -2.389  24.561  0.00  0.00    +0.009 C 
ATOM     14  C   UNL     1       0.620  -1.516  23.968  0.00  0.00    +0.078 C 
ATOM     15  C   UNL     1      -4.371   0.392  24.200  0.00  0.00    +0.007 C 
ATOM     16  C   UNL     1      -0.192  -2.474  24.839  0.00  0.00    +0.023 C 
ATOM     17  C   UNL     1      -2.145  -0.467  26.131  0.00  0.00    +0.011 C 
ATOM     19  C   UNL     1       0.933   0.810  23.047  0.00  0.00    +0.010 C 
ENDROOT
BRANCH  14   4
ATOM      3  O   UNL     1       2.919  -0.625  22.469  0.00  0.00    -0.253 OA
ATOM      4  N   UNL     1       2.008  -1.589  24.374  0.00  0.00    -0.296 N 
ATOM      6  N   UNL     1       4.283  -1.326  24.211  0.00  0.00    -0.300 N 
ATOM     22  C   UNL     1       3.056  -1.134  23.581  0.00  0.00    +0.300 C 
ATOM     29  H   UNL     1       2.233  -2.067  25.241  0.00  0.00    +0.151 HD
ATOM     31  H   UNL     1       4.297  -1.742  25.137  0.00  0.00    +0.150 HD
BRANCH   6  25
ATOM     25  C   UNL     1       5.539  -0.942  23.612  0.00  0.00    +0.102 C 
ATOM     28  C   UNL     1       5.759   0.555  23.694  0.00  0.00    +0.024 C 
ENDBRANCH   6  25
ENDBRANCH  14   4
BRANCH  10   1
ATOM      1  O   UNL     1      -1.477   2.124  22.530  0.00  0.00    -0.391 OA
ATOM     30  H   UNL     1      -2.056   2.875  22.310  0.00  0.00    +0.210 HD
ENDBRANCH  10   1
BRANCH  12  18
ATOM     18  C   UNL     1      -4.240   2.732  23.326  0.00  0.00    +0.078 C 
ATOM     20  C   UNL     1      -4.000   3.449  21.997  0.00  0.00    +0.017 C 
BRANCH  18  21
ATOM      2  O   UNL     1      -2.485   3.927  24.433  0.00  0.00    -0.275 OA
ATOM      5  N   UNL     1      -4.473   3.756  25.605  0.00  0.00    -0.302 N 
ATOM     21  C   UNL     1      -3.653   3.529  24.494  0.00  0.00    +0.219 C 
BRANCH   5  23
ATOM     23  C   UNL     1      -3.937   4.495  26.744  0.00  0.00    +0.104 C 
ATOM     26  C   UNL     1      -2.584   3.958  27.165  0.00  0.00    +0.024 C 
ENDBRANCH   5  23
BRANCH   5  24
ATOM     24  C   UNL     1      -5.870   3.353  25.742  0.00  0.00    +0.104 C 
ATOM     27  C   UNL     1      -5.998   2.024  26.456  0.00  0.00    +0.024 C 
ENDBRANCH   5  24
ENDBRANCH  18  21
ENDBRANCH  12  18
TORSDOF 7
ENDMDL
MODEL 4
REMARK VINA RESULT:       1.6      1.416      1.893
REMARK  Name = 28963143
REMARK  13 active torsions:
REMARK  status: ('A' for Active; 'I' for Inactive)
REMARK    1  A    between atoms: O_1  and  C_10
REMARK    2  A    between atoms: N_4  and  C_14
REMARK    3  A    between atoms: N_5  and  C_23
REMARK    4  A    between atoms: N_5  and  C_24
REMARK    5  A    between atoms: N_6  and  C_25
REMARK    6  A    between atoms: C_7  and  C_17
REMARK    7  A    between atoms: C_9  and  C_19
REMARK    8  A    between atoms: C_12  and  C_18
REMARK    9  A    between atoms: C_18  and  C_20
REMARK   10  A    between atoms: C_18  and  C_21
REMARK   11  A    between atoms: C_23  and  C_26
REMARK   12  A    between atoms: C_24  and  C_27
REMARK   13  A    between atoms: C_25  and  C_28
REMARK                            x       y       z     vdW  Elec       q    Type
REMARK                         _______ _______ _______ _____ _____    ______ ____
ROOT
ATOM      7  C   UNL     1      -2.056  -0.859  25.065  0.00  0.00    -0.027 C 
ATOM      8  C   UNL     1      -2.204   0.362  24.097  0.00  0.00    +0.028 C 
ATOM      9  C   UNL     1      -0.837   1.122  23.943  0.00  0.00    +0.012 C 
ATOM     10  C   UNL     1      -3.421   1.248  24.490  0.00  0.00    +0.122 C 
ATOM     11  C   UNL     1      -3.385  -1.649  25.105  0.00  0.00    +0.007 C 
ATOM     12  C   UNL     1      -4.728   0.434  24.630  0.00  0.00    +0.029 C 
ATOM     13  C   UNL     1      -0.962  -1.805  24.519  0.00  0.00    +0.009 C 
ATOM     14  C   UNL     1       0.273   0.143  23.466  0.00  0.00    +0.078 C 
ATOM     15  C   UNL     1      -4.573  -0.793  25.527  0.00  0.00    +0.007 C 
ATOM     16  C   UNL     1       0.381  -1.117  24.324  0.00  0.00    +0.023 C 
ATOM     17  C   UNL     1      -1.687  -0.431  26.508  0.00  0.00    +0.011 C 
ATOM     19  C   UNL     1      -0.904   2.320  22.981  0.00  0.00    +0.010 C 
ENDROOT
BRANCH  14   4
ATOM      3  O   UNL     1       2.815  -1.113  22.934  0.00  0.00    -0.253 OA
ATOM      4  N   UNL     1       1.570   0.784  23.424  0.00  0.00    -0.296 N 
ATOM      6  N   UNL     1       3.847   0.951  23.181  0.00  0.00    -0.300 N 
ATOM     22  C   UNL     1       2.749   0.095  23.160  0.00  0.00    +0.300 C 
ATOM     29  H   UNL     1       1.632   1.765  23.677  0.00  0.00    +0.151 HD
ATOM     31  H   UNL     1       3.693   1.939  23.363  0.00  0.00    +0.150 HD
BRANCH   6  25
ATOM     25  C   UNL     1       5.196   0.499  22.937  0.00  0.00    +0.102 C 
ATOM     28  C   UNL     1       5.697  -0.385  24.060  0.00  0.00    +0.024 C 
ENDBRANCH   6  25
ENDBRANCH  14   4
BRANCH  10   1
ATOM      1  O   UNL     1      -3.653   2.219  23.468  0.00  0.00    -0.391 OA
ATOM     30  H   UNL     1      -3.789   3.082  23.896  0.00  0.00    +0.210 HD
ENDBRANCH  10   1
BRANCH  12  18
ATOM     18  C   UNL     1      -5.886   1.300  25.143  0.00  0.00    +0.078 C 
ATOM     20  C   UNL     1      -6.644   1.892  23.955  0.00  0.00    +0.017 C 
BRANCH  18  21
ATOM      2  O   UNL     1      -5.438   2.284  27.280  0.00  0.00    -0.275 OA
ATOM      5  N   UNL     1      -4.769   3.527  25.446  0.00  0.00    -0.302 N 
ATOM     21  C   UNL     1      -5.342   2.404  26.054  0.00  0.00    +0.219 C 
BRANCH   5  23
ATOM     23  C   UNL     1      -4.260   4.607  26.285  0.00  0.00    +0.104 C 
ATOM     26  C   UNL     1      -2.768   4.477  26.510  0.00  0.00    +0.024 C 
ENDBRANCH   5  23
BRANCH   5  24
ATOM     24  C   UNL     1      -4.585   3.731  24.011  0.00  0.00    +0.104 C 
ATOM     27  C   UNL     1      -4.016   5.102  23.712  0.00  0.00    +0.024 C 
ENDBRANCH   5  24
ENDBRANCH  18  21
ENDBRANCH  12  18
TORSDOF 7
ENDMDL
