MODEL 1
REMARK VINA RESULT:      -2.6      0.000      0.000
REMARK  Name = 25338297
REMARK  8 active torsions:
REMARK  status: ('A' for Active; 'I' for Inactive)
REMARK    1  A    between atoms: S_1  and  N_7
REMARK    2  A    between atoms: S_1  and  C_18
REMARK    3  A    between atoms: O_5  and  C_25
REMARK    4  A    between atoms: O_5  and  C_29
REMARK    5  A    between atoms: N_6  and  C_17
REMARK    6  A    between atoms: N_7  and  C_12
REMARK    7  A    between atoms: C_13  and  C_16
REMARK    8  A    between atoms: C_19  and  C_22
REMARK                            x       y       z     vdW  Elec       q    Type
REMARK                         _______ _______ _______ _____ _____    ______ ____
ROOT
ATOM      6  N   UNL     1      -2.022   4.610  24.969  0.00  0.00    -0.293 NA
ATOM     12  C   UNL     1      -3.980   4.047  26.105  0.00  0.00    +0.092 C 
ATOM     13  C   UNL     1      -1.592   3.580  25.932  0.00  0.00    +0.147 C 
ATOM     14  C   UNL     1      -2.903   3.063  26.556  0.00  0.00    +0.050 C 
ATOM     15  C   UNL     1      -3.210   5.238  25.558  0.00  0.00    +0.105 C 
ATOM     17  C   UNL     1      -0.983   5.588  24.670  0.00  0.00    +0.105 C 
ENDROOT
BRANCH  13  16
ATOM      2  O   UNL     1      -1.001   1.214  25.765  0.00  0.00    -0.336 OA
ATOM      8  N   UNL     1       0.150   2.545  24.379  0.00  0.00    -0.189 NA
ATOM      9  N   UNL     1      -0.135   0.376  25.051  0.00  0.00    -0.054 NA
ATOM     16  C   UNL     1      -0.769   2.473  25.308  0.00  0.00    +0.245 A 
ATOM     19  C   UNL     1       0.510   1.235  24.255  0.00  0.00    +0.222 A 
BRANCH  19  22
ATOM     10  N   UNL     1       2.759   1.309  23.511  0.00  0.00    -0.249 NA
ATOM     11  N   UNL     1       2.161  -0.452  21.411  0.00  0.00    -0.260 NA
ATOM     22  C   UNL     1       1.518   0.815  23.324  0.00  0.00    +0.129 A 
ATOM     26  C   UNL     1       1.225  -0.050  22.292  0.00  0.00    +0.142 A 
ATOM     27  C   UNL     1       3.695   0.906  22.628  0.00  0.00    +0.131 A 
ATOM     28  C   UNL     1       3.402   0.041  21.597  0.00  0.00    +0.130 A 
ENDBRANCH  19  22
ENDBRANCH  13  16
BRANCH  12   7
ATOM      7  N   UNL     1      -4.803   3.436  25.029  0.00  0.00    -0.186 NA
ATOM     30  H   UNL     1      -4.956   3.993  24.179  0.00  0.00    +0.148 HD
BRANCH   7   1
ATOM      1  S   UNL     1      -5.772   2.087  25.371  0.00  0.00    +0.059 S 
ATOM      3  O   UNL     1      -6.868   2.025  24.424  0.00  0.00    -0.153 OA
ATOM      4  O   UNL     1      -6.036   2.052  26.797  0.00  0.00    -0.153 OA
BRANCH   1  18
ATOM     18  C   UNL     1      -4.672   0.748  25.018  0.00  0.00    +0.105 A 
ATOM     20  C   UNL     1      -4.048   0.669  23.772  0.00  0.00    +0.032 A 
ATOM     21  C   UNL     1      -4.431  -0.230  25.982  0.00  0.00    +0.032 A 
ATOM     23  C   UNL     1      -3.182  -0.388  23.492  0.00  0.00    +0.047 A 
ATOM     24  C   UNL     1      -3.565  -1.287  25.702  0.00  0.00    +0.047 A 
ATOM     25  C   UNL     1      -2.941  -1.367  24.457  0.00  0.00    +0.120 A 
BRANCH  25   5
ATOM      5  O   UNL     1      -2.096  -2.398  24.184  0.00  0.00    -0.495 OA
ATOM     29  C   UNL     1      -0.915  -2.496  24.977  0.00  0.00    +0.277 C 
ENDBRANCH  25   5
ENDBRANCH   1  18
ENDBRANCH   7   1
ENDBRANCH  12   7
TORSDOF 6
ENDMDL
MODEL 2
REMARK VINA RESULT:      -1.0      1.817      4.429
REMARK  Name = 25338297
REMARK  8 active torsions:
REMARK  status: ('A' for Active; 'I' for Inactive)
REMARK    1  A    between atoms: S_1  and  N_7
REMARK    2  A    between atoms: S_1  and  C_18
REMARK    3  A    between atoms: O_5  and  C_25
REMARK    4  A    between atoms: O_5  and  C_29
REMARK    5  A    between atoms: N_6  and  C_17
REMARK    6  A    between atoms: N_7  and  C_12
REMARK    7  A    between atoms: C_13  and  C_16
REMARK    8  A    between atoms: C_19  and  C_22
REMARK                            x       y       z     vdW  Elec       q    Type
REMARK                         _______ _______ _______ _____ _____    ______ ____
ROOT
ATOM      6  N   UNL     1      -2.780  -1.855  24.663  0.00  0.00    -0.293 NA
ATOM     12  C   UNL     1      -4.668  -0.523  24.341  0.00  0.00    +0.092 C 
ATOM     13  C   UNL     1      -2.427  -1.009  23.508  0.00  0.00    +0.147 C 
ATOM     14  C   UNL     1      -3.584   0.003  23.403  0.00  0.00    +0.050 C 
ATOM     15  C   UNL     1      -4.244  -1.948  24.658  0.00  0.00    +0.105 C 
ATOM     17  C   UNL     1      -2.153  -3.170  24.626  0.00  0.00    +0.105 C 
ENDROOT
BRANCH  13  16
ATOM      2  O   UNL     1      -1.061   0.877  24.251  0.00  0.00    -0.336 OA
ATOM      8  N   UNL     1       0.100  -0.753  23.245  0.00  0.00    -0.189 NA
ATOM      9  N   UNL     1       0.276   1.293  24.253  0.00  0.00    -0.054 NA
ATOM     16  C   UNL     1      -1.077  -0.336  23.639  0.00  0.00    +0.245 A 
ATOM     19  C   UNL     1       0.898   0.279  23.643  0.00  0.00    +0.222 A 
BRANCH  19  22
ATOM     10  N   UNL     1       2.868   1.416  22.978  0.00  0.00    -0.249 NA
ATOM     11  N   UNL     1       4.397  -0.891  23.431  0.00  0.00    -0.260 NA
ATOM     22  C   UNL     1       2.315   0.267  23.417  0.00  0.00    +0.129 A 
ATOM     26  C   UNL     1       3.066  -0.866  23.639  0.00  0.00    +0.142 A 
ATOM     27  C   UNL     1       4.199   1.390  22.770  0.00  0.00    +0.131 A 
ATOM     28  C   UNL     1       4.951   0.257  22.992  0.00  0.00    +0.130 A 
ENDBRANCH  19  22
ENDBRANCH  13  16
BRANCH  12   7
ATOM      7  N   UNL     1      -4.696   0.287  25.585  0.00  0.00    -0.186 NA
ATOM     30  H   UNL     1      -4.422  -0.179  26.459  0.00  0.00    +0.148 HD
BRANCH   7   1
ATOM      1  S   UNL     1      -5.538   1.760  25.614  0.00  0.00    +0.059 S 
ATOM      3  O   UNL     1      -6.126   1.956  26.925  0.00  0.00    -0.153 OA
ATOM      4  O   UNL     1      -6.362   1.848  24.423  0.00  0.00    -0.153 OA
BRANCH   1  18
ATOM     18  C   UNL     1      -4.229   2.932  25.423  0.00  0.00    +0.105 A 
ATOM     20  C   UNL     1      -3.679   3.164  24.162  0.00  0.00    +0.032 A 
ATOM     21  C   UNL     1      -3.744   3.623  26.533  0.00  0.00    +0.032 A 
ATOM     23  C   UNL     1      -2.644   4.087  24.012  0.00  0.00    +0.047 A 
ATOM     24  C   UNL     1      -2.709   4.545  26.383  0.00  0.00    +0.047 A 
ATOM     25  C   UNL     1      -2.158   4.777  25.122  0.00  0.00    +0.120 A 
BRANCH  25   5
ATOM      5  O   UNL     1      -1.149   5.678  24.975  0.00  0.00    -0.495 OA
ATOM     29  C   UNL     1      -0.014   5.263  24.217  0.00  0.00    +0.277 C 
ENDBRANCH  25   5
ENDBRANCH   1  18
ENDBRANCH   7   1
ENDBRANCH  12   7
TORSDOF 6
ENDMDL
MODEL 3
REMARK VINA RESULT:       0.2      2.542      5.238
REMARK  Name = 25338297
REMARK  8 active torsions:
REMARK  status: ('A' for Active; 'I' for Inactive)
REMARK    1  A    between atoms: S_1  and  N_7
REMARK    2  A    between atoms: S_1  and  C_18
REMARK    3  A    between atoms: O_5  and  C_25
REMARK    4  A    between atoms: O_5  and  C_29
REMARK    5  A    between atoms: N_6  and  C_17
REMARK    6  A    between atoms: N_7  and  C_12
REMARK    7  A    between atoms: C_13  and  C_16
REMARK    8  A    between atoms: C_19  and  C_22
REMARK                            x       y       z     vdW  Elec       q    Type
REMARK                         _______ _______ _______ _____ _____    ______ ____
ROOT
ATOM      6  N   UNL     1      -2.391  -1.038  24.971  0.00  0.00    -0.293 NA
ATOM     12  C   UNL     1      -4.382  -0.096  24.204  0.00  0.00    +0.092 C 
ATOM     13  C   UNL     1      -1.956   0.160  24.229  0.00  0.00    +0.147 C 
ATOM     14  C   UNL     1      -3.266   0.893  23.880  0.00  0.00    +0.050 C 
ATOM     15  C   UNL     1      -3.675  -1.430  24.381  0.00  0.00    +0.105 C 
ATOM     17  C   UNL     1      -1.420  -2.124  24.929  0.00  0.00    +0.105 C 
ENDROOT
BRANCH  13  16
ATOM      2  O   UNL     1      -0.358   2.009  24.296  0.00  0.00    -0.336 OA
ATOM      8  N   UNL     1      -0.662   0.990  26.267  0.00  0.00    -0.189 NA
ATOM      9  N   UNL     1       0.471   2.673  25.208  0.00  0.00    -0.054 NA
ATOM     16  C   UNL     1      -0.990   1.033  25.001  0.00  0.00    +0.245 A 
ATOM     19  C   UNL     1       0.237   2.014  26.348  0.00  0.00    +0.222 A 
BRANCH  19  22
ATOM     10  N   UNL     1       2.140   2.834  27.496  0.00  0.00    -0.249 NA
ATOM     11  N   UNL     1       0.838   2.514  29.960  0.00  0.00    -0.260 NA
ATOM     22  C   UNL     1       0.882   2.355  27.582  0.00  0.00    +0.129 A 
ATOM     26  C   UNL     1       0.243   2.198  28.793  0.00  0.00    +0.142 A 
ATOM     27  C   UNL     1       2.735   3.150  28.664  0.00  0.00    +0.131 A 
ATOM     28  C   UNL     1       2.095   2.993  29.874  0.00  0.00    +0.130 A 
ENDBRANCH  19  22
ENDBRANCH  13  16
BRANCH  12   7
ATOM      7  N   UNL     1      -5.053   0.295  25.470  0.00  0.00    -0.186 NA
ATOM     30  H   UNL     1      -5.205  -0.441  26.171  0.00  0.00    +0.148 HD
BRANCH   7   1
ATOM      1  S   UNL     1      -5.890   1.768  25.561  0.00  0.00    +0.059 S 
ATOM      3  O   UNL     1      -6.484   1.907  26.876  0.00  0.00    -0.153 OA
ATOM      4  O   UNL     1      -6.708   1.913  24.371  0.00  0.00    -0.153 OA
BRANCH   1  18
ATOM     18  C   UNL     1      -4.576   2.943  25.430  0.00  0.00    +0.105 A 
ATOM     20  C   UNL     1      -3.776   3.222  26.539  0.00  0.00    +0.032 A 
ATOM     21  C   UNL     1      -4.341   3.595  24.219  0.00  0.00    +0.032 A 
ATOM     23  C   UNL     1      -2.742   4.152  26.436  0.00  0.00    +0.047 A 
ATOM     24  C   UNL     1      -3.307   4.525  24.117  0.00  0.00    +0.047 A 
ATOM     25  C   UNL     1      -2.507   4.803  25.226  0.00  0.00    +0.120 A 
BRANCH  25   5
ATOM      5  O   UNL     1      -1.497   5.710  25.126  0.00  0.00    -0.495 OA
ATOM     29  C   UNL     1      -0.431   5.398  24.230  0.00  0.00    +0.277 C 
ENDBRANCH  25   5
ENDBRANCH   1  18
ENDBRANCH   7   1
ENDBRANCH  12   7
TORSDOF 6
ENDMDL
MODEL 4
REMARK VINA RESULT:       0.3      2.461      3.641
REMARK  Name = 25338297
REMARK  8 active torsions:
REMARK  status: ('A' for Active; 'I' for Inactive)
REMARK    1  A    between atoms: S_1  and  N_7
REMARK    2  A    between atoms: S_1  and  C_18
REMARK    3  A    between atoms: O_5  and  C_25
REMARK    4  A    between atoms: O_5  and  C_29
REMARK    5  A    between atoms: N_6  and  C_17
REMARK    6  A    between atoms: N_7  and  C_12
REMARK    7  A    between atoms: C_13  and  C_16
REMARK    8  A    between atoms: C_19  and  C_22
REMARK                            x       y       z     vdW  Elec       q    Type
REMARK                         _______ _______ _______ _____ _____    ______ ____
ROOT
ATOM      6  N   UNL     1      -3.159   2.477  23.779  0.00  0.00    -0.293 NA
ATOM     12  C   UNL     1      -4.725   3.838  24.844  0.00  0.00    +0.092 C 
ATOM     13  C   UNL     1      -2.355   3.587  24.324  0.00  0.00    +0.147 C 
ATOM     14  C   UNL     1      -3.345   4.391  25.190  0.00  0.00    +0.050 C 
ATOM     15  C   UNL     1      -4.508   3.019  23.583  0.00  0.00    +0.105 C 
ATOM     17  C   UNL     1      -2.613   1.922  22.547  0.00  0.00    +0.105 C 
ENDROOT
BRANCH  13  16
ATOM      2  O   UNL     1      -0.218   2.403  24.418  0.00  0.00    -0.336 OA
ATOM      8  N   UNL     1      -0.837   3.330  26.361  0.00  0.00    -0.189 NA
ATOM      9  N   UNL     1       0.796   2.099  25.335  0.00  0.00    -0.054 NA
ATOM     16  C   UNL     1      -1.140   3.129  25.103  0.00  0.00    +0.245 A 
ATOM     19  C   UNL     1       0.358   2.679  26.457  0.00  0.00    +0.222 A 
BRANCH  19  22
ATOM     10  N   UNL     1       0.438   2.145  28.764  0.00  0.00    -0.249 NA
ATOM     11  N   UNL     1       3.101   3.012  28.911  0.00  0.00    -0.260 NA
ATOM     22  C   UNL     1       1.092   2.628  27.688  0.00  0.00    +0.129 A 
ATOM     26  C   UNL     1       2.400   3.054  27.761  0.00  0.00    +0.142 A 
ATOM     27  C   UNL     1       1.139   2.104  29.914  0.00  0.00    +0.131 A 
ATOM     28  C   UNL     1       2.448   2.530  29.987  0.00  0.00    +0.130 A 
ENDBRANCH  19  22
ENDBRANCH  13  16
BRANCH  12   7
ATOM      7  N   UNL     1      -5.208   2.962  25.942  0.00  0.00    -0.186 NA
ATOM     30  H   UNL     1      -4.775   3.081  26.867  0.00  0.00    +0.148 HD
BRANCH   7   1
ATOM      1  S   UNL     1      -6.110   1.572  25.578  0.00  0.00    +0.059 S 
ATOM      3  O   UNL     1      -6.863   1.790  24.358  0.00  0.00    -0.153 OA
ATOM      4  O   UNL     1      -6.783   1.125  26.782  0.00  0.00    -0.153 OA
BRANCH   1  18
ATOM     18  C   UNL     1      -4.839   0.393  25.229  0.00  0.00    +0.105 A 
ATOM     20  C   UNL     1      -5.029  -0.563  24.232  0.00  0.00    +0.032 A 
ATOM     21  C   UNL     1      -3.648   0.417  25.955  0.00  0.00    +0.032 A 
ATOM     23  C   UNL     1      -4.028  -1.495  23.959  0.00  0.00    +0.047 A 
ATOM     24  C   UNL     1      -2.647  -0.515  25.682  0.00  0.00    +0.047 A 
ATOM     25  C   UNL     1      -2.837  -1.472  24.684  0.00  0.00    +0.120 A 
BRANCH  25   5
ATOM      5  O   UNL     1      -1.860  -2.381  24.418  0.00  0.00    -0.495 OA
ATOM     29  C   UNL     1      -0.546  -2.074  24.880  0.00  0.00    +0.277 C 
ENDBRANCH  25   5
ENDBRANCH   1  18
ENDBRANCH   7   1
ENDBRANCH  12   7
TORSDOF 6
ENDMDL
MODEL 5
REMARK VINA RESULT:       0.5      2.088      4.314
REMARK  Name = 25338297
REMARK  8 active torsions:
REMARK  status: ('A' for Active; 'I' for Inactive)
REMARK    1  A    between atoms: S_1  and  N_7
REMARK    2  A    between atoms: S_1  and  C_18
REMARK    3  A    between atoms: O_5  and  C_25
REMARK    4  A    between atoms: O_5  and  C_29
REMARK    5  A    between atoms: N_6  and  C_17
REMARK    6  A    between atoms: N_7  and  C_12
REMARK    7  A    between atoms: C_13  and  C_16
REMARK    8  A    between atoms: C_19  and  C_22
REMARK                            x       y       z     vdW  Elec       q    Type
REMARK                         _______ _______ _______ _____ _____    ______ ____
ROOT
ATOM      6  N   UNL     1      -2.571  -1.291  24.972  0.00  0.00    -0.293 NA
ATOM     12  C   UNL     1      -4.407  -0.088  24.183  0.00  0.00    +0.092 C 
ATOM     13  C   UNL     1      -2.200  -0.941  23.588  0.00  0.00    +0.147 C 
ATOM     14  C   UNL     1      -3.317   0.013  23.119  0.00  0.00    +0.050 C 
ATOM     15  C   UNL     1      -4.038  -1.315  24.999  0.00  0.00    +0.105 C 
ATOM     17  C   UNL     1      -1.999  -2.555  25.419  0.00  0.00    +0.105 C 
ENDROOT
BRANCH  13  16
ATOM      2  O   UNL     1      -0.773   1.015  23.251  0.00  0.00    -0.336 OA
ATOM      8  N   UNL     1       0.352  -0.901  23.538  0.00  0.00    -0.189 NA
ATOM      9  N   UNL     1       0.586   1.346  23.174  0.00  0.00    -0.054 NA
ATOM     16  C   UNL     1      -0.822  -0.326  23.467  0.00  0.00    +0.245 A 
ATOM     19  C   UNL     1       1.184   0.164  23.353  0.00  0.00    +0.222 A 
BRANCH  19  22
ATOM     10  N   UNL     1       3.333   1.094  22.989  0.00  0.00    -0.249 NA
ATOM     11  N   UNL     1       4.546  -1.330  23.711  0.00  0.00    -0.260 NA
ATOM     22  C   UNL     1       2.611   0.015  23.353  0.00  0.00    +0.129 A 
ATOM     26  C   UNL     1       3.207  -1.176  23.707  0.00  0.00    +0.142 A 
ATOM     27  C   UNL     1       4.672   0.940  22.993  0.00  0.00    +0.131 A 
ATOM     28  C   UNL     1       5.268  -0.251  23.348  0.00  0.00    +0.130 A 
ENDBRANCH  19  22
ENDBRANCH  13  16
BRANCH  12   7
ATOM      7  N   UNL     1      -4.384   1.122  25.045  0.00  0.00    -0.186 NA
ATOM     30  H   UNL     1      -4.954   1.103  25.900  0.00  0.00    +0.148 HD
BRANCH   7   1
ATOM      1  S   UNL     1      -3.793   2.587  24.428  0.00  0.00    +0.059 S 
ATOM      3  O   UNL     1      -4.624   3.680  24.894  0.00  0.00    -0.153 OA
ATOM      4  O   UNL     1      -3.530   2.423  23.011  0.00  0.00    -0.153 OA
BRANCH   1  18
ATOM     18  C   UNL     1      -2.224   2.715  25.232  0.00  0.00    +0.105 A 
ATOM     20  C   UNL     1      -1.427   3.843  25.031  0.00  0.00    +0.032 A 
ATOM     21  C   UNL     1      -1.781   1.688  26.065  0.00  0.00    +0.032 A 
ATOM     23  C   UNL     1      -0.188   3.942  25.663  0.00  0.00    +0.047 A 
ATOM     24  C   UNL     1      -0.542   1.788  26.697  0.00  0.00    +0.047 A 
ATOM     25  C   UNL     1       0.255   2.915  26.496  0.00  0.00    +0.120 A 
BRANCH  25   5
ATOM      5  O   UNL     1       1.464   3.013  27.113  0.00  0.00    -0.495 OA
ATOM     29  C   UNL     1       1.544   2.550  28.460  0.00  0.00    +0.277 C 
ENDBRANCH  25   5
ENDBRANCH   1  18
ENDBRANCH   7   1
ENDBRANCH  12   7
TORSDOF 6
ENDMDL
