MODEL 1
REMARK VINA RESULT:      -4.3      0.000      0.000
REMARK  Name = 40779858
REMARK  8 active torsions:
REMARK  status: ('A' for Active; 'I' for Inactive)
REMARK    1  A    between atoms: S_2  and  N_7
REMARK    2  A    between atoms: S_2  and  C_19
REMARK    3  A    between atoms: N_6  and  C_15
REMARK    4  A    between atoms: N_6  and  C_17
REMARK    5  A    between atoms: N_6  and  C_18
REMARK    6  A    between atoms: N_7  and  C_16
REMARK    7  A    between atoms: C_9  and  C_15
REMARK    8  A    between atoms: C_10  and  C_16
REMARK                            x       y       z     vdW  Elec       q    Type
REMARK                         _______ _______ _______ _____ _____    ______ ____
ROOT
ATOM      5  N   UNL     1      -0.919   3.395  24.117  0.00  0.00    -0.298 NA
ATOM      8  C   UNL     1      -0.235   1.410  25.653  0.00  0.00    -0.002 C 
ATOM      9  C   UNL     1       0.477   1.320  24.284  0.00  0.00    +0.023 C 
ATOM     10  C   UNL     1      -2.134   2.713  24.640  0.00  0.00    +0.072 C 
ATOM     11  C   UNL     1      -1.758   1.443  25.434  0.00  0.00    +0.024 C 
ATOM     12  C   UNL     1      -0.074   2.434  23.367  0.00  0.00    +0.090 C 
ATOM     13  C   UNL     1       0.165   2.762  26.277  0.00  0.00    +0.019 C 
ATOM     14  C   UNL     1      -0.138   3.891  25.275  0.00  0.00    +0.085 C 
ENDROOT
BRANCH   9  15
ATOM     15  C   UNL     1       0.358  -0.056  23.633  0.00  0.00    +0.109 C 
BRANCH  15   6
ATOM      6  N   UNL     1       1.394  -0.222  22.650  0.00  0.00    -0.333 N 
ATOM     17  C   UNL     1       1.011  -0.445  21.252  0.00  0.00    +0.129 C 
BRANCH   6  18
ATOM     18  C   UNL     1       2.754  -0.180  23.000  0.00  0.00    +0.029 A 
ATOM     20  C   UNL     1       3.353  -1.285  23.604  0.00  0.00    +0.023 A 
ATOM     21  C   UNL     1       3.504   0.967  22.743  0.00  0.00    +0.023 A 
ATOM     22  C   UNL     1       4.703  -1.243  23.951  0.00  0.00    +0.002 A 
ATOM     23  C   UNL     1       4.855   1.009  23.090  0.00  0.00    +0.002 A 
ATOM     26  C   UNL     1       5.454  -0.096  23.694  0.00  0.00    +0.000 A 
ENDBRANCH   6  18
ENDBRANCH  15   6
ENDBRANCH   9  15
BRANCH  10  16
ATOM     16  C   UNL     1      -3.156   2.416  23.541  0.00  0.00    +0.124 C 
BRANCH  16   7
ATOM      7  N   UNL     1      -4.452   2.891  23.945  0.00  0.00    -0.188 NA
ATOM     30  H   UNL     1      -4.752   3.828  23.653  0.00  0.00    +0.148 HD
BRANCH   7   2
ATOM      2  S   UNL     1      -5.424   1.997  25.048  0.00  0.00    +0.058 S 
ATOM      3  O   UNL     1      -6.765   1.894  24.507  0.00  0.00    -0.153 OA
ATOM      4  O   UNL     1      -5.217   2.481  26.399  0.00  0.00    -0.153 OA
BRANCH   2  19
ATOM      1 CL   UNL     1      -2.762  -3.679  24.705  0.00  0.00    -0.084 Cl
ATOM     19  C   UNL     1      -4.674   0.398  24.952  0.00  0.00    +0.105 A 
ATOM     24  C   UNL     1      -4.670  -0.298  23.742  0.00  0.00    +0.030 A 
ATOM     25  C   UNL     1      -4.087  -0.166  26.084  0.00  0.00    +0.030 A 
ATOM     27  C   UNL     1      -4.079  -1.559  23.667  0.00  0.00    +0.022 A 
ATOM     28  C   UNL     1      -3.495  -1.427  26.007  0.00  0.00    +0.022 A 
ATOM     29  C   UNL     1      -3.491  -2.123  24.799  0.00  0.00    +0.041 A 
ENDBRANCH   2  19
ENDBRANCH   7   2
ENDBRANCH  16   7
ENDBRANCH  10  16
TORSDOF 7
ENDMDL
MODEL 2
REMARK VINA RESULT:      -4.3      2.379      3.644
REMARK  Name = 40779858
REMARK  8 active torsions:
REMARK  status: ('A' for Active; 'I' for Inactive)
REMARK    1  A    between atoms: S_2  and  N_7
REMARK    2  A    between atoms: S_2  and  C_19
REMARK    3  A    between atoms: N_6  and  C_15
REMARK    4  A    between atoms: N_6  and  C_17
REMARK    5  A    between atoms: N_6  and  C_18
REMARK    6  A    between atoms: N_7  and  C_16
REMARK    7  A    between atoms: C_9  and  C_15
REMARK    8  A    between atoms: C_10  and  C_16
REMARK                            x       y       z     vdW  Elec       q    Type
REMARK                         _______ _______ _______ _____ _____    ______ ____
ROOT
ATOM      5  N   UNL     1      -2.026  -0.024  25.797  0.00  0.00    -0.298 NA
ATOM      8  C   UNL     1      -0.347  -1.360  24.326  0.00  0.00    -0.002 C 
ATOM      9  C   UNL     1       0.087   0.118  24.456  0.00  0.00    +0.023 C 
ATOM     10  C   UNL     1      -2.755  -0.744  24.717  0.00  0.00    +0.072 C 
ATOM     11  C   UNL     1      -1.769  -1.424  23.741  0.00  0.00    +0.024 C 
ATOM     12  C   UNL     1      -1.016   0.891  25.213  0.00  0.00    +0.090 C 
ATOM     13  C   UNL     1      -0.415  -1.933  25.756  0.00  0.00    +0.019 C 
ATOM     14  C   UNL     1      -1.316  -1.033  26.620  0.00  0.00    +0.085 C 
ENDROOT
BRANCH   9  15
ATOM     15  C   UNL     1       0.413   0.770  23.114  0.00  0.00    +0.109 C 
BRANCH  15   6
ATOM      6  N   UNL     1       1.407  -0.007  22.424  0.00  0.00    -0.333 N 
ATOM     17  C   UNL     1       1.012  -0.753  21.226  0.00  0.00    +0.129 C 
BRANCH   6  18
ATOM     18  C   UNL     1       2.736  -0.068  22.875  0.00  0.00    +0.029 A 
ATOM     20  C   UNL     1       3.229  -1.247  23.435  0.00  0.00    +0.023 A 
ATOM     21  C   UNL     1       3.562   1.049  22.762  0.00  0.00    +0.023 A 
ATOM     22  C   UNL     1       4.548  -1.308  23.882  0.00  0.00    +0.002 A 
ATOM     23  C   UNL     1       4.883   0.988  23.209  0.00  0.00    +0.002 A 
ATOM     26  C   UNL     1       5.375  -0.190  23.769  0.00  0.00    +0.000 A 
ENDBRANCH   6  18
ENDBRANCH  15   6
ENDBRANCH   9  15
BRANCH  10  16
ATOM     16  C   UNL     1      -3.751   0.157  23.984  0.00  0.00    +0.124 C 
BRANCH  16   7
ATOM      7  N   UNL     1      -5.006   0.160  24.685  0.00  0.00    -0.188 NA
ATOM     30  H   UNL     1      -5.542  -0.713  24.751  0.00  0.00    +0.148 HD
BRANCH   7   2
ATOM      2  S   UNL     1      -5.706   1.626  25.252  0.00  0.00    +0.058 S 
ATOM      3  O   UNL     1      -6.036   1.471  26.656  0.00  0.00    -0.153 OA
ATOM      4  O   UNL     1      -6.708   2.095  24.315  0.00  0.00    -0.153 OA
BRANCH   2  19
ATOM      1 CL   UNL     1      -0.825   5.553  24.836  0.00  0.00    -0.084 Cl
ATOM     19  C   UNL     1      -4.331   2.732  25.135  0.00  0.00    +0.105 A 
ATOM     24  C   UNL     1      -3.784   3.289  26.291  0.00  0.00    +0.030 A 
ATOM     25  C   UNL     1      -3.794   3.047  23.887  0.00  0.00    +0.030 A 
ATOM     27  C   UNL     1      -2.700   4.162  26.198  0.00  0.00    +0.022 A 
ATOM     28  C   UNL     1      -2.710   3.919  23.795  0.00  0.00    +0.022 A 
ATOM     29  C   UNL     1      -2.163   4.477  24.950  0.00  0.00    +0.041 A 
ENDBRANCH   2  19
ENDBRANCH   7   2
ENDBRANCH  16   7
ENDBRANCH  10  16
TORSDOF 7
ENDMDL
MODEL 3
REMARK VINA RESULT:      -3.6      3.296      6.908
REMARK  Name = 40779858
REMARK  8 active torsions:
REMARK  status: ('A' for Active; 'I' for Inactive)
REMARK    1  A    between atoms: S_2  and  N_7
REMARK    2  A    between atoms: S_2  and  C_19
REMARK    3  A    between atoms: N_6  and  C_15
REMARK    4  A    between atoms: N_6  and  C_17
REMARK    5  A    between atoms: N_6  and  C_18
REMARK    6  A    between atoms: N_7  and  C_16
REMARK    7  A    between atoms: C_9  and  C_15
REMARK    8  A    between atoms: C_10  and  C_16
REMARK                            x       y       z     vdW  Elec       q    Type
REMARK                         _______ _______ _______ _____ _____    ______ ____
ROOT
ATOM      5  N   UNL     1      -1.409   3.314  26.018  0.00  0.00    -0.298 NA
ATOM      8  C   UNL     1      -2.608   4.055  23.831  0.00  0.00    -0.002 C 
ATOM      9  C   UNL     1      -3.469   3.039  24.616  0.00  0.00    +0.023 C 
ATOM     10  C   UNL     1      -0.499   3.139  24.853  0.00  0.00    +0.072 C 
ATOM     11  C   UNL     1      -1.235   3.430  23.526  0.00  0.00    +0.024 C 
ATOM     12  C   UNL     1      -2.651   2.526  25.822  0.00  0.00    +0.090 C 
ATOM     13  C   UNL     1      -2.366   5.254  24.769  0.00  0.00    +0.019 C 
ATOM     14  C   UNL     1      -1.778   4.747  26.098  0.00  0.00    +0.085 C 
ENDROOT
BRANCH   9  15
ATOM     15  C   UNL     1      -3.980   1.889  23.752  0.00  0.00    +0.109 C 
BRANCH  15   6
ATOM      6  N   UNL     1      -4.672   0.932  24.574  0.00  0.00    -0.333 N 
ATOM     17  C   UNL     1      -5.873   1.362  25.297  0.00  0.00    +0.129 C 
BRANCH   6  18
ATOM     18  C   UNL     1      -4.220  -0.392  24.701  0.00  0.00    +0.029 A 
ATOM     20  C   UNL     1      -3.533  -0.788  25.848  0.00  0.00    +0.023 A 
ATOM     21  C   UNL     1      -4.460  -1.311  23.679  0.00  0.00    +0.023 A 
ATOM     22  C   UNL     1      -3.085  -2.102  25.974  0.00  0.00    +0.002 A 
ATOM     23  C   UNL     1      -4.012  -2.626  23.805  0.00  0.00    +0.002 A 
ATOM     26  C   UNL     1      -3.325  -3.022  24.952  0.00  0.00    +0.000 A 
ENDBRANCH   6  18
ENDBRANCH  15   6
ENDBRANCH   9  15
BRANCH  10  16
ATOM     16  C   UNL     1       0.176   1.765  24.839  0.00  0.00    +0.124 C 
BRANCH  16   7
ATOM      7  N   UNL     1       0.499   1.400  23.487  0.00  0.00    -0.188 NA
ATOM     30  H   UNL     1       0.393   2.099  22.743  0.00  0.00    +0.148 HD
BRANCH   7   2
ATOM      2  S   UNL     1       0.883  -0.225  23.072  0.00  0.00    +0.058 S 
ATOM      3  O   UNL     1       0.536  -0.444  21.681  0.00  0.00    -0.153 OA
ATOM      4  O   UNL     1       0.396  -1.129  24.096  0.00  0.00    -0.153 OA
BRANCH   2  19
ATOM      1 CL   UNL     1       7.146  -0.156  23.514  0.00  0.00    -0.084 Cl
ATOM     19  C   UNL     1       2.647  -0.206  23.196  0.00  0.00    +0.105 A 
ATOM     24  C   UNL     1       3.323  -1.321  23.691  0.00  0.00    +0.030 A 
ATOM     25  C   UNL     1       3.361   0.925  22.799  0.00  0.00    +0.030 A 
ATOM     27  C   UNL     1       4.714  -1.305  23.789  0.00  0.00    +0.022 A 
ATOM     28  C   UNL     1       4.753   0.939  22.897  0.00  0.00    +0.022 A 
ATOM     29  C   UNL     1       5.429  -0.175  23.392  0.00  0.00    +0.041 A 
ENDBRANCH   2  19
ENDBRANCH   7   2
ENDBRANCH  16   7
ENDBRANCH  10  16
TORSDOF 7
ENDMDL
MODEL 4
REMARK VINA RESULT:      -3.6      3.501      7.261
REMARK  Name = 40779858
REMARK  8 active torsions:
REMARK  status: ('A' for Active; 'I' for Inactive)
REMARK    1  A    between atoms: S_2  and  N_7
REMARK    2  A    between atoms: S_2  and  C_19
REMARK    3  A    between atoms: N_6  and  C_15
REMARK    4  A    between atoms: N_6  and  C_17
REMARK    5  A    between atoms: N_6  and  C_18
REMARK    6  A    between atoms: N_7  and  C_16
REMARK    7  A    between atoms: C_9  and  C_15
REMARK    8  A    between atoms: C_10  and  C_16
REMARK                            x       y       z     vdW  Elec       q    Type
REMARK                         _______ _______ _______ _____ _____    ______ ____
ROOT
ATOM      5  N   UNL     1      -2.820  -2.560  24.406  0.00  0.00    -0.298 NA
ATOM      8  C   UNL     1      -3.166  -0.358  25.748  0.00  0.00    -0.002 C 
ATOM      9  C   UNL     1      -3.974  -0.335  24.430  0.00  0.00    +0.023 C 
ATOM     10  C   UNL     1      -1.502  -1.968  24.762  0.00  0.00    +0.072 C 
ATOM     11  C   UNL     1      -1.677  -0.585  25.429  0.00  0.00    +0.024 C 
ATOM     12  C   UNL     1      -3.619  -1.595  23.611  0.00  0.00    +0.090 C 
ATOM     13  C   UNL     1      -3.653  -1.582  26.549  0.00  0.00    +0.019 C 
ATOM     14  C   UNL     1      -3.552  -2.838  25.665  0.00  0.00    +0.085 C 
ENDROOT
BRANCH   9  15
ATOM     15  C   UNL     1      -3.765   0.942  23.619  0.00  0.00    +0.109 C 
BRANCH  15   6
ATOM      6  N   UNL     1      -4.061   2.090  24.432  0.00  0.00    -0.333 N 
ATOM     17  C   UNL     1      -5.408   2.226  24.997  0.00  0.00    +0.129 C 
BRANCH   6  18
ATOM     18  C   UNL     1      -3.097   3.079  24.689  0.00  0.00    +0.029 A 
ATOM     20  C   UNL     1      -1.765   2.863  24.336  0.00  0.00    +0.023 A 
ATOM     21  C   UNL     1      -3.472   4.277  25.298  0.00  0.00    +0.023 A 
ATOM     22  C   UNL     1      -0.808   3.845  24.591  0.00  0.00    +0.002 A 
ATOM     23  C   UNL     1      -2.515   5.259  25.553  0.00  0.00    +0.002 A 
ATOM     26  C   UNL     1      -1.183   5.043  25.199  0.00  0.00    +0.000 A 
ENDBRANCH   6  18
ENDBRANCH  15   6
ENDBRANCH   9  15
BRANCH  10  16
ATOM     16  C   UNL     1      -0.547  -1.906  23.568  0.00  0.00    +0.124 C 
BRANCH  16   7
ATOM      7  N   UNL     1       0.590  -1.093  23.901  0.00  0.00    -0.188 NA
ATOM     30  H   UNL     1       0.970  -1.133  24.853  0.00  0.00    +0.148 HD
BRANCH   7   2
ATOM      2  S   UNL     1       1.207   0.071  22.793  0.00  0.00    +0.058 S 
ATOM      3  O   UNL     1       0.777   1.389  23.216  0.00  0.00    -0.153 OA
ATOM      4  O   UNL     1       0.977  -0.368  21.430  0.00  0.00    -0.153 OA
BRANCH   2  19
ATOM      1 CL   UNL     1       7.379  -0.382  23.849  0.00  0.00    -0.084 Cl
ATOM     19  C   UNL     1       2.945  -0.056  23.090  0.00  0.00    +0.105 A 
ATOM     24  C   UNL     1       3.481  -1.242  23.595  0.00  0.00    +0.030 A 
ATOM     25  C   UNL     1       3.780   1.028  22.820  0.00  0.00    +0.030 A 
ATOM     27  C   UNL     1       4.852  -1.342  23.830  0.00  0.00    +0.022 A 
ATOM     28  C   UNL     1       5.152   0.926  23.054  0.00  0.00    +0.022 A 
ATOM     29  C   UNL     1       5.688  -0.258  23.559  0.00  0.00    +0.041 A 
ENDBRANCH   2  19
ENDBRANCH   7   2
ENDBRANCH  16   7
ENDBRANCH  10  16
TORSDOF 7
ENDMDL
MODEL 5
REMARK VINA RESULT:      -3.0      1.458      2.311
REMARK  Name = 40779858
REMARK  8 active torsions:
REMARK  status: ('A' for Active; 'I' for Inactive)
REMARK    1  A    between atoms: S_2  and  N_7
REMARK    2  A    between atoms: S_2  and  C_19
REMARK    3  A    between atoms: N_6  and  C_15
REMARK    4  A    between atoms: N_6  and  C_17
REMARK    5  A    between atoms: N_6  and  C_18
REMARK    6  A    between atoms: N_7  and  C_16
REMARK    7  A    between atoms: C_9  and  C_15
REMARK    8  A    between atoms: C_10  and  C_16
REMARK                            x       y       z     vdW  Elec       q    Type
REMARK                         _______ _______ _______ _____ _____    ______ ____
ROOT
ATOM      5  N   UNL     1      -2.788   4.766  24.697  0.00  0.00    -0.298 NA
ATOM      8  C   UNL     1      -0.703   3.278  25.152  0.00  0.00    -0.002 C 
ATOM      9  C   UNL     1      -1.430   2.831  23.863  0.00  0.00    +0.023 C 
ATOM     10  C   UNL     1      -2.835   4.235  26.086  0.00  0.00    +0.072 C 
ATOM     11  C   UNL     1      -1.688   3.230  26.334  0.00  0.00    +0.024 C 
ATOM     12  C   UNL     1      -2.732   3.650  23.722  0.00  0.00    +0.090 C 
ATOM     13  C   UNL     1      -0.303   4.753  24.952  0.00  0.00    +0.019 C 
ATOM     14  C   UNL     1      -1.547   5.566  24.555  0.00  0.00    +0.085 C 
ENDROOT
BRANCH   9  15
ATOM     15  C   UNL     1      -1.700   1.329  23.814  0.00  0.00    +0.109 C 
BRANCH  15   6
ATOM      6  N   UNL     1      -0.543   0.610  24.276  0.00  0.00    -0.333 N 
ATOM     17  C   UNL     1      -0.559   0.043  25.628  0.00  0.00    +0.129 C 
BRANCH   6  18
ATOM     18  C   UNL     1       0.594   0.449  23.467  0.00  0.00    +0.029 A 
ATOM     20  C   UNL     1       1.767   1.141  23.767  0.00  0.00    +0.023 A 
ATOM     21  C   UNL     1       0.549  -0.405  22.365  0.00  0.00    +0.023 A 
ATOM     22  C   UNL     1       2.896   0.980  22.964  0.00  0.00    +0.002 A 
ATOM     23  C   UNL     1       1.678  -0.566  21.562  0.00  0.00    +0.002 A 
ATOM     26  C   UNL     1       2.851   0.126  21.861  0.00  0.00    +0.000 A 
ENDBRANCH   6  18
ENDBRANCH  15   6
ENDBRANCH   9  15
BRANCH  10  16
ATOM     16  C   UNL     1      -4.199   3.639  26.438  0.00  0.00    +0.124 C 
BRANCH  16   7
ATOM      7  N   UNL     1      -4.743   2.967  25.290  0.00  0.00    -0.188 NA
ATOM     30  H   UNL     1      -4.533   3.330  24.354  0.00  0.00    +0.148 HD
BRANCH   7   2
ATOM      2  S   UNL     1      -5.877   1.683  25.464  0.00  0.00    +0.058 S 
ATOM      3  O   UNL     1      -6.846   1.771  24.390  0.00  0.00    -0.153 OA
ATOM      4  O   UNL     1      -6.321   1.595  26.842  0.00  0.00    -0.153 OA
BRANCH   2  19
ATOM      1 CL   UNL     1      -2.239  -3.319  24.383  0.00  0.00    -0.084 Cl
ATOM     19  C   UNL     1      -4.852   0.275  25.160  0.00  0.00    +0.105 A 
ATOM     24  C   UNL     1      -4.813  -0.297  23.887  0.00  0.00    +0.030 A 
ATOM     25  C   UNL     1      -4.084  -0.265  26.192  0.00  0.00    +0.030 A 
ATOM     27  C   UNL     1      -4.005  -1.408  23.648  0.00  0.00    +0.022 A 
ATOM     28  C   UNL     1      -3.275  -1.375  25.951  0.00  0.00    +0.022 A 
ATOM     29  C   UNL     1      -3.236  -1.948  24.680  0.00  0.00    +0.041 A 
ENDBRANCH   2  19
ENDBRANCH   7   2
ENDBRANCH  16   7
ENDBRANCH  10  16
TORSDOF 7
ENDMDL
MODEL 6
REMARK VINA RESULT:      -1.7      3.792      7.167
REMARK  Name = 40779858
REMARK  8 active torsions:
REMARK  status: ('A' for Active; 'I' for Inactive)
REMARK    1  A    between atoms: S_2  and  N_7
REMARK    2  A    between atoms: S_2  and  C_19
REMARK    3  A    between atoms: N_6  and  C_15
REMARK    4  A    between atoms: N_6  and  C_17
REMARK    5  A    between atoms: N_6  and  C_18
REMARK    6  A    between atoms: N_7  and  C_16
REMARK    7  A    between atoms: C_9  and  C_15
REMARK    8  A    between atoms: C_10  and  C_16
REMARK                            x       y       z     vdW  Elec       q    Type
REMARK                         _______ _______ _______ _____ _____    ______ ____
ROOT
ATOM      5  N   UNL     1      -2.310  -2.399  24.482  0.00  0.00    -0.298 NA
ATOM      8  C   UNL     1      -3.016  -0.128  25.537  0.00  0.00    -0.002 C 
ATOM      9  C   UNL     1      -3.252  -0.125  24.009  0.00  0.00    +0.023 C 
ATOM     10  C   UNL     1      -1.198  -1.853  25.307  0.00  0.00    +0.072 C 
ATOM     11  C   UNL     1      -1.535  -0.436  25.823  0.00  0.00    +0.024 C 
ATOM     12  C   UNL     1      -2.683  -1.435  23.420  0.00  0.00    +0.090 C 
ATOM     13  C   UNL     1      -3.844  -1.293  26.114  0.00  0.00    +0.019 C 
ATOM     14  C   UNL     1      -3.485  -2.590  25.367  0.00  0.00    +0.085 C 
ENDROOT
BRANCH   9  15
ATOM     15  C   UNL     1      -2.672   1.105  23.314  0.00  0.00    +0.109 C 
BRANCH  15   6
ATOM      6  N   UNL     1      -3.628   2.178  23.346  0.00  0.00    -0.333 N 
ATOM     17  C   UNL     1      -3.642   3.144  22.242  0.00  0.00    +0.129 C 
BRANCH   6  18
ATOM     18  C   UNL     1      -4.538   2.323  24.407  0.00  0.00    +0.029 A 
ATOM     20  C   UNL     1      -4.307   3.276  25.399  0.00  0.00    +0.023 A 
ATOM     21  C   UNL     1      -5.671   1.513  24.467  0.00  0.00    +0.023 A 
ATOM     22  C   UNL     1      -5.209   3.419  26.451  0.00  0.00    +0.002 A 
ATOM     23  C   UNL     1      -6.575   1.656  25.521  0.00  0.00    +0.002 A 
ATOM     26  C   UNL     1      -6.344   2.609  26.513  0.00  0.00    +0.000 A 
ENDBRANCH   6  18
ENDBRANCH  15   6
ENDBRANCH   9  15
BRANCH  10  16
ATOM     16  C   UNL     1       0.145  -1.886  24.574  0.00  0.00    +0.124 C 
BRANCH  16   7
ATOM      7  N   UNL     1       0.852  -0.656  24.806  0.00  0.00    -0.188 NA
ATOM     30  H   UNL     1       1.065  -0.378  25.770  0.00  0.00    +0.148 HD
BRANCH   7   2
ATOM      2  S   UNL     1       1.184   0.436  23.517  0.00  0.00    +0.058 S 
ATOM      3  O   UNL     1       0.492  -0.024  22.329  0.00  0.00    -0.153 OA
ATOM      4  O   UNL     1       2.603   0.730  23.468  0.00  0.00    -0.153 OA
BRANCH   2  19
ATOM      1 CL   UNL     1      -1.698   5.633  25.543  0.00  0.00    -0.084 Cl
ATOM     19  C   UNL     1       0.372   1.899  24.088  0.00  0.00    +0.105 A 
ATOM     24  C   UNL     1       0.001   2.013  25.428  0.00  0.00    +0.030 A 
ATOM     25  C   UNL     1       0.104   2.940  23.198  0.00  0.00    +0.030 A 
ATOM     27  C   UNL     1      -0.639   3.168  25.877  0.00  0.00    +0.022 A 
ATOM     28  C   UNL     1      -0.536   4.094  23.649  0.00  0.00    +0.022 A 
ATOM     29  C   UNL     1      -0.908   4.208  24.988  0.00  0.00    +0.041 A 
ENDBRANCH   2  19
ENDBRANCH   7   2
ENDBRANCH  16   7
ENDBRANCH  10  16
TORSDOF 7
ENDMDL
MODEL 7
REMARK VINA RESULT:      -0.9      3.578      7.442
REMARK  Name = 40779858
REMARK  8 active torsions:
REMARK  status: ('A' for Active; 'I' for Inactive)
REMARK    1  A    between atoms: S_2  and  N_7
REMARK    2  A    between atoms: S_2  and  C_19
REMARK    3  A    between atoms: N_6  and  C_15
REMARK    4  A    between atoms: N_6  and  C_17
REMARK    5  A    between atoms: N_6  and  C_18
REMARK    6  A    between atoms: N_7  and  C_16
REMARK    7  A    between atoms: C_9  and  C_15
REMARK    8  A    between atoms: C_10  and  C_16
REMARK                            x       y       z     vdW  Elec       q    Type
REMARK                         _______ _______ _______ _____ _____    ______ ____
ROOT
ATOM      5  N   UNL     1      -2.722  -1.351  23.932  0.00  0.00    -0.298 NA
ATOM      8  C   UNL     1      -2.185  -0.557  26.351  0.00  0.00    -0.002 C 
ATOM      9  C   UNL     1      -2.234   0.641  25.374  0.00  0.00    +0.023 C 
ATOM     10  C   UNL     1      -1.575  -2.126  24.481  0.00  0.00    +0.072 C 
ATOM     11  C   UNL     1      -1.141  -1.574  25.857  0.00  0.00    +0.024 C 
ATOM     12  C   UNL     1      -2.411   0.099  23.938  0.00  0.00    +0.090 C 
ATOM     13  C   UNL     1      -3.562  -1.247  26.282  0.00  0.00    +0.019 C 
ATOM     14  C   UNL     1      -3.891  -1.577  24.816  0.00  0.00    +0.085 C 
ENDROOT
BRANCH   9  15
ATOM     15  C   UNL     1      -1.019   1.559  25.486  0.00  0.00    +0.109 C 
BRANCH  15   6
ATOM      6  N   UNL     1      -1.420   2.924  25.279  0.00  0.00    -0.333 N 
ATOM     17  C   UNL     1      -0.382   3.943  25.093  0.00  0.00    +0.129 C 
BRANCH   6  18
ATOM     18  C   UNL     1      -2.774   3.299  25.259  0.00  0.00    +0.029 A 
ATOM     20  C   UNL     1      -3.395   3.734  26.429  0.00  0.00    +0.023 A 
ATOM     21  C   UNL     1      -3.496   3.236  24.067  0.00  0.00    +0.023 A 
ATOM     22  C   UNL     1      -4.739   4.106  26.409  0.00  0.00    +0.002 A 
ATOM     23  C   UNL     1      -4.840   3.609  24.046  0.00  0.00    +0.002 A 
ATOM     26  C   UNL     1      -5.462   4.044  25.217  0.00  0.00    +0.000 A 
ENDBRANCH   6  18
ENDBRANCH  15   6
ENDBRANCH   9  15
BRANCH  10  16
ATOM     16  C   UNL     1      -0.401  -2.203  23.503  0.00  0.00    +0.124 C 
BRANCH  16   7
ATOM      7  N   UNL     1       0.602  -1.243  23.875  0.00  0.00    -0.188 NA
ATOM     30  H   UNL     1       0.902  -1.191  24.855  0.00  0.00    +0.148 HD
BRANCH   7   2
ATOM      2  S   UNL     1       1.171  -0.069  22.753  0.00  0.00    +0.058 S 
ATOM      3  O   UNL     1       0.683   1.235  23.158  0.00  0.00    -0.153 OA
ATOM      4  O   UNL     1       0.965  -0.537  21.396  0.00  0.00    -0.153 OA
BRANCH   2  19
ATOM      1 CL   UNL     1       7.354  -0.238  23.833  0.00  0.00    -0.084 Cl
ATOM     19  C   UNL     1       2.912  -0.117  23.057  0.00  0.00    +0.105 A 
ATOM     24  C   UNL     1       3.496  -1.267  23.589  0.00  0.00    +0.030 A 
ATOM     25  C   UNL     1       3.702   0.996  22.765  0.00  0.00    +0.030 A 
ATOM     27  C   UNL     1       4.869  -1.304  23.829  0.00  0.00    +0.022 A 
ATOM     28  C   UNL     1       5.075   0.957  23.004  0.00  0.00    +0.022 A 
ATOM     29  C   UNL     1       5.659  -0.192  23.537  0.00  0.00    +0.041 A 
ENDBRANCH   2  19
ENDBRANCH   7   2
ENDBRANCH  16   7
ENDBRANCH  10  16
TORSDOF 7
ENDMDL
