MODEL 1
REMARK VINA RESULT:      -0.5      0.000      0.000
REMARK  Name = 25339256
REMARK  9 active torsions:
REMARK  status: ('A' for Active; 'I' for Inactive)
REMARK    1  A    between atoms: N_7  and  C_11
REMARK    2  A    between atoms: N_8  and  C_21
REMARK    3  A    between atoms: N_8  and  C_22
REMARK    4  A    between atoms: C_10  and  C_15
REMARK    5  A    between atoms: C_15  and  C_17
REMARK    6  A    between atoms: C_17  and  C_19
REMARK    7  A    between atoms: C_18  and  C_20
REMARK    8  A    between atoms: C_21  and  C_24
REMARK    9  A    between atoms: C_22  and  C_25
REMARK                            x       y       z     vdW  Elec       q    Type
REMARK                         _______ _______ _______ _____ _____    ______ ____
ROOT
ATOM      2  O   UNL     1      -2.074  -2.714  24.388  0.00  0.00    -0.274 OA
ATOM      5  N   UNL     1      -0.576   0.486  24.528  0.00  0.00    -0.285 NA
ATOM      6  N   UNL     1      -2.488  -0.974  25.826  0.00  0.00    -0.313 N 
ATOM      9  C   UNL     1      -1.285  -0.536  23.752  0.00  0.00    +0.145 C 
ATOM     10  C   UNL     1      -1.530   1.288  25.295  0.00  0.00    +0.075 C 
ATOM     11  C   UNL     1       0.776   0.076  22.664  0.00  0.00    +0.089 C 
ATOM     12  C   UNL     1      -0.183  -1.103  22.870  0.00  0.00    +0.052 C 
ATOM     13  C   UNL     1       0.225   1.206  23.538  0.00  0.00    +0.107 C 
ATOM     14  C   UNL     1      -2.165   0.352  26.332  0.00  0.00    +0.123 C 
ATOM     16  C   UNL     1      -1.943  -1.528  24.683  0.00  0.00    +0.230 C 
ATOM     28  H   UNL     1      -3.005  -1.593  26.444  0.00  0.00    +0.149 HD
ENDROOT
BRANCH  11   7
ATOM      3  O   UNL     1       3.042   1.834  22.776  0.00  0.00    -0.270 OA
ATOM      7  N   UNL     1       2.124  -0.279  23.033  0.00  0.00    -0.307 N 
ATOM     18  C   UNL     1       3.158   0.645  23.057  0.00  0.00    +0.251 C 
ATOM     29  H   UNL     1       2.310  -1.258  23.224  0.00  0.00    +0.149 HD
BRANCH  18  20
ATOM      1  S   UNL     1       4.652  -1.541  23.840  0.00  0.00    -0.092 S 
ATOM     20  C   UNL     1       4.495   0.115  23.433  0.00  0.00    +0.074 A 
ATOM     23  C   UNL     1       5.697   0.783  23.512  0.00  0.00    +0.021 A 
ATOM     26  C   UNL     1       6.762  -0.077  23.910  0.00  0.00    +0.008 A 
ATOM     27  C   UNL     1       6.332  -1.368  24.122  0.00  0.00    +0.046 A 
ENDBRANCH  18  20
ENDBRANCH  11   7
BRANCH  10  15
ATOM     15  C   UNL     1      -0.880   2.475  26.008  0.00  0.00    +0.029 C 
BRANCH  15  17
ATOM     17  C   UNL     1      -1.550   3.788  25.617  0.00  0.00    +0.097 C 
BRANCH  17  19
ATOM      4  O   UNL     1      -3.289   3.974  27.255  0.00  0.00    -0.276 OA
ATOM      8  N   UNL     1      -3.964   3.754  25.047  0.00  0.00    -0.302 N 
ATOM     19  C   UNL     1      -3.005   3.848  26.061  0.00  0.00    +0.216 C 
BRANCH   8  21
ATOM     21  C   UNL     1      -3.676   3.603  23.623  0.00  0.00    +0.104 C 
ATOM     24  C   UNL     1      -3.691   2.148  23.204  0.00  0.00    +0.024 C 
ENDBRANCH   8  21
BRANCH   8  22
ATOM     22  C   UNL     1      -5.380   3.791  25.391  0.00  0.00    +0.104 C 
ATOM     25  C   UNL     1      -5.888   2.423  25.798  0.00  0.00    +0.024 C 
ENDBRANCH   8  22
ENDBRANCH  17  19
ENDBRANCH  15  17
ENDBRANCH  10  15
TORSDOF 7
ENDMDL
MODEL 2
REMARK VINA RESULT:      -0.5      2.184      4.927
REMARK  Name = 25339256
REMARK  9 active torsions:
REMARK  status: ('A' for Active; 'I' for Inactive)
REMARK    1  A    between atoms: N_7  and  C_11
REMARK    2  A    between atoms: N_8  and  C_21
REMARK    3  A    between atoms: N_8  and  C_22
REMARK    4  A    between atoms: C_10  and  C_15
REMARK    5  A    between atoms: C_15  and  C_17
REMARK    6  A    between atoms: C_17  and  C_19
REMARK    7  A    between atoms: C_18  and  C_20
REMARK    8  A    between atoms: C_21  and  C_24
REMARK    9  A    between atoms: C_22  and  C_25
REMARK                            x       y       z     vdW  Elec       q    Type
REMARK                         _______ _______ _______ _____ _____    ______ ____
ROOT
ATOM      2  O   UNL     1      -2.191   5.754  24.322  0.00  0.00    -0.274 OA
ATOM      5  N   UNL     1      -2.540   2.399  25.381  0.00  0.00    -0.285 NA
ATOM      6  N   UNL     1      -3.999   4.351  24.143  0.00  0.00    -0.313 N 
ATOM      9  C   UNL     1      -2.215   3.791  25.706  0.00  0.00    +0.145 C 
ATOM     10  C   UNL     1      -3.989   2.195  25.434  0.00  0.00    +0.075 C 
ATOM     11  C   UNL     1      -0.392   2.332  26.304  0.00  0.00    +0.089 C 
ATOM     12  C   UNL     1      -0.698   3.755  25.822  0.00  0.00    +0.052 C 
ATOM     13  C   UNL     1      -1.742   1.608  26.318  0.00  0.00    +0.107 C 
ATOM     14  C   UNL     1      -4.597   3.034  24.302  0.00  0.00    +0.123 C 
ATOM     16  C   UNL     1      -2.760   4.711  24.639  0.00  0.00    +0.230 C 
ATOM     28  H   UNL     1      -4.437   4.982  23.478  0.00  0.00    +0.149 HD
ENDROOT
BRANCH  11   7
ATOM      3  O   UNL     1       0.176   3.008  23.572  0.00  0.00    -0.270 OA
ATOM      7  N   UNL     1       0.557   1.681  25.435  0.00  0.00    -0.307 N 
ATOM     18  C   UNL     1       0.763   2.080  24.122  0.00  0.00    +0.251 C 
ATOM     29  H   UNL     1       1.039   0.867  25.802  0.00  0.00    +0.149 HD
BRANCH  18  20
ATOM      1  S   UNL     1       1.244  -0.131  22.542  0.00  0.00    -0.092 S 
ATOM     20  C   UNL     1       1.756   1.289  23.350  0.00  0.00    +0.074 A 
ATOM     23  C   UNL     1       3.100   1.530  23.171  0.00  0.00    +0.021 A 
ATOM     26  C   UNL     1       3.718   0.536  22.358  0.00  0.00    +0.008 A 
ATOM     27  C   UNL     1       2.822  -0.428  21.948  0.00  0.00    +0.046 A 
ENDBRANCH  18  20
ENDBRANCH  11   7
BRANCH  10  15
ATOM     15  C   UNL     1      -4.396   0.731  25.261  0.00  0.00    +0.029 C 
BRANCH  15  17
ATOM     17  C   UNL     1      -4.005   0.209  23.882  0.00  0.00    +0.097 C 
BRANCH  17  19
ATOM      4  O   UNL     1      -1.655   0.238  23.413  0.00  0.00    -0.276 OA
ATOM      8  N   UNL     1      -2.493  -1.689  24.394  0.00  0.00    -0.302 N 
ATOM     19  C   UNL     1      -2.609  -0.398  23.868  0.00  0.00    +0.216 C 
BRANCH   8  21
ATOM     21  C   UNL     1      -3.592  -2.481  24.942  0.00  0.00    +0.104 C 
ATOM     24  C   UNL     1      -4.348  -3.211  23.851  0.00  0.00    +0.024 C 
ENDBRANCH   8  21
BRANCH   8  22
ATOM     22  C   UNL     1      -1.191  -2.345  24.407  0.00  0.00    +0.104 C 
ATOM     25  C   UNL     1      -0.299  -1.784  25.496  0.00  0.00    +0.024 C 
ENDBRANCH   8  22
ENDBRANCH  17  19
ENDBRANCH  15  17
ENDBRANCH  10  15
TORSDOF 7
ENDMDL
MODEL 3
REMARK VINA RESULT:      -0.3      2.192      5.022
REMARK  Name = 25339256
REMARK  9 active torsions:
REMARK  status: ('A' for Active; 'I' for Inactive)
REMARK    1  A    between atoms: N_7  and  C_11
REMARK    2  A    between atoms: N_8  and  C_21
REMARK    3  A    between atoms: N_8  and  C_22
REMARK    4  A    between atoms: C_10  and  C_15
REMARK    5  A    between atoms: C_15  and  C_17
REMARK    6  A    between atoms: C_17  and  C_19
REMARK    7  A    between atoms: C_18  and  C_20
REMARK    8  A    between atoms: C_21  and  C_24
REMARK    9  A    between atoms: C_22  and  C_25
REMARK                            x       y       z     vdW  Elec       q    Type
REMARK                         _______ _______ _______ _____ _____    ______ ____
ROOT
ATOM      2  O   UNL     1      -1.789   6.065  25.363  0.00  0.00    -0.274 OA
ATOM      5  N   UNL     1      -2.252   2.600  24.829  0.00  0.00    -0.285 NA
ATOM      6  N   UNL     1      -3.547   4.965  24.379  0.00  0.00    -0.313 N 
ATOM      9  C   UNL     1      -1.982   3.702  25.757  0.00  0.00    +0.145 C 
ATOM     10  C   UNL     1      -3.694   2.467  24.611  0.00  0.00    +0.075 C 
ATOM     11  C   UNL     1      -0.246   2.038  25.891  0.00  0.00    +0.089 C 
ATOM     12  C   UNL     1      -0.494   3.544  26.032  0.00  0.00    +0.052 C 
ATOM     13  C   UNL     1      -1.580   1.446  25.427  0.00  0.00    +0.107 C 
ATOM     14  C   UNL     1      -4.152   3.738  23.883  0.00  0.00    +0.123 C 
ATOM     16  C   UNL     1      -2.387   5.016  25.130  0.00  0.00    +0.230 C 
ATOM     28  H   UNL     1      -3.897   5.841  24.001  0.00  0.00    +0.149 HD
ENDROOT
BRANCH  11   7
ATOM      3  O   UNL     1      -0.218  -0.003  23.872  0.00  0.00    -0.270 OA
ATOM      7  N   UNL     1       0.815   1.771  24.951  0.00  0.00    -0.307 N 
ATOM     18  C   UNL     1       0.737   0.757  24.007  0.00  0.00    +0.251 C 
ATOM     29  H   UNL     1       1.662   2.322  25.038  0.00  0.00    +0.149 HD
BRANCH  18  20
ATOM      1  S   UNL     1       1.796  -0.376  21.723  0.00  0.00    -0.092 S 
ATOM     20  C   UNL     1       1.925   0.593  23.129  0.00  0.00    +0.074 A 
ATOM     23  C   UNL     1       3.186   1.127  23.274  0.00  0.00    +0.021 A 
ATOM     26  C   UNL     1       4.058   0.736  22.217  0.00  0.00    +0.008 A 
ATOM     27  C   UNL     1       3.429  -0.083  21.304  0.00  0.00    +0.046 A 
ENDBRANCH  18  20
ENDBRANCH  11   7
BRANCH  10  15
ATOM     15  C   UNL     1      -4.064   1.238  23.778  0.00  0.00    +0.029 C 
BRANCH  15  17
ATOM     17  C   UNL     1      -4.725   0.167  24.639  0.00  0.00    +0.097 C 
BRANCH  17  19
ATOM      4  O   UNL     1      -4.549  -1.729  23.184  0.00  0.00    -0.276 OA
ATOM      8  N   UNL     1      -3.493  -1.900  25.242  0.00  0.00    -0.302 N 
ATOM     19  C   UNL     1      -4.256  -1.235  24.276  0.00  0.00    +0.216 C 
BRANCH   8  21
ATOM     21  C   UNL     1      -3.122  -1.357  26.547  0.00  0.00    +0.104 C 
ATOM     24  C   UNL     1      -1.628  -1.135  26.651  0.00  0.00    +0.024 C 
ENDBRANCH   8  21
BRANCH   8  22
ATOM     22  C   UNL     1      -3.015  -3.251  24.975  0.00  0.00    +0.104 C 
ATOM     25  C   UNL     1      -1.887  -3.250  23.964  0.00  0.00    +0.024 C 
ENDBRANCH   8  22
ENDBRANCH  17  19
ENDBRANCH  15  17
ENDBRANCH  10  15
TORSDOF 7
ENDMDL
MODEL 4
REMARK VINA RESULT:       0.1      3.293      4.215
REMARK  Name = 25339256
REMARK  9 active torsions:
REMARK  status: ('A' for Active; 'I' for Inactive)
REMARK    1  A    between atoms: N_7  and  C_11
REMARK    2  A    between atoms: N_8  and  C_21
REMARK    3  A    between atoms: N_8  and  C_22
REMARK    4  A    between atoms: C_10  and  C_15
REMARK    5  A    between atoms: C_15  and  C_17
REMARK    6  A    between atoms: C_17  and  C_19
REMARK    7  A    between atoms: C_18  and  C_20
REMARK    8  A    between atoms: C_21  and  C_24
REMARK    9  A    between atoms: C_22  and  C_25
REMARK                            x       y       z     vdW  Elec       q    Type
REMARK                         _______ _______ _______ _____ _____    ______ ____
ROOT
ATOM      2  O   UNL     1      -1.050  -3.226  24.110  0.00  0.00    -0.274 OA
ATOM      5  N   UNL     1      -2.610  -0.170  24.966  0.00  0.00    -0.285 NA
ATOM      6  N   UNL     1      -3.271  -2.776  24.473  0.00  0.00    -0.313 N 
ATOM      9  C   UNL     1      -1.741  -0.925  24.059  0.00  0.00    +0.145 C 
ATOM     10  C   UNL     1      -4.014  -0.379  24.608  0.00  0.00    +0.075 C 
ATOM     11  C   UNL     1      -0.599   1.023  24.900  0.00  0.00    +0.089 C 
ATOM     12  C   UNL     1      -0.356  -0.416  24.431  0.00  0.00    +0.052 C 
ATOM     13  C   UNL     1      -2.119   1.206  24.882  0.00  0.00    +0.107 C 
ATOM     14  C   UNL     1      -4.325  -1.857  24.877  0.00  0.00    +0.123 C 
ATOM     16  C   UNL     1      -1.958  -2.408  24.251  0.00  0.00    +0.230 C 
ATOM     28  H   UNL     1      -3.474  -3.770  24.533  0.00  0.00    +0.149 HD
ENDROOT
BRANCH  11   7
ATOM      3  O   UNL     1       0.472   3.482  25.925  0.00  0.00    -0.270 OA
ATOM      7  N   UNL     1      -0.049   1.241  26.216  0.00  0.00    -0.307 N 
ATOM     18  C   UNL     1       0.448   2.471  26.622  0.00  0.00    +0.251 C 
ATOM     29  H   UNL     1       0.017   0.437  26.830  0.00  0.00    +0.149 HD
BRANCH  18  20
ATOM      1  S   UNL     1       2.674   2.838  28.211  0.00  0.00    -0.092 S 
ATOM     20  C   UNL     1       1.004   2.525  27.999  0.00  0.00    +0.074 A 
ATOM     23  C   UNL     1       0.354   2.354  29.200  0.00  0.00    +0.021 A 
ATOM     26  C   UNL     1       1.238   2.482  30.311  0.00  0.00    +0.008 A 
ATOM     27  C   UNL     1       2.531   2.745  29.914  0.00  0.00    +0.046 A 
ENDBRANCH  18  20
ENDBRANCH  11   7
BRANCH  10  15
ATOM     15  C   UNL     1      -4.975   0.501  25.410  0.00  0.00    +0.029 C 
BRANCH  15  17
ATOM     17  C   UNL     1      -5.450   1.693  24.586  0.00  0.00    +0.097 C 
BRANCH  17  19
ATOM      4  O   UNL     1      -4.852   3.376  26.184  0.00  0.00    -0.276 OA
ATOM      8  N   UNL     1      -4.103   3.696  24.012  0.00  0.00    -0.302 N 
ATOM     19  C   UNL     1      -4.781   2.993  25.013  0.00  0.00    +0.216 C 
BRANCH   8  21
ATOM     21  C   UNL     1      -3.994   3.282  22.615  0.00  0.00    +0.104 C 
ATOM     24  C   UNL     1      -2.748   2.454  22.377  0.00  0.00    +0.024 C 
ENDBRANCH   8  21
BRANCH   8  22
ATOM     22  C   UNL     1      -3.446   4.956  24.338  0.00  0.00    +0.104 C 
ATOM     25  C   UNL     1      -2.202   4.732  25.173  0.00  0.00    +0.024 C 
ENDBRANCH   8  22
ENDBRANCH  17  19
ENDBRANCH  15  17
ENDBRANCH  10  15
TORSDOF 7
ENDMDL
MODEL 5
REMARK VINA RESULT:       0.6      1.644      2.703
REMARK  Name = 25339256
REMARK  9 active torsions:
REMARK  status: ('A' for Active; 'I' for Inactive)
REMARK    1  A    between atoms: N_7  and  C_11
REMARK    2  A    between atoms: N_8  and  C_21
REMARK    3  A    between atoms: N_8  and  C_22
REMARK    4  A    between atoms: C_10  and  C_15
REMARK    5  A    between atoms: C_15  and  C_17
REMARK    6  A    between atoms: C_17  and  C_19
REMARK    7  A    between atoms: C_18  and  C_20
REMARK    8  A    between atoms: C_21  and  C_24
REMARK    9  A    between atoms: C_22  and  C_25
REMARK                            x       y       z     vdW  Elec       q    Type
REMARK                         _______ _______ _______ _____ _____    ______ ____
ROOT
ATOM      2  O   UNL     1      -3.106  -1.787  26.498  0.00  0.00    -0.274 OA
ATOM      5  N   UNL     1      -2.328   0.450  23.872  0.00  0.00    -0.285 NA
ATOM      6  N   UNL     1      -4.035   0.251  25.997  0.00  0.00    -0.313 N 
ATOM      9  C   UNL     1      -2.715  -0.897  24.300  0.00  0.00    +0.145 C 
ATOM     10  C   UNL     1      -3.510   1.308  23.779  0.00  0.00    +0.075 C 
ATOM     11  C   UNL     1      -0.712  -0.977  22.963  0.00  0.00    +0.089 C 
ATOM     12  C   UNL     1      -1.424  -1.683  24.123  0.00  0.00    +0.052 C 
ATOM     13  C   UNL     1      -1.582   0.239  22.631  0.00  0.00    +0.107 C 
ATOM     14  C   UNL     1      -4.054   1.471  25.204  0.00  0.00    +0.123 C 
ATOM     16  C   UNL     1      -3.257  -0.855  25.710  0.00  0.00    +0.230 C 
ATOM     28  H   UNL     1      -4.481   0.284  26.910  0.00  0.00    +0.149 HD
ENDROOT
BRANCH  11   7
ATOM      3  O   UNL     1       1.499  -0.546  21.184  0.00  0.00    -0.270 OA
ATOM      7  N   UNL     1       0.628  -0.592  23.332  0.00  0.00    -0.307 N 
ATOM     18  C   UNL     1       1.635  -0.407  22.396  0.00  0.00    +0.251 C 
ATOM     29  H   UNL     1       0.832  -0.513  24.322  0.00  0.00    +0.149 HD
BRANCH  18  20
ATOM      1  S   UNL     1       3.908  -1.232  23.728  0.00  0.00    -0.092 S 
ATOM     20  C   UNL     1       2.968  -0.037  22.940  0.00  0.00    +0.074 A 
ATOM     23  C   UNL     1       3.604   1.184  22.908  0.00  0.00    +0.021 A 
ATOM     26  C   UNL     1       4.881   1.138  23.540  0.00  0.00    +0.008 A 
ATOM     27  C   UNL     1       5.171  -0.117  24.030  0.00  0.00    +0.046 A 
ENDBRANCH  18  20
ENDBRANCH  11   7
BRANCH  10  15
ATOM     15  C   UNL     1      -3.206   2.686  23.186  0.00  0.00    +0.029 C 
BRANCH  15  17
ATOM     17  C   UNL     1      -3.583   3.799  24.158  0.00  0.00    +0.097 C 
BRANCH  17  19
ATOM      4  O   UNL     1      -3.271   3.882  26.532  0.00  0.00    -0.276 OA
ATOM      8  N   UNL     1      -1.361   3.612  25.245  0.00  0.00    -0.302 N 
ATOM     19  C   UNL     1      -2.739   3.770  25.425  0.00  0.00    +0.216 C 
BRANCH   8  21
ATOM     21  C   UNL     1      -0.687   3.477  23.955  0.00  0.00    +0.104 C 
ATOM     24  C   UNL     1       0.001   4.764  23.551  0.00  0.00    +0.024 C 
ENDBRANCH   8  21
BRANCH   8  22
ATOM     22  C   UNL     1      -0.483   3.585  26.408  0.00  0.00    +0.104 C 
ATOM     25  C   UNL     1       0.247   2.262  26.521  0.00  0.00    +0.024 C 
ENDBRANCH   8  22
ENDBRANCH  17  19
ENDBRANCH  15  17
ENDBRANCH  10  15
TORSDOF 7
ENDMDL
MODEL 6
REMARK VINA RESULT:       0.9      1.689      2.637
REMARK  Name = 25339256
REMARK  9 active torsions:
REMARK  status: ('A' for Active; 'I' for Inactive)
REMARK    1  A    between atoms: N_7  and  C_11
REMARK    2  A    between atoms: N_8  and  C_21
REMARK    3  A    between atoms: N_8  and  C_22
REMARK    4  A    between atoms: C_10  and  C_15
REMARK    5  A    between atoms: C_15  and  C_17
REMARK    6  A    between atoms: C_17  and  C_19
REMARK    7  A    between atoms: C_18  and  C_20
REMARK    8  A    between atoms: C_21  and  C_24
REMARK    9  A    between atoms: C_22  and  C_25
REMARK                            x       y       z     vdW  Elec       q    Type
REMARK                         _______ _______ _______ _____ _____    ______ ____
ROOT
ATOM      2  O   UNL     1      -2.476  -3.704  24.248  0.00  0.00    -0.274 OA
ATOM      5  N   UNL     1      -1.966  -0.212  24.476  0.00  0.00    -0.285 NA
ATOM      6  N   UNL     1      -3.486  -2.172  25.626  0.00  0.00    -0.313 N 
ATOM      9  C   UNL     1      -2.288  -1.383  23.655  0.00  0.00    +0.145 C 
ATOM     10  C   UNL     1      -3.169   0.276  25.151  0.00  0.00    +0.075 C 
ATOM     11  C   UNL     1      -0.403  -0.198  22.736  0.00  0.00    +0.089 C 
ATOM     12  C   UNL     1      -1.001  -1.602  22.874  0.00  0.00    +0.052 C 
ATOM     13  C   UNL     1      -1.323   0.719  23.548  0.00  0.00    +0.107 C 
ATOM     14  C   UNL     1      -3.596  -0.815  26.142  0.00  0.00    +0.123 C 
ATOM     16  C   UNL     1      -2.712  -2.533  24.539  0.00  0.00    +0.230 C 
ATOM     28  H   UNL     1      -3.855  -2.920  26.205  0.00  0.00    +0.149 HD
ENDROOT
BRANCH  11   7
ATOM      3  O   UNL     1       1.987  -0.314  21.150  0.00  0.00    -0.270 OA
ATOM      7  N   UNL     1       0.955  -0.160  23.220  0.00  0.00    -0.307 N 
ATOM     18  C   UNL     1       2.051  -0.223  22.373  0.00  0.00    +0.251 C 
ATOM     29  H   UNL     1       1.088  -0.142  24.225  0.00  0.00    +0.149 HD
BRANCH  18  20
ATOM      1  S   UNL     1       4.375   1.185  22.856  0.00  0.00    -0.092 S 
ATOM     20  C   UNL     1       3.384  -0.200  23.030  0.00  0.00    +0.074 A 
ATOM     23  C   UNL     1       3.983  -1.171  23.801  0.00  0.00    +0.021 A 
ATOM     26  C   UNL     1       5.274  -0.772  24.255  0.00  0.00    +0.008 A 
ATOM     27  C   UNL     1       5.611   0.489  23.813  0.00  0.00    +0.046 A 
ENDBRANCH  18  20
ENDBRANCH  11   7
BRANCH  10  15
ATOM     15  C   UNL     1      -2.945   1.590  25.902  0.00  0.00    +0.029 C 
BRANCH  15  17
ATOM     17  C   UNL     1      -3.859   2.691  25.374  0.00  0.00    +0.097 C 
BRANCH  17  19
ATOM      4  O   UNL     1      -3.571   4.608  23.966  0.00  0.00    -0.276 OA
ATOM      8  N   UNL     1      -1.800   4.074  25.365  0.00  0.00    -0.302 N 
ATOM     19  C   UNL     1      -3.078   3.878  24.830  0.00  0.00    +0.216 C 
BRANCH   8  21
ATOM     21  C   UNL     1      -1.174   3.237  26.386  0.00  0.00    +0.104 C 
ATOM     24  C   UNL     1       0.214   2.798  25.970  0.00  0.00    +0.024 C 
ENDBRANCH   8  21
BRANCH   8  22
ATOM     22  C   UNL     1      -0.983   5.183  24.888  0.00  0.00    +0.104 C 
ATOM     25  C   UNL     1      -0.293   4.842  23.583  0.00  0.00    +0.024 C 
ENDBRANCH   8  22
ENDBRANCH  17  19
ENDBRANCH  15  17
ENDBRANCH  10  15
TORSDOF 7
ENDMDL
MODEL 7
REMARK VINA RESULT:       1.5      3.303      5.437
REMARK  Name = 25339256
REMARK  9 active torsions:
REMARK  status: ('A' for Active; 'I' for Inactive)
REMARK    1  A    between atoms: N_7  and  C_11
REMARK    2  A    between atoms: N_8  and  C_21
REMARK    3  A    between atoms: N_8  and  C_22
REMARK    4  A    between atoms: C_10  and  C_15
REMARK    5  A    between atoms: C_15  and  C_17
REMARK    6  A    between atoms: C_17  and  C_19
REMARK    7  A    between atoms: C_18  and  C_20
REMARK    8  A    between atoms: C_21  and  C_24
REMARK    9  A    between atoms: C_22  and  C_25
REMARK                            x       y       z     vdW  Elec       q    Type
REMARK                         _______ _______ _______ _____ _____    ______ ____
ROOT
ATOM      2  O   UNL     1       0.465   4.631  22.838  0.00  0.00    -0.274 OA
ATOM      5  N   UNL     1      -1.469   3.502  25.575  0.00  0.00    -0.285 NA
ATOM      6  N   UNL     1      -1.246   5.686  23.946  0.00  0.00    -0.313 N 
ATOM      9  C   UNL     1      -0.150   3.781  25.000  0.00  0.00    +0.145 C 
ATOM     10  C   UNL     1      -2.047   4.728  26.127  0.00  0.00    +0.075 C 
ATOM     11  C   UNL     1      -0.280   1.496  25.753  0.00  0.00    +0.089 C 
ATOM     12  C   UNL     1       0.376   2.387  24.692  0.00  0.00    +0.052 C 
ATOM     13  C   UNL     1      -1.231   2.414  26.524  0.00  0.00    +0.107 C 
ATOM     14  C   UNL     1      -2.306   5.669  24.943  0.00  0.00    +0.123 C 
ATOM     16  C   UNL     1      -0.290   4.697  23.807  0.00  0.00    +0.230 C 
ATOM     28  H   UNL     1      -1.323   6.370  23.199  0.00  0.00    +0.149 HD
ENDROOT
BRANCH  11   7
ATOM      3  O   UNL     1      -1.297  -0.833  27.089  0.00  0.00    -0.270 OA
ATOM      7  N   UNL     1      -0.978   0.390  25.145  0.00  0.00    -0.307 N 
ATOM     18  C   UNL     1      -1.433  -0.697  25.876  0.00  0.00    +0.251 C 
ATOM     29  H   UNL     1      -1.078   0.403  24.136  0.00  0.00    +0.149 HD
BRANCH  18  20
ATOM      1  S   UNL     1      -1.228  -2.611  23.898  0.00  0.00    -0.092 S 
ATOM     20  C   UNL     1      -2.111  -1.768  25.098  0.00  0.00    +0.074 A 
ATOM     23  C   UNL     1      -3.410  -2.213  25.194  0.00  0.00    +0.021 A 
ATOM     26  C   UNL     1      -3.685  -3.263  24.270  0.00  0.00    +0.008 A 
ATOM     27  C   UNL     1      -2.584  -3.578  23.503  0.00  0.00    +0.046 A 
ENDBRANCH  18  20
ENDBRANCH  11   7
BRANCH  10  15
ATOM     15  C   UNL     1      -3.354   4.486  26.885  0.00  0.00    +0.029 C 
BRANCH  15  17
ATOM     17  C   UNL     1      -4.552   4.516  25.941  0.00  0.00    +0.097 C 
BRANCH  17  19
ATOM      4  O   UNL     1      -5.880   2.636  26.608  0.00  0.00    -0.276 OA
ATOM      8  N   UNL     1      -4.856   2.499  24.531  0.00  0.00    -0.302 N 
ATOM     19  C   UNL     1      -5.162   3.136  25.738  0.00  0.00    +0.216 C 
BRANCH   8  21
ATOM     21  C   UNL     1      -4.012   3.050  23.474  0.00  0.00    +0.104 C 
ATOM     24  C   UNL     1      -3.072   2.004  22.912  0.00  0.00    +0.024 C 
ENDBRANCH   8  21
BRANCH   8  22
ATOM     22  C   UNL     1      -5.392   1.170  24.265  0.00  0.00    +0.104 C 
ATOM     25  C   UNL     1      -4.935   0.169  25.308  0.00  0.00    +0.024 C 
ENDBRANCH   8  22
ENDBRANCH  17  19
ENDBRANCH  15  17
ENDBRANCH  10  15
TORSDOF 7
ENDMDL
