MODEL 1
REMARK VINA RESULT:      -2.8      0.000      0.000
REMARK  Name = 45783418
REMARK  9 active torsions:
REMARK  status: ('A' for Active; 'I' for Inactive)
REMARK    1  A    between atoms: O_2  and  C_22
REMARK    2  A    between atoms: O_2  and  C_26
REMARK    3  A    between atoms: O_3  and  C_27
REMARK    4  A    between atoms: O_3  and  C_28
REMARK    5  A    between atoms: N_4  and  C_9
REMARK    6  A    between atoms: N_5  and  C_19
REMARK    7  A    between atoms: C_10  and  C_18
REMARK    8  A    between atoms: C_20  and  C_21
REMARK    9  A    between atoms: C_26  and  C_27
REMARK                            x       y       z     vdW  Elec       q    Type
REMARK                         _______ _______ _______ _____ _____    ______ ____
ROOT
ATOM      1  O   UNL     1      13.074  -5.773  30.469  0.00  0.00    -0.336 OA
ATOM      6  N   UNL     1      13.322  -7.133  32.232  0.00  0.00    -0.190 NA
ATOM      7  N   UNL     1      11.918  -6.561  30.518  0.00  0.00    -0.056 NA
ATOM     18  C   UNL     1      13.848  -6.174  31.512  0.00  0.00    +0.245 A 
ATOM     20  C   UNL     1      12.138  -7.338  31.583  0.00  0.00    +0.207 A 
ENDROOT
BRANCH  20  21
ATOM      8  N   UNL     1      10.659 -10.643  32.462  0.00  0.00    -0.221 NA
ATOM     21  C   UNL     1      11.199  -8.327  32.024  0.00  0.00    +0.084 A 
ATOM     22  C   UNL     1      11.512  -9.677  32.054  0.00  0.00    +0.226 A 
ATOM     23  C   UNL     1       9.929  -7.945  32.440  0.00  0.00    +0.018 A 
ATOM     24  C   UNL     1       9.023  -8.909  32.866  0.00  0.00    +0.021 A 
ATOM     25  C   UNL     1       9.433 -10.233  32.858  0.00  0.00    +0.114 A 
BRANCH  22   2
ATOM      2  O   UNL     1      12.752 -10.104  31.654  0.00  0.00    -0.474 OA
BRANCH   2  26
ATOM     26  C   UNL     1      12.852 -10.629  30.336  0.00  0.00    +0.258 C 
BRANCH  26  27
ATOM     27  C   UNL     1      14.021  -9.970  29.629  0.00  0.00    +0.200 C 
BRANCH  27   3
ATOM      3  O   UNL     1      15.236 -10.520  30.128  0.00  0.00    -0.380 OA
ATOM     28  C   UNL     1      16.162 -10.769  29.081  0.00  0.00    +0.194 C 
ENDBRANCH  27   3
ENDBRANCH  26  27
ENDBRANCH   2  26
ENDBRANCH  22   2
ENDBRANCH  20  21
BRANCH  18  10
ATOM      4  N   UNL     1      15.547  -4.667  30.496  0.00  0.00    -0.288 NA
ATOM     10  C   UNL     1      15.174  -5.464  31.682  0.00  0.00    +0.146 C 
ATOM     11  C   UNL     1      16.361  -3.554  30.984  0.00  0.00    +0.085 C 
ATOM     14  C   UNL     1      15.163  -4.453  32.843  0.00  0.00    +0.030 C 
ATOM     15  C   UNL     1      15.602  -3.133  32.226  0.00  0.00    +0.017 C 
BRANCH   4   9
ATOM      5  N   UNL     1      16.464  -6.321  26.689  0.00  0.00    -0.305 NA
ATOM      9  C   UNL     1      16.241  -5.447  29.473  0.00  0.00    +0.060 C 
ATOM     12  C   UNL     1      16.763  -4.526  28.367  0.00  0.00    +0.034 C 
ATOM     13  C   UNL     1      15.316  -6.511  28.874  0.00  0.00    +0.034 C 
ATOM     16  C   UNL     1      17.405  -5.335  27.238  0.00  0.00    +0.085 C 
ATOM     17  C   UNL     1      16.006  -7.255  27.728  0.00  0.00    +0.085 C 
ATOM     19  C   UNL     1      17.076  -7.050  25.579  0.00  0.00    +0.104 C 
ENDBRANCH   4   9
ENDBRANCH  18  10
TORSDOF 7
ENDMDL
MODEL 2
REMARK VINA RESULT:      -1.7     16.897     19.791
REMARK  Name = 45783418
REMARK  9 active torsions:
REMARK  status: ('A' for Active; 'I' for Inactive)
REMARK    1  A    between atoms: O_2  and  C_22
REMARK    2  A    between atoms: O_2  and  C_26
REMARK    3  A    between atoms: O_3  and  C_27
REMARK    4  A    between atoms: O_3  and  C_28
REMARK    5  A    between atoms: N_4  and  C_9
REMARK    6  A    between atoms: N_5  and  C_19
REMARK    7  A    between atoms: C_10  and  C_18
REMARK    8  A    between atoms: C_20  and  C_21
REMARK    9  A    between atoms: C_26  and  C_27
REMARK                            x       y       z     vdW  Elec       q    Type
REMARK                         _______ _______ _______ _____ _____    ______ ____
ROOT
ATOM      1  O   UNL     1      -0.751  -2.320  25.369  0.00  0.00    -0.336 OA
ATOM      6  N   UNL     1      -0.868  -0.487  24.087  0.00  0.00    -0.190 NA
ATOM      7  N   UNL     1       0.569  -1.985  25.048  0.00  0.00    -0.056 NA
ATOM     18  C   UNL     1      -1.534  -1.388  24.764  0.00  0.00    +0.245 A 
ATOM     20  C   UNL     1       0.419  -0.894  24.290  0.00  0.00    +0.207 A 
ENDROOT
BRANCH  20  21
ATOM      8  N   UNL     1       2.576   1.895  23.086  0.00  0.00    -0.221 NA
ATOM     21  C   UNL     1       1.531  -0.191  23.721  0.00  0.00    +0.084 A 
ATOM     22  C   UNL     1       1.550   1.190  23.614  0.00  0.00    +0.226 A 
ATOM     23  C   UNL     1       2.636  -0.895  23.256  0.00  0.00    +0.018 A 
ATOM     24  C   UNL     1       3.711  -0.206  22.705  0.00  0.00    +0.021 A 
ATOM     25  C   UNL     1       3.633   1.176  22.643  0.00  0.00    +0.114 A 
BRANCH  22   2
ATOM      2  O   UNL     1       0.484   1.929  24.059  0.00  0.00    -0.474 OA
BRANCH   2  26
ATOM     26  C   UNL     1       0.435   2.204  25.454  0.00  0.00    +0.258 C 
BRANCH  26  27
ATOM     27  C   UNL     1      -0.670   3.208  25.721  0.00  0.00    +0.200 C 
BRANCH  27   3
ATOM      3  O   UNL     1      -0.690   4.167  24.669  0.00  0.00    -0.380 OA
ATOM     28  C   UNL     1      -1.340   5.364  25.069  0.00  0.00    +0.194 C 
ENDBRANCH  27   3
ENDBRANCH  26  27
ENDBRANCH   2  26
ENDBRANCH  22   2
ENDBRANCH  20  21
BRANCH  18  10
ATOM      4  N   UNL     1      -3.802  -0.573  24.144  0.00  0.00    -0.288 NA
ATOM     10  C   UNL     1      -3.028  -1.529  24.962  0.00  0.00    +0.146 C 
ATOM     11  C   UNL     1      -5.085  -1.216  23.861  0.00  0.00    +0.085 C 
ATOM     14  C   UNL     1      -3.554  -2.915  24.545  0.00  0.00    +0.030 C 
ATOM     15  C   UNL     1      -4.661  -2.635  23.539  0.00  0.00    +0.017 C 
BRANCH   4   9
ATOM      5  N   UNL     1      -5.373   3.292  24.956  0.00  0.00    -0.305 NA
ATOM      9  C   UNL     1      -3.970   0.729  24.786  0.00  0.00    +0.060 C 
ATOM     12  C   UNL     1      -5.377   0.852  25.376  0.00  0.00    +0.034 C 
ATOM     13  C   UNL     1      -3.719   1.866  23.790  0.00  0.00    +0.034 C 
ATOM     16  C   UNL     1      -5.605   2.247  25.963  0.00  0.00    +0.085 C 
ATOM     17  C   UNL     1      -4.002   3.227  24.430  0.00  0.00    +0.085 C 
ATOM     19  C   UNL     1      -5.643   4.614  25.520  0.00  0.00    +0.104 C 
ENDBRANCH   4   9
ENDBRANCH  18  10
TORSDOF 7
ENDMDL
MODEL 3
REMARK VINA RESULT:      -1.6      1.670      2.091
REMARK  Name = 45783418
REMARK  9 active torsions:
REMARK  status: ('A' for Active; 'I' for Inactive)
REMARK    1  A    between atoms: O_2  and  C_22
REMARK    2  A    between atoms: O_2  and  C_26
REMARK    3  A    between atoms: O_3  and  C_27
REMARK    4  A    between atoms: O_3  and  C_28
REMARK    5  A    between atoms: N_4  and  C_9
REMARK    6  A    between atoms: N_5  and  C_19
REMARK    7  A    between atoms: C_10  and  C_18
REMARK    8  A    between atoms: C_20  and  C_21
REMARK    9  A    between atoms: C_26  and  C_27
REMARK                            x       y       z     vdW  Elec       q    Type
REMARK                         _______ _______ _______ _____ _____    ______ ____
ROOT
ATOM      1  O   UNL     1      14.089  -4.841  30.351  0.00  0.00    -0.336 OA
ATOM      6  N   UNL     1      15.127  -6.553  31.357  0.00  0.00    -0.190 NA
ATOM      7  N   UNL     1      13.139  -5.864  30.458  0.00  0.00    -0.056 NA
ATOM     18  C   UNL     1      15.231  -5.329  30.904  0.00  0.00    +0.245 A 
ATOM     20  C   UNL     1      13.825  -6.840  31.061  0.00  0.00    +0.207 A 
ENDROOT
BRANCH  20  21
ATOM      8  N   UNL     1      12.903 -10.443  30.842  0.00  0.00    -0.221 NA
ATOM     21  C   UNL     1      13.242  -8.110  31.379  0.00  0.00    +0.084 A 
ATOM     22  C   UNL     1      13.432  -9.227  30.581  0.00  0.00    +0.226 A 
ATOM     23  C   UNL     1      12.458  -8.251  32.518  0.00  0.00    +0.018 A 
ATOM     24  C   UNL     1      11.895  -9.485  32.820  0.00  0.00    +0.021 A 
ATOM     25  C   UNL     1      12.145 -10.540  31.958  0.00  0.00    +0.114 A 
BRANCH  22   2
ATOM      2  O   UNL     1      14.198  -9.139  29.447  0.00  0.00    -0.474 OA
BRANCH   2  26
ATOM     26  C   UNL     1      14.769 -10.350  28.966  0.00  0.00    +0.258 C 
BRANCH  26  27
ATOM     27  C   UNL     1      16.274 -10.290  29.142  0.00  0.00    +0.200 C 
BRANCH  27   3
ATOM      3  O   UNL     1      16.899 -10.755  27.950  0.00  0.00    -0.380 OA
ATOM     28  C   UNL     1      16.476 -10.013  26.816  0.00  0.00    +0.194 C 
ENDBRANCH  27   3
ENDBRANCH  26  27
ENDBRANCH   2  26
ENDBRANCH  22   2
ENDBRANCH  20  21
BRANCH  18  10
ATOM      4  N   UNL     1      16.462  -3.508  29.738  0.00  0.00    -0.288 NA
ATOM     10  C   UNL     1      16.427  -4.401  30.913  0.00  0.00    +0.146 C 
ATOM     11  C   UNL     1      17.143  -2.286  30.166  0.00  0.00    +0.085 C 
ATOM     14  C   UNL     1      16.433  -3.452  32.126  0.00  0.00    +0.030 C 
ATOM     15  C   UNL     1      16.535  -2.052  31.535  0.00  0.00    +0.017 C 
BRANCH   4   9
ATOM      5  N   UNL     1      16.879  -5.313  25.912  0.00  0.00    -0.305 NA
ATOM      9  C   UNL     1      17.103  -4.114  28.573  0.00  0.00    +0.060 C 
ATOM     12  C   UNL     1      16.826  -3.278  27.321  0.00  0.00    +0.034 C 
ATOM     13  C   UNL     1      16.611  -5.549  28.362  0.00  0.00    +0.034 C 
ATOM     16  C   UNL     1      17.405  -3.950  26.074  0.00  0.00    +0.085 C 
ATOM     17  C   UNL     1      17.197  -6.147  27.080  0.00  0.00    +0.085 C 
ATOM     19  C   UNL     1      17.403  -5.922  24.690  0.00  0.00    +0.104 C 
ENDBRANCH   4   9
ENDBRANCH  18  10
TORSDOF 7
ENDMDL
MODEL 4
REMARK VINA RESULT:      -0.7      3.383      4.158
REMARK  Name = 45783418
REMARK  9 active torsions:
REMARK  status: ('A' for Active; 'I' for Inactive)
REMARK    1  A    between atoms: O_2  and  C_22
REMARK    2  A    between atoms: O_2  and  C_26
REMARK    3  A    between atoms: O_3  and  C_27
REMARK    4  A    between atoms: O_3  and  C_28
REMARK    5  A    between atoms: N_4  and  C_9
REMARK    6  A    between atoms: N_5  and  C_19
REMARK    7  A    between atoms: C_10  and  C_18
REMARK    8  A    between atoms: C_20  and  C_21
REMARK    9  A    between atoms: C_26  and  C_27
REMARK                            x       y       z     vdW  Elec       q    Type
REMARK                         _______ _______ _______ _____ _____    ______ ____
ROOT
ATOM      1  O   UNL     1      15.224  -4.378  29.984  0.00  0.00    -0.336 OA
ATOM      6  N   UNL     1      16.933  -5.701  30.571  0.00  0.00    -0.190 NA
ATOM      7  N   UNL     1      14.679  -5.652  30.183  0.00  0.00    -0.056 NA
ATOM     18  C   UNL     1      16.555  -4.495  30.233  0.00  0.00    +0.245 A 
ATOM     20  C   UNL     1      15.748  -6.377  30.526  0.00  0.00    +0.207 A 
ENDROOT
BRANCH  20  21
ATOM      8  N   UNL     1      15.441 -10.064  30.077  0.00  0.00    -0.221 NA
ATOM     21  C   UNL     1      15.666  -7.776  30.829  0.00  0.00    +0.084 A 
ATOM     22  C   UNL     1      15.522  -8.735  29.839  0.00  0.00    +0.226 A 
ATOM     23  C   UNL     1      15.731  -8.208  32.149  0.00  0.00    +0.018 A 
ATOM     24  C   UNL     1      15.651  -9.566  32.435  0.00  0.00    +0.021 A 
ATOM     25  C   UNL     1      15.507 -10.445  31.373  0.00  0.00    +0.114 A 
BRANCH  22   2
ATOM      2  O   UNL     1      15.453  -8.359  28.522  0.00  0.00    -0.474 OA
BRANCH   2  26
ATOM     26  C   UNL     1      15.375  -9.406  27.562  0.00  0.00    +0.258 C 
BRANCH  26  27
ATOM     27  C   UNL     1      16.641  -9.405  26.727  0.00  0.00    +0.200 C 
BRANCH  27   3
ATOM      3  O   UNL     1      16.290  -9.516  25.352  0.00  0.00    -0.380 OA
ATOM     28  C   UNL     1      15.026 -10.141  25.186  0.00  0.00    +0.194 C 
ENDBRANCH  27   3
ENDBRANCH  26  27
ENDBRANCH   2  26
ENDBRANCH  22   2
ENDBRANCH  20  21
BRANCH  18  10
ATOM      4  N   UNL     1      16.882  -2.350  29.015  0.00  0.00    -0.288 NA
ATOM     10  C   UNL     1      17.382  -3.235  30.085  0.00  0.00    +0.146 C 
ATOM     11  C   UNL     1      17.236  -0.985  29.407  0.00  0.00    +0.085 C 
ATOM     14  C   UNL     1      17.367  -2.362  31.354  0.00  0.00    +0.030 C 
ATOM     15  C   UNL     1      16.905  -0.989  30.886  0.00  0.00    +0.017 C 
BRANCH   4   9
ATOM      5  N   UNL     1      16.911  -3.396  24.895  0.00  0.00    -0.305 NA
ATOM      9  C   UNL     1      17.403  -2.693  27.693  0.00  0.00    +0.060 C 
ATOM     12  C   UNL     1      16.948  -1.660  26.659  0.00  0.00    +0.034 C 
ATOM     13  C   UNL     1      16.945  -4.092  27.270  0.00  0.00    +0.034 C 
ATOM     16  C   UNL     1      17.400  -2.057  25.252  0.00  0.00    +0.085 C 
ATOM     17  C   UNL     1      17.397  -4.409  25.843  0.00  0.00    +0.085 C 
ATOM     19  C   UNL     1      17.309  -3.739  23.531  0.00  0.00    +0.104 C 
ENDBRANCH   4   9
ENDBRANCH  18  10
TORSDOF 7
ENDMDL
MODEL 5
REMARK VINA RESULT:      -0.1      2.480      4.612
REMARK  Name = 45783418
REMARK  9 active torsions:
REMARK  status: ('A' for Active; 'I' for Inactive)
REMARK    1  A    between atoms: O_2  and  C_22
REMARK    2  A    between atoms: O_2  and  C_26
REMARK    3  A    between atoms: O_3  and  C_27
REMARK    4  A    between atoms: O_3  and  C_28
REMARK    5  A    between atoms: N_4  and  C_9
REMARK    6  A    between atoms: N_5  and  C_19
REMARK    7  A    between atoms: C_10  and  C_18
REMARK    8  A    between atoms: C_20  and  C_21
REMARK    9  A    between atoms: C_26  and  C_27
REMARK                            x       y       z     vdW  Elec       q    Type
REMARK                         _______ _______ _______ _____ _____    ______ ____
ROOT
ATOM      1  O   UNL     1      15.215  -4.595  29.333  0.00  0.00    -0.336 OA
ATOM      6  N   UNL     1      16.940  -5.992  29.632  0.00  0.00    -0.190 NA
ATOM      7  N   UNL     1      14.666  -5.880  29.416  0.00  0.00    -0.056 NA
ATOM     18  C   UNL     1      16.559  -4.751  29.469  0.00  0.00    +0.245 A 
ATOM     20  C   UNL     1      15.744  -6.649  29.592  0.00  0.00    +0.207 A 
ENDROOT
BRANCH  20  21
ATOM      8  N   UNL     1      14.678 -10.014  30.787  0.00  0.00    -0.221 NA
ATOM     21  C   UNL     1      15.662  -8.074  29.730  0.00  0.00    +0.084 A 
ATOM     22  C   UNL     1      14.791  -8.676  30.624  0.00  0.00    +0.226 A 
ATOM     23  C   UNL     1      16.469  -8.897  28.953  0.00  0.00    +0.018 A 
ATOM     24  C   UNL     1      16.383 -10.277  29.093  0.00  0.00    +0.021 A 
ATOM     25  C   UNL     1      15.481 -10.781  30.015  0.00  0.00    +0.114 A 
BRANCH  22   2
ATOM      2  O   UNL     1      13.973  -7.907  31.411  0.00  0.00    -0.474 OA
BRANCH   2  26
ATOM     26  C   UNL     1      12.615  -8.318  31.515  0.00  0.00    +0.258 C 
BRANCH  26  27
ATOM     27  C   UNL     1      11.749  -7.099  31.767  0.00  0.00    +0.200 C 
BRANCH  27   3
ATOM      3  O   UNL     1      12.337  -6.317  32.802  0.00  0.00    -0.380 OA
ATOM     28  C   UNL     1      11.960  -4.952  32.700  0.00  0.00    +0.194 C 
ENDBRANCH  27   3
ENDBRANCH  26  27
ENDBRANCH   2  26
ENDBRANCH  22   2
ENDBRANCH  20  21
BRANCH  18  10
ATOM      4  N   UNL     1      16.894  -2.520  28.419  0.00  0.00    -0.288 NA
ATOM     10  C   UNL     1      17.394  -3.489  29.415  0.00  0.00    +0.146 C 
ATOM     11  C   UNL     1      17.259  -1.192  28.914  0.00  0.00    +0.085 C 
ATOM     14  C   UNL     1      17.392  -2.717  30.747  0.00  0.00    +0.030 C 
ATOM     15  C   UNL     1      16.936  -1.309  30.391  0.00  0.00    +0.017 C 
BRANCH   4   9
ATOM      5  N   UNL     1      16.891  -3.263  24.234  0.00  0.00    -0.305 NA
ATOM      9  C   UNL     1      17.404  -2.763  27.072  0.00  0.00    +0.060 C 
ATOM     12  C   UNL     1      16.935  -1.660  26.120  0.00  0.00    +0.034 C 
ATOM     13  C   UNL     1      16.950  -4.130  26.552  0.00  0.00    +0.034 C 
ATOM     16  C   UNL     1      17.376  -1.950  24.684  0.00  0.00    +0.085 C 
ATOM     17  C   UNL     1      17.392  -4.339  25.102  0.00  0.00    +0.085 C 
ATOM     19  C   UNL     1      17.279  -3.503  22.845  0.00  0.00    +0.104 C 
ENDBRANCH   4   9
ENDBRANCH  18  10
TORSDOF 7
ENDMDL
MODEL 6
REMARK VINA RESULT:       0.6     16.739     19.270
REMARK  Name = 45783418
REMARK  9 active torsions:
REMARK  status: ('A' for Active; 'I' for Inactive)
REMARK    1  A    between atoms: O_2  and  C_22
REMARK    2  A    between atoms: O_2  and  C_26
REMARK    3  A    between atoms: O_3  and  C_27
REMARK    4  A    between atoms: O_3  and  C_28
REMARK    5  A    between atoms: N_4  and  C_9
REMARK    6  A    between atoms: N_5  and  C_19
REMARK    7  A    between atoms: C_10  and  C_18
REMARK    8  A    between atoms: C_20  and  C_21
REMARK    9  A    between atoms: C_26  and  C_27
REMARK                            x       y       z     vdW  Elec       q    Type
REMARK                         _______ _______ _______ _____ _____    ______ ____
ROOT
ATOM      1  O   UNL     1      -1.334   3.118  25.131  0.00  0.00    -0.336 OA
ATOM      6  N   UNL     1      -1.262   1.612  23.474  0.00  0.00    -0.190 NA
ATOM      7  N   UNL     1       0.020   2.823  24.931  0.00  0.00    -0.056 NA
ATOM     18  C   UNL     1      -2.020   2.362  24.233  0.00  0.00    +0.245 A 
ATOM     20  C   UNL     1      -0.018   1.928  23.939  0.00  0.00    +0.207 A 
ENDROOT
BRANCH  20  21
ATOM      8  N   UNL     1       2.240  -0.520  22.268  0.00  0.00    -0.221 NA
ATOM     21  C   UNL     1       1.165   1.332  23.393  0.00  0.00    +0.084 A 
ATOM     22  C   UNL     1       1.150   0.080  22.797  0.00  0.00    +0.226 A 
ATOM     23  C   UNL     1       2.378   2.010  23.449  0.00  0.00    +0.018 A 
ATOM     24  C   UNL     1       3.521   1.425  22.917  0.00  0.00    +0.021 A 
ATOM     25  C   UNL     1       3.400   0.170  22.343  0.00  0.00    +0.114 A 
BRANCH  22   2
ATOM      2  O   UNL     1      -0.021  -0.628  22.717  0.00  0.00    -0.474 OA
BRANCH   2  26
ATOM     26  C   UNL     1      -0.226  -1.638  23.697  0.00  0.00    +0.258 C 
BRANCH  26  27
ATOM     27  C   UNL     1      -0.511  -0.979  25.033  0.00  0.00    +0.200 C 
BRANCH  27   3
ATOM      3  O   UNL     1      -0.164  -1.881  26.079  0.00  0.00    -0.380 OA
ATOM     28  C   UNL     1       0.439  -3.061  25.570  0.00  0.00    +0.194 C 
ENDBRANCH  27   3
ENDBRANCH  26  27
ENDBRANCH   2  26
ENDBRANCH  22   2
ENDBRANCH  20  21
BRANCH  18  10
ATOM      4  N   UNL     1      -4.147   1.850  25.418  0.00  0.00    -0.288 NA
ATOM     10  C   UNL     1      -3.527   2.501  24.246  0.00  0.00    +0.146 C 
ATOM     11  C   UNL     1      -5.371   2.598  25.707  0.00  0.00    +0.085 C 
ATOM     14  C   UNL     1      -3.988   3.968  24.325  0.00  0.00    +0.030 C 
ATOM     15  C   UNL     1      -4.911   4.031  25.533  0.00  0.00    +0.017 C 
BRANCH   4   9
ATOM      5  N   UNL     1      -3.450  -2.224  24.429  0.00  0.00    -0.305 NA
ATOM      9  C   UNL     1      -4.409   0.427  25.215  0.00  0.00    +0.060 C 
ATOM     12  C   UNL     1      -3.498  -0.413  26.115  0.00  0.00    +0.034 C 
ATOM     13  C   UNL     1      -4.200   0.035  23.749  0.00  0.00    +0.034 C 
ATOM     16  C   UNL     1      -3.687  -1.907  25.844  0.00  0.00    +0.085 C 
ATOM     17  C   UNL     1      -4.365  -1.474  23.556  0.00  0.00    +0.085 C 
ATOM     19  C   UNL     1      -3.585  -3.662  24.197  0.00  0.00    +0.104 C 
ENDBRANCH   4   9
ENDBRANCH  18  10
TORSDOF 7
ENDMDL
