MODEL 1
REMARK VINA RESULT:      -5.1      0.000      0.000
REMARK  Name = 51137100
REMARK  3 active torsions:
REMARK  status: ('A' for Active; 'I' for Inactive)
REMARK    1  A    between atoms: N_2  and  C_6
REMARK    2  A    between atoms: C_5  and  C_6
REMARK    3  A    between atoms: C_7  and  C_16
REMARK                            x       y       z     vdW  Elec       q    Type
REMARK                         _______ _______ _______ _____ _____    ______ ____
ROOT
ATOM      2  N   UNL     1       0.907  -0.287  23.629  0.00  0.00    -0.301 NA
ATOM      7  C   UNL     1      -0.825   0.305  25.097  0.00  0.00    +0.070 C 
ATOM      8  C   UNL     1       0.091   0.871  24.002  0.00  0.00    +0.095 C 
ATOM      9  C   UNL     1      -0.034  -1.405  23.563  0.00  0.00    +0.085 C 
ATOM     12  C   UNL     1      -0.887  -1.205  24.809  0.00  0.00    +0.028 C 
ENDROOT
BRANCH   7  16
ATOM      1  F   UNL     1      -6.349   4.995  25.594  0.00  0.00    -0.205 F 
ATOM      3  N   UNL     1      -2.262   2.348  25.338  0.00  0.00    -0.341 N 
ATOM      4  N   UNL     1      -3.349   0.430  25.048  0.00  0.00    -0.232 NA
ATOM     16  C   UNL     1      -2.167   0.996  25.156  0.00  0.00    +0.113 A 
ATOM     17  C   UNL     1      -3.595   2.676  25.349  0.00  0.00    +0.069 A 
ATOM     18  C   UNL     1      -4.251   1.463  25.166  0.00  0.00    +0.089 A 
ATOM     19  C   UNL     1      -4.260   3.893  25.497  0.00  0.00    +0.066 A 
ATOM     20  C   UNL     1      -5.655   1.443  25.128  0.00  0.00    +0.032 A 
ATOM     21  C   UNL     1      -5.657   3.855  25.456  0.00  0.00    +0.125 A 
ATOM     22  C   UNL     1      -6.345   2.653  25.274  0.00  0.00    +0.040 A 
ATOM     23  H   UNL     1      -1.491   2.994  25.446  0.00  0.00    +0.167 HD
ENDBRANCH   7  16
BRANCH   2   6
ATOM      6  C   UNL     1       1.616  -0.085  22.374  0.00  0.00    +0.088 C 
BRANCH   6   5
ATOM      5  C   UNL     1       3.122  -0.263  22.566  0.00  0.00    +0.003 C 
ATOM     10  C   UNL     1       3.410  -1.347  23.614  0.00  0.00    +0.005 C 
ATOM     11  C   UNL     1       3.779   1.067  22.960  0.00  0.00    +0.005 C 
ATOM     13  C   UNL     1       4.907  -1.507  23.863  0.00  0.00    +0.000 C 
ATOM     14  C   UNL     1       5.277   0.902  23.210  0.00  0.00    +0.000 C 
ATOM     15  C   UNL     1       5.559  -0.182  24.246  0.00  0.00    +0.000 C 
ENDBRANCH   6   5
ENDBRANCH   2   6
TORSDOF 3
ENDMDL
MODEL 2
REMARK VINA RESULT:      -4.3     14.645     16.844
REMARK  Name = 51137100
REMARK  3 active torsions:
REMARK  status: ('A' for Active; 'I' for Inactive)
REMARK    1  A    between atoms: N_2  and  C_6
REMARK    2  A    between atoms: C_5  and  C_6
REMARK    3  A    between atoms: C_7  and  C_16
REMARK                            x       y       z     vdW  Elec       q    Type
REMARK                         _______ _______ _______ _____ _____    ______ ____
ROOT
ATOM      2  N   UNL     1      -2.711 -10.730  15.765  0.00  0.00    -0.301 NA
ATOM      7  C   UNL     1      -3.005 -10.781  13.439  0.00  0.00    +0.070 C 
ATOM      8  C   UNL     1      -3.780 -10.777  14.764  0.00  0.00    +0.095 C 
ATOM      9  C   UNL     1      -1.754  -9.752  15.249  0.00  0.00    +0.085 C 
ATOM     12  C   UNL     1      -1.658 -10.117  13.773  0.00  0.00    +0.028 C 
ENDROOT
BRANCH   7  16
ATOM      1  F   UNL     1      -7.970  -7.806   9.049  0.00  0.00    -0.205 F 
ATOM      3  N   UNL     1      -5.107  -9.872  12.414  0.00  0.00    -0.341 N 
ATOM      4  N   UNL     1      -3.285  -9.754  11.146  0.00  0.00    -0.232 NA
ATOM     16  C   UNL     1      -3.769 -10.132  12.308  0.00  0.00    +0.113 A 
ATOM     17  C   UNL     1      -5.513  -9.286  11.241  0.00  0.00    +0.069 A 
ATOM     18  C   UNL     1      -4.359  -9.224  10.467  0.00  0.00    +0.089 A 
ATOM     19  C   UNL     1      -6.754  -8.820  10.805  0.00  0.00    +0.066 A 
ATOM     20  C   UNL     1      -4.426  -8.669   9.179  0.00  0.00    +0.032 A 
ATOM     21  C   UNL     1      -6.803  -8.269   9.520  0.00  0.00    +0.125 A 
ATOM     22  C   UNL     1      -5.661  -8.193   8.720  0.00  0.00    +0.040 A 
ATOM     23  H   UNL     1      -5.696 -10.072  13.211  0.00  0.00    +0.167 HD
ENDBRANCH   7  16
BRANCH   2   6
ATOM      6  C   UNL     1      -3.206 -10.376  17.088  0.00  0.00    +0.088 C 
BRANCH   6   5
ATOM      5  C   UNL     1      -4.716 -10.593  17.179  0.00  0.00    +0.003 C 
ATOM     10  C   UNL     1      -5.461  -9.611  16.265  0.00  0.00    +0.005 C 
ATOM     11  C   UNL     1      -5.196 -10.459  18.631  0.00  0.00    +0.005 C 
ATOM     13  C   UNL     1      -6.975  -9.772  16.379  0.00  0.00    +0.000 C 
ATOM     14  C   UNL     1      -6.710 -10.620  18.741  0.00  0.00    +0.000 C 
ATOM     15  C   UNL     1      -7.447  -9.648  17.824  0.00  0.00    +0.000 C 
ENDBRANCH   6   5
ENDBRANCH   2   6
TORSDOF 3
ENDMDL
MODEL 3
REMARK VINA RESULT:      -4.2     14.811     17.209
REMARK  Name = 51137100
REMARK  3 active torsions:
REMARK  status: ('A' for Active; 'I' for Inactive)
REMARK    1  A    between atoms: N_2  and  C_6
REMARK    2  A    between atoms: C_5  and  C_6
REMARK    3  A    between atoms: C_7  and  C_16
REMARK                            x       y       z     vdW  Elec       q    Type
REMARK                         _______ _______ _______ _____ _____    ______ ____
ROOT
ATOM      2  N   UNL     1      -5.477 -10.461  16.965  0.00  0.00    -0.301 NA
ATOM      7  C   UNL     1      -4.826 -10.781  14.735  0.00  0.00    +0.070 C 
ATOM      8  C   UNL     1      -6.050 -10.497  15.617  0.00  0.00    +0.095 C 
ATOM      9  C   UNL     1      -4.238  -9.697  16.828  0.00  0.00    +0.085 C 
ATOM     12  C   UNL     1      -3.629 -10.266  15.552  0.00  0.00    +0.028 C 
ENDROOT
BRANCH   7  16
ATOM      1  F   UNL     1      -6.970  -7.584   8.575  0.00  0.00    -0.205 F 
ATOM      3  N   UNL     1      -6.112  -9.606  12.928  0.00  0.00    -0.341 N 
ATOM      4  N   UNL     1      -4.020 -10.161  12.421  0.00  0.00    -0.232 NA
ATOM     16  C   UNL     1      -4.950 -10.192  13.349  0.00  0.00    +0.113 A 
ATOM     17  C   UNL     1      -5.918  -9.170  11.642  0.00  0.00    +0.069 A 
ATOM     18  C   UNL     1      -4.606  -9.528  11.348  0.00  0.00    +0.089 A 
ATOM     19  C   UNL     1      -6.754  -8.513  10.738  0.00  0.00    +0.066 A 
ATOM     20  C   UNL     1      -4.079  -9.222  10.083  0.00  0.00    +0.032 A 
ATOM     21  C   UNL     1      -6.212  -8.214   9.483  0.00  0.00    +0.125 A 
ATOM     22  C   UNL     1      -4.898  -8.561   9.159  0.00  0.00    +0.040 A 
ATOM     23  H   UNL     1      -6.963  -9.510  13.465  0.00  0.00    +0.167 HD
ENDBRANCH   7  16
BRANCH   2   6
ATOM      6  C   UNL     1      -6.386  -9.872  17.938  0.00  0.00    +0.088 C 
BRANCH   6   5
ATOM      5  C   UNL     1      -7.837 -10.011  17.480  0.00  0.00    +0.003 C 
ATOM     10  C   UNL     1      -8.352  -8.685  16.902  0.00  0.00    +0.005 C 
ATOM     11  C   UNL     1      -8.728 -10.485  18.636  0.00  0.00    +0.005 C 
ATOM     13  C   UNL     1      -9.818  -8.783  16.486  0.00  0.00    +0.000 C 
ATOM     14  C   UNL     1     -10.193 -10.580  18.216  0.00  0.00    +0.000 C 
ATOM     15  C   UNL     1     -10.699  -9.263  17.635  0.00  0.00    +0.000 C 
ENDBRANCH   6   5
ENDBRANCH   2   6
TORSDOF 3
ENDMDL
MODEL 4
REMARK VINA RESULT:      -4.2      3.382      6.563
REMARK  Name = 51137100
REMARK  3 active torsions:
REMARK  status: ('A' for Active; 'I' for Inactive)
REMARK    1  A    between atoms: N_2  and  C_6
REMARK    2  A    between atoms: C_5  and  C_6
REMARK    3  A    between atoms: C_7  and  C_16
REMARK                            x       y       z     vdW  Elec       q    Type
REMARK                         _______ _______ _______ _____ _____    ______ ____
ROOT
ATOM      2  N   UNL     1      -0.428   3.958  25.296  0.00  0.00    -0.301 NA
ATOM      7  C   UNL     1      -0.338   1.615  25.372  0.00  0.00    +0.070 C 
ATOM      8  C   UNL     1      -1.220   2.813  25.752  0.00  0.00    +0.095 C 
ATOM      9  C   UNL     1       0.083   3.564  23.983  0.00  0.00    +0.085 C 
ATOM     12  C   UNL     1       0.535   2.127  24.213  0.00  0.00    +0.028 C 
ENDROOT
BRANCH   7  16
ATOM      1  F   UNL     1      -5.377  -3.275  23.513  0.00  0.00    -0.205 F 
ATOM      3  N   UNL     1      -2.429   0.447  24.626  0.00  0.00    -0.341 N 
ATOM      4  N   UNL     1      -0.725  -0.874  25.166  0.00  0.00    -0.232 NA
ATOM     16  C   UNL     1      -1.136   0.370  25.063  0.00  0.00    +0.113 A 
ATOM     17  C   UNL     1      -2.883  -0.834  24.434  0.00  0.00    +0.069 A 
ATOM     18  C   UNL     1      -1.801  -1.639  24.777  0.00  0.00    +0.089 A 
ATOM     19  C   UNL     1      -4.109  -1.341  24.002  0.00  0.00    +0.066 A 
ATOM     20  C   UNL     1      -1.932  -3.035  24.693  0.00  0.00    +0.032 A 
ATOM     21  C   UNL     1      -4.221  -2.732  23.922  0.00  0.00    +0.125 A 
ATOM     22  C   UNL     1      -3.153  -3.567  24.260  0.00  0.00    +0.040 A 
ATOM     23  H   UNL     1      -2.961   1.293  24.470  0.00  0.00    +0.167 HD
ENDBRANCH   7  16
BRANCH   2   6
ATOM      6  C   UNL     1      -1.209   5.185  25.241  0.00  0.00    +0.088 C 
BRANCH   6   5
ATOM      5  C   UNL     1      -2.695   4.877  25.062  0.00  0.00    +0.003 C 
ATOM     10  C   UNL     1      -3.273   4.243  26.335  0.00  0.00    +0.005 C 
ATOM     11  C   UNL     1      -2.917   3.963  23.849  0.00  0.00    +0.005 C 
ATOM     13  C   UNL     1      -4.744   3.875  26.164  0.00  0.00    +0.000 C 
ATOM     14  C   UNL     1      -4.390   3.597  23.682  0.00  0.00    +0.000 C 
ATOM     15  C   UNL     1      -4.963   2.975  24.952  0.00  0.00    +0.000 C 
ENDBRANCH   6   5
ENDBRANCH   2   6
TORSDOF 3
ENDMDL
MODEL 5
REMARK VINA RESULT:      -2.8      3.223      7.353
REMARK  Name = 51137100
REMARK  3 active torsions:
REMARK  status: ('A' for Active; 'I' for Inactive)
REMARK    1  A    between atoms: N_2  and  C_6
REMARK    2  A    between atoms: C_5  and  C_6
REMARK    3  A    between atoms: C_7  and  C_16
REMARK                            x       y       z     vdW  Elec       q    Type
REMARK                         _______ _______ _______ _____ _____    ______ ____
ROOT
ATOM      2  N   UNL     1      -3.804   1.959  25.342  0.00  0.00    -0.301 NA
ATOM      7  C   UNL     1      -1.482   2.117  25.045  0.00  0.00    +0.070 C 
ATOM      8  C   UNL     1      -2.615   1.106  25.274  0.00  0.00    +0.095 C 
ATOM      9  C   UNL     1      -3.633   2.930  24.262  0.00  0.00    +0.085 C 
ATOM     12  C   UNL     1      -2.169   3.329  24.392  0.00  0.00    +0.028 C 
ENDROOT
BRANCH   7  16
ATOM      1  F   UNL     1       4.962   0.441  22.142  0.00  0.00    -0.205 F 
ATOM      3  N   UNL     1       0.950   1.991  24.439  0.00  0.00    -0.341 N 
ATOM      4  N   UNL     1      -0.391   0.590  23.352  0.00  0.00    -0.232 NA
ATOM     16  C   UNL     1      -0.328   1.541  24.258  0.00  0.00    +0.113 A 
ATOM     17  C   UNL     1       1.767   1.284  23.593  0.00  0.00    +0.069 A 
ATOM     18  C   UNL     1       0.907   0.418  22.926  0.00  0.00    +0.089 A 
ATOM     19  C   UNL     1       3.142   1.328  23.362  0.00  0.00    +0.066 A 
ATOM     20  C   UNL     1       1.431  -0.465  21.967  0.00  0.00    +0.032 A 
ATOM     21  C   UNL     1       3.648   0.443  22.405  0.00  0.00    +0.125 A 
ATOM     22  C   UNL     1       2.809  -0.439  21.719  0.00  0.00    +0.040 A 
ATOM     23  H   UNL     1       1.245   2.715  25.081  0.00  0.00    +0.167 HD
ENDBRANCH   7  16
BRANCH   2   6
ATOM      6  C   UNL     1      -5.039   1.199  25.215  0.00  0.00    +0.088 C 
BRANCH   6   5
ATOM      5  C   UNL     1      -4.748  -0.297  25.103  0.00  0.00    +0.003 C 
ATOM     10  C   UNL     1      -3.644  -0.709  26.086  0.00  0.00    +0.005 C 
ATOM     11  C   UNL     1      -4.363  -0.668  23.664  0.00  0.00    +0.005 C 
ATOM     13  C   UNL     1      -3.297  -2.190  25.956  0.00  0.00    +0.000 C 
ATOM     14  C   UNL     1      -4.015  -2.149  23.538  0.00  0.00    +0.000 C 
ATOM     15  C   UNL     1      -2.924  -2.557  24.523  0.00  0.00    +0.000 C 
ENDBRANCH   6   5
ENDBRANCH   2   6
TORSDOF 3
ENDMDL
MODEL 6
REMARK VINA RESULT:      -2.5     15.859     17.634
REMARK  Name = 51137100
REMARK  3 active torsions:
REMARK  status: ('A' for Active; 'I' for Inactive)
REMARK    1  A    between atoms: N_2  and  C_6
REMARK    2  A    between atoms: C_5  and  C_6
REMARK    3  A    between atoms: C_7  and  C_16
REMARK                            x       y       z     vdW  Elec       q    Type
REMARK                         _______ _______ _______ _____ _____    ______ ____
ROOT
ATOM      2  N   UNL     1      -2.564 -10.649  12.962  0.00  0.00    -0.301 NA
ATOM      7  C   UNL     1      -3.858 -10.430  11.017  0.00  0.00    +0.070 C 
ATOM      8  C   UNL     1      -3.951 -10.781  12.509  0.00  0.00    +0.095 C 
ATOM      9  C   UNL     1      -2.076  -9.426  12.327  0.00  0.00    +0.085 C 
ATOM     12  C   UNL     1      -2.602  -9.548  10.903  0.00  0.00    +0.028 C 
ENDROOT
BRANCH   7  16
ATOM      1  F   UNL     1     -10.659  -8.248   9.694  0.00  0.00    -0.205 F 
ATOM      3  N   UNL     1      -6.335 -10.036  11.070  0.00  0.00    -0.341 N 
ATOM      4  N   UNL     1      -5.228  -9.008   9.439  0.00  0.00    -0.232 NA
ATOM     16  C   UNL     1      -5.124  -9.806  10.479  0.00  0.00    +0.113 A 
ATOM     17  C   UNL     1      -7.284  -9.340  10.363  0.00  0.00    +0.069 A 
ATOM     18  C   UNL     1      -6.568  -8.709   9.351  0.00  0.00    +0.089 A 
ATOM     19  C   UNL     1      -8.665  -9.215  10.519  0.00  0.00    +0.066 A 
ATOM     20  C   UNL     1      -7.253  -7.900   8.429  0.00  0.00    +0.032 A 
ATOM     21  C   UNL     1      -9.331  -8.405   9.593  0.00  0.00    +0.125 A 
ATOM     22  C   UNL     1      -8.639  -7.758   8.566  0.00  0.00    +0.040 A 
ATOM     23  H   UNL     1      -6.506 -10.614  11.882  0.00  0.00    +0.167 HD
ENDBRANCH   7  16
BRANCH   2   6
ATOM      6  C   UNL     1      -2.457 -10.602  14.413  0.00  0.00    +0.088 C 
BRANCH   6   5
ATOM      5  C   UNL     1      -3.827 -10.780  15.065  0.00  0.00    +0.003 C 
ATOM     10  C   UNL     1      -4.902 -10.012  14.286  0.00  0.00    +0.005 C 
ATOM     11  C   UNL     1      -3.791 -10.332  16.533  0.00  0.00    +0.005 C 
ATOM     13  C   UNL     1      -6.273 -10.130  14.949  0.00  0.00    +0.000 C 
ATOM     14  C   UNL     1      -5.163 -10.451  17.192  0.00  0.00    +0.000 C 
ATOM     15  C   UNL     1      -6.231  -9.692  16.409  0.00  0.00    +0.000 C 
ENDBRANCH   6   5
ENDBRANCH   2   6
TORSDOF 3
ENDMDL
MODEL 7
REMARK VINA RESULT:      -2.5      3.282      7.752
REMARK  Name = 51137100
REMARK  3 active torsions:
REMARK  status: ('A' for Active; 'I' for Inactive)
REMARK    1  A    between atoms: N_2  and  C_6
REMARK    2  A    between atoms: C_5  and  C_6
REMARK    3  A    between atoms: C_7  and  C_16
REMARK                            x       y       z     vdW  Elec       q    Type
REMARK                         _______ _______ _______ _____ _____    ______ ____
ROOT
ATOM      2  N   UNL     1      -2.892  -0.261  24.616  0.00  0.00    -0.301 NA
ATOM      7  C   UNL     1      -0.858  -0.989  23.700  0.00  0.00    +0.070 C 
ATOM      8  C   UNL     1      -1.806   0.219  23.758  0.00  0.00    +0.095 C 
ATOM      9  C   UNL     1      -2.224  -0.969  25.709  0.00  0.00    +0.085 C 
ATOM     12  C   UNL     1      -1.156  -1.779  24.986  0.00  0.00    +0.028 C 
ENDROOT
BRANCH   7  16
ATOM      1  F   UNL     1       6.391  -0.594  23.475  0.00  0.00    -0.205 F 
ATOM      3  N   UNL     1       1.605  -1.435  23.875  0.00  0.00    -0.341 N 
ATOM      4  N   UNL     1       1.039   0.539  23.023  0.00  0.00    -0.232 NA
ATOM     16  C   UNL     1       0.588  -0.593  23.518  0.00  0.00    +0.113 A 
ATOM     17  C   UNL     1       2.790  -0.804  23.592  0.00  0.00    +0.069 A 
ATOM     18  C   UNL     1       2.410   0.425  23.062  0.00  0.00    +0.089 A 
ATOM     19  C   UNL     1       4.121  -1.192  23.751  0.00  0.00    +0.066 A 
ATOM     20  C   UNL     1       3.402   1.335  22.661  0.00  0.00    +0.032 A 
ATOM     21  C   UNL     1       5.096  -0.275  23.345  0.00  0.00    +0.125 A 
ATOM     22  C   UNL     1       4.745   0.967  22.809  0.00  0.00    +0.040 A 
ATOM     23  H   UNL     1       1.506  -2.358  24.276  0.00  0.00    +0.167 HD
ENDBRANCH   7  16
BRANCH   2   6
ATOM      6  C   UNL     1      -3.740   0.821  25.094  0.00  0.00    +0.088 C 
BRANCH   6   5
ATOM      5  C   UNL     1      -3.132   2.180  24.752  0.00  0.00    +0.003 C 
ATOM     10  C   UNL     1      -1.921   2.472  25.648  0.00  0.00    +0.005 C 
ATOM     11  C   UNL     1      -4.184   3.291  24.875  0.00  0.00    +0.005 C 
ATOM     13  C   UNL     1      -1.327   3.850  25.362  0.00  0.00    +0.000 C 
ATOM     14  C   UNL     1      -3.586   4.667  24.590  0.00  0.00    +0.000 C 
ATOM     15  C   UNL     1      -2.377   4.950  25.477  0.00  0.00    +0.000 C 
ENDBRANCH   6   5
ENDBRANCH   2   6
TORSDOF 3
ENDMDL
MODEL 8
REMARK VINA RESULT:      -1.5      3.263      8.723
REMARK  Name = 51137100
REMARK  3 active torsions:
REMARK  status: ('A' for Active; 'I' for Inactive)
REMARK    1  A    between atoms: N_2  and  C_6
REMARK    2  A    between atoms: C_5  and  C_6
REMARK    3  A    between atoms: C_7  and  C_16
REMARK                            x       y       z     vdW  Elec       q    Type
REMARK                         _______ _______ _______ _____ _____    ______ ____
ROOT
ATOM      2  N   UNL     1      -1.675   1.269  24.199  0.00  0.00    -0.301 NA
ATOM      7  C   UNL     1       0.116   0.178  23.149  0.00  0.00    +0.070 C 
ATOM      8  C   UNL     1      -0.295   1.518  23.775  0.00  0.00    +0.095 C 
ATOM      9  C   UNL     1      -1.649  -0.065  24.799  0.00  0.00    +0.085 C 
ATOM     12  C   UNL     1      -0.799  -0.862  23.819  0.00  0.00    +0.028 C 
ENDROOT
BRANCH   7  16
ATOM      1  F   UNL     1       7.374   0.428  23.301  0.00  0.00    -0.205 F 
ATOM      3  N   UNL     1       2.526   0.868  23.022  0.00  0.00    -0.341 N 
ATOM      4  N   UNL     1       2.154  -1.239  23.627  0.00  0.00    -0.232 NA
ATOM     16  C   UNL     1       1.596  -0.102  23.277  0.00  0.00    +0.113 A 
ATOM     17  C   UNL     1       3.768   0.318  23.221  0.00  0.00    +0.069 A 
ATOM     18  C   UNL     1       3.508  -0.996  23.597  0.00  0.00    +0.089 A 
ATOM     19  C   UNL     1       5.055   0.844  23.108  0.00  0.00    +0.066 A 
ATOM     20  C   UNL     1       4.585  -1.853  23.880  0.00  0.00    +0.032 A 
ATOM     21  C   UNL     1       6.115  -0.022  23.394  0.00  0.00    +0.125 A 
ATOM     22  C   UNL     1       5.887  -1.347  23.774  0.00  0.00    +0.040 A 
ATOM     23  H   UNL     1       2.337   1.820  22.738  0.00  0.00    +0.167 HD
ENDBRANCH   7  16
BRANCH   2   6
ATOM      6  C   UNL     1      -2.163   2.283  25.123  0.00  0.00    +0.088 C 
BRANCH   6   5
ATOM      5  C   UNL     1      -3.640   2.582  24.872  0.00  0.00    +0.003 C 
ATOM     10  C   UNL     1      -4.127   3.714  25.787  0.00  0.00    +0.005 C 
ATOM     11  C   UNL     1      -4.489   1.318  25.067  0.00  0.00    +0.005 C 
ATOM     13  C   UNL     1      -5.615   3.995  25.593  0.00  0.00    +0.000 C 
ATOM     14  C   UNL     1      -5.977   1.605  24.873  0.00  0.00    +0.000 C 
ATOM     15  C   UNL     1      -6.455   2.736  25.779  0.00  0.00    +0.000 C 
ENDBRANCH   6   5
ENDBRANCH   2   6
TORSDOF 3
ENDMDL
MODEL 9
REMARK VINA RESULT:      -1.1     16.328     17.507
REMARK  Name = 51137100
REMARK  3 active torsions:
REMARK  status: ('A' for Active; 'I' for Inactive)
REMARK    1  A    between atoms: N_2  and  C_6
REMARK    2  A    between atoms: C_5  and  C_6
REMARK    3  A    between atoms: C_7  and  C_16
REMARK                            x       y       z     vdW  Elec       q    Type
REMARK                         _______ _______ _______ _____ _____    ______ ____
ROOT
ATOM      2  N   UNL     1      -2.534 -10.170  11.358  0.00  0.00    -0.301 NA
ATOM      7  C   UNL     1      -4.615 -10.513  10.331  0.00  0.00    +0.070 C 
ATOM      8  C   UNL     1      -3.954 -10.283  11.698  0.00  0.00    +0.095 C 
ATOM      9  C   UNL     1      -2.499  -9.333  10.159  0.00  0.00    +0.085 C 
ATOM     12  C   UNL     1      -3.635  -9.898   9.317  0.00  0.00    +0.028 C 
ENDROOT
BRANCH   7  16
ATOM      1  F   UNL     1     -10.719  -6.841   8.909  0.00  0.00    -0.205 F 
ATOM      3  N   UNL     1      -6.338  -8.911   9.458  0.00  0.00    -0.341 N 
ATOM      4  N   UNL     1      -7.073 -10.421  10.915  0.00  0.00    -0.232 NA
ATOM     16  C   UNL     1      -6.024  -9.973  10.260  0.00  0.00    +0.113 A 
ATOM     17  C   UNL     1      -7.679  -8.657   9.606  0.00  0.00    +0.069 A 
ATOM     18  C   UNL     1      -8.113  -9.611  10.520  0.00  0.00    +0.089 A 
ATOM     19  C   UNL     1      -8.521  -7.702   9.035  0.00  0.00    +0.066 A 
ATOM     20  C   UNL     1      -9.465  -9.630  10.900  0.00  0.00    +0.032 A 
ATOM     21  C   UNL     1      -9.864  -7.735   9.424  0.00  0.00    +0.125 A 
ATOM     22  C   UNL     1     -10.330  -8.682  10.340  0.00  0.00    +0.040 A 
ATOM     23  H   UNL     1      -5.700  -8.402   8.861  0.00  0.00    +0.167 HD
ENDBRANCH   7  16
BRANCH   2   6
ATOM      6  C   UNL     1      -1.746  -9.612  12.447  0.00  0.00    +0.088 C 
BRANCH   6   5
ATOM      5  C   UNL     1      -0.737  -8.592  11.921  0.00  0.00    +0.003 C 
ATOM     10  C   UNL     1       0.372  -9.290  11.122  0.00  0.00    +0.005 C 
ATOM     11  C   UNL     1      -0.145  -7.771  13.075  0.00  0.00    +0.005 C 
ATOM     13  C   UNL     1       1.422  -8.297  10.631  0.00  0.00    +0.000 C 
ATOM     14  C   UNL     1       0.906  -6.780  12.579  0.00  0.00    +0.000 C 
ATOM     15  C   UNL     1       2.002  -7.476  11.778  0.00  0.00    +0.000 C 
ENDBRANCH   6   5
ENDBRANCH   2   6
TORSDOF 3
ENDMDL
