MODEL 1
REMARK VINA RESULT:      -2.1      0.000      0.000
REMARK  Name = 40779189
REMARK  7 active torsions:
REMARK  status: ('A' for Active; 'I' for Inactive)
REMARK    1  A    between atoms: S_1  and  N_6
REMARK    2  A    between atoms: S_1  and  C_21
REMARK    3  A    between atoms: N_5  and  C_19
REMARK    4  A    between atoms: N_6  and  C_15
REMARK    5  A    between atoms: C_9  and  C_16
REMARK    6  A    between atoms: C_10  and  C_15
REMARK    7  A    between atoms: C_18  and  C_20
REMARK                            x       y       z     vdW  Elec       q    Type
REMARK                         _______ _______ _______ _____ _____    ______ ____
ROOT
ATOM      4  N   UNL     1      11.408  -6.402  31.798  0.00  0.00    -0.297 NA
ATOM      8  C   UNL     1      13.902  -5.810  32.263  0.00  0.00    +0.002 C 
ATOM      9  C   UNL     1      13.625  -5.833  30.734  0.00  0.00    +0.055 C 
ATOM     10  C   UNL     1      11.997  -7.386  32.744  0.00  0.00    +0.072 C 
ATOM     11  C   UNL     1      13.521  -7.177  32.871  0.00  0.00    +0.024 C 
ATOM     12  C   UNL     1      12.948  -4.761  32.873  0.00  0.00    +0.019 C 
ATOM     13  C   UNL     1      12.185  -6.387  30.533  0.00  0.00    +0.094 C 
ATOM     14  C   UNL     1      11.509  -5.060  32.419  0.00  0.00    +0.085 C 
ENDROOT
BRANCH   9  16
ATOM      5  N   UNL     1      15.986  -6.366  29.974  0.00  0.00    -0.270 N 
ATOM      7  N   UNL     1      16.710  -7.055  29.077  0.00  0.00    -0.171 NA
ATOM     16  C   UNL     1      14.638  -6.519  29.830  0.00  0.00    +0.044 A 
ATOM     17  C   UNL     1      14.469  -7.368  28.764  0.00  0.00    +0.053 A 
ATOM     18  C   UNL     1      15.778  -7.666  28.339  0.00  0.00    +0.093 A 
ATOM     19  C   UNL     1      16.667  -5.561  30.961  0.00  0.00    +0.172 C 
BRANCH  18  20
ATOM     20  C   UNL     1      16.155  -8.521  27.244  0.00  0.00    +0.002 A 
ATOM     22  C   UNL     1      16.242  -9.899  27.435  0.00  0.00    +0.010 A 
ATOM     23  C   UNL     1      16.431  -7.970  25.992  0.00  0.00    +0.010 A 
ATOM     24  C   UNL     1      16.608 -10.729  26.374  0.00  0.00    +0.001 A 
ATOM     25  C   UNL     1      16.795  -8.799  24.931  0.00  0.00    +0.001 A 
ATOM     26  C   UNL     1      16.883 -10.178  25.122  0.00  0.00    +0.000 A 
ENDBRANCH  18  20
ENDBRANCH   9  16
BRANCH  10  15
ATOM     15  C   UNL     1      11.649  -8.830  32.375  0.00  0.00    +0.124 C 
BRANCH  15   6
ATOM      6  N   UNL     1      10.300  -9.146  32.872  0.00  0.00    -0.193 NA
ATOM     27  H   UNL     1      10.052  -8.645  33.735  0.00  0.00    +0.148 HD
BRANCH   6   1
ATOM      1  S   UNL     1       9.034  -9.393  31.751  0.00  0.00    +0.027 S 
ATOM      2  O   UNL     1       9.417 -10.413  30.795  0.00  0.00    -0.158 OA
ATOM      3  O   UNL     1       8.556  -8.099  31.304  0.00  0.00    -0.158 OA
ATOM     21  C   UNL     1       7.787 -10.080  32.816  0.00  0.00    +0.214 C 
ENDBRANCH   6   1
ENDBRANCH  15   6
ENDBRANCH  10  15
TORSDOF 5
ENDMDL
MODEL 2
REMARK VINA RESULT:      -0.8     17.237     19.439
REMARK  Name = 40779189
REMARK  7 active torsions:
REMARK  status: ('A' for Active; 'I' for Inactive)
REMARK    1  A    between atoms: S_1  and  N_6
REMARK    2  A    between atoms: S_1  and  C_21
REMARK    3  A    between atoms: N_5  and  C_19
REMARK    4  A    between atoms: N_6  and  C_15
REMARK    5  A    between atoms: C_9  and  C_16
REMARK    6  A    between atoms: C_10  and  C_15
REMARK    7  A    between atoms: C_18  and  C_20
REMARK                            x       y       z     vdW  Elec       q    Type
REMARK                         _______ _______ _______ _____ _____    ______ ____
ROOT
ATOM      4  N   UNL     1      -4.990   2.655  26.210  0.00  0.00    -0.297 NA
ATOM      8  C   UNL     1      -4.995   1.304  23.983  0.00  0.00    +0.002 C 
ATOM      9  C   UNL     1      -4.044   0.642  25.018  0.00  0.00    +0.055 C 
ATOM     10  C   UNL     1      -4.769   3.570  25.059  0.00  0.00    +0.072 C 
ATOM     11  C   UNL     1      -4.562   2.768  23.756  0.00  0.00    +0.024 C 
ATOM     12  C   UNL     1      -6.398   1.340  24.626  0.00  0.00    +0.019 C 
ATOM     13  C   UNL     1      -3.939   1.607  26.234  0.00  0.00    +0.094 C 
ATOM     14  C   UNL     1      -6.301   1.991  26.016  0.00  0.00    +0.085 C 
ENDROOT
BRANCH   9  16
ATOM      5  N   UNL     1      -2.296  -1.142  24.569  0.00  0.00    -0.270 N 
ATOM      7  N   UNL     1      -1.054  -1.355  24.103  0.00  0.00    -0.171 NA
ATOM     16  C   UNL     1      -2.680   0.167  24.539  0.00  0.00    +0.044 A 
ATOM     17  C   UNL     1      -1.615   0.858  24.016  0.00  0.00    +0.053 A 
ATOM     18  C   UNL     1      -0.642  -0.129  23.766  0.00  0.00    +0.093 A 
ATOM     19  C   UNL     1      -3.074  -2.263  25.042  0.00  0.00    +0.172 C 
BRANCH  18  20
ATOM     20  C   UNL     1       0.671   0.076  23.213  0.00  0.00    +0.002 A 
ATOM     22  C   UNL     1       1.063  -0.624  22.072  0.00  0.00    +0.010 A 
ATOM     23  C   UNL     1       1.549   0.976  23.817  0.00  0.00    +0.010 A 
ATOM     24  C   UNL     1       2.336  -0.426  21.536  0.00  0.00    +0.001 A 
ATOM     25  C   UNL     1       2.821   1.174  23.280  0.00  0.00    +0.001 A 
ATOM     26  C   UNL     1       3.214   0.474  22.140  0.00  0.00    +0.000 A 
ENDBRANCH  18  20
ENDBRANCH   9  16
BRANCH  10  15
ATOM     15  C   UNL     1      -3.625   4.555  25.309  0.00  0.00    +0.124 C 
BRANCH  15   6
ATOM      6  N   UNL     1      -2.589   4.365  24.280  0.00  0.00    -0.193 NA
ATOM     27  H   UNL     1      -2.820   4.801  23.378  0.00  0.00    +0.148 HD
BRANCH   6   1
ATOM      1  S   UNL     1      -0.943   4.401  24.736  0.00  0.00    +0.027 S 
ATOM      2  O   UNL     1      -0.574   5.745  25.137  0.00  0.00    -0.158 OA
ATOM      3  O   UNL     1      -0.172   3.687  23.737  0.00  0.00    -0.158 OA
ATOM     21  C   UNL     1      -0.988   3.386  26.196  0.00  0.00    +0.214 C 
ENDBRANCH   6   1
ENDBRANCH  15   6
ENDBRANCH  10  15
TORSDOF 5
ENDMDL
MODEL 3
REMARK VINA RESULT:      -0.5     16.117     17.951
REMARK  Name = 40779189
REMARK  7 active torsions:
REMARK  status: ('A' for Active; 'I' for Inactive)
REMARK    1  A    between atoms: S_1  and  N_6
REMARK    2  A    between atoms: S_1  and  C_21
REMARK    3  A    between atoms: N_5  and  C_19
REMARK    4  A    between atoms: N_6  and  C_15
REMARK    5  A    between atoms: C_9  and  C_16
REMARK    6  A    between atoms: C_10  and  C_15
REMARK    7  A    between atoms: C_18  and  C_20
REMARK                            x       y       z     vdW  Elec       q    Type
REMARK                         _______ _______ _______ _____ _____    ______ ____
ROOT
ATOM      4  N   UNL     1      -4.056   2.841  24.156  0.00  0.00    -0.297 NA
ATOM      8  C   UNL     1      -1.896   2.969  25.607  0.00  0.00    +0.002 C 
ATOM      9  C   UNL     1      -1.534   2.871  24.099  0.00  0.00    +0.055 C 
ATOM     10  C   UNL     1      -4.124   1.845  25.258  0.00  0.00    +0.072 C 
ATOM     11  C   UNL     1      -2.773   1.760  26.000  0.00  0.00    +0.024 C 
ATOM     12  C   UNL     1      -2.766   4.233  25.775  0.00  0.00    +0.019 C 
ATOM     13  C   UNL     1      -2.853   2.596  23.323  0.00  0.00    +0.094 C 
ATOM     14  C   UNL     1      -3.928   4.186  24.769  0.00  0.00    +0.085 C 
ENDROOT
BRANCH   9  16
ATOM      5  N   UNL     1      -0.598   0.887  22.822  0.00  0.00    -0.270 N 
ATOM      7  N   UNL     1       0.513   0.169  22.591  0.00  0.00    -0.171 NA
ATOM     16  C   UNL     1      -0.415   1.924  23.690  0.00  0.00    +0.044 A 
ATOM     17  C   UNL     1       0.910   1.880  24.051  0.00  0.00    +0.053 A 
ATOM     18  C   UNL     1       1.432   0.780  23.344  0.00  0.00    +0.093 A 
ATOM     19  C   UNL     1      -1.829   0.514  22.165  0.00  0.00    +0.172 C 
BRANCH  18  20
ATOM     20  C   UNL     1       2.789   0.302  23.376  0.00  0.00    +0.002 A 
ATOM     22  C   UNL     1       3.839   1.167  23.069  0.00  0.00    +0.010 A 
ATOM     23  C   UNL     1       3.054  -1.025  23.715  0.00  0.00    +0.010 A 
ATOM     24  C   UNL     1       5.156   0.704  23.099  0.00  0.00    +0.001 A 
ATOM     25  C   UNL     1       4.370  -1.487  23.745  0.00  0.00    +0.001 A 
ATOM     26  C   UNL     1       5.420  -0.622  23.438  0.00  0.00    +0.000 A 
ENDBRANCH  18  20
ENDBRANCH   9  16
BRANCH  10  15
ATOM     15  C   UNL     1      -4.594   0.472  24.773  0.00  0.00    +0.124 C 
BRANCH  15   6
ATOM      6  N   UNL     1      -3.882  -0.577  25.523  0.00  0.00    -0.193 NA
ATOM     27  H   UNL     1      -4.197  -0.671  26.498  0.00  0.00    +0.148 HD
BRANCH   6   1
ATOM      1  S   UNL     1      -3.447  -2.024  24.727  0.00  0.00    +0.027 S 
ATOM      2  O   UNL     1      -4.021  -2.043  23.396  0.00  0.00    -0.158 OA
ATOM      3  O   UNL     1      -3.652  -3.132  25.640  0.00  0.00    -0.158 OA
ATOM     21  C   UNL     1      -1.692  -1.790  24.564  0.00  0.00    +0.214 C 
ENDBRANCH   6   1
ENDBRANCH  15   6
ENDBRANCH  10  15
TORSDOF 5
ENDMDL
MODEL 4
REMARK VINA RESULT:      -0.5     16.709     18.689
REMARK  Name = 40779189
REMARK  7 active torsions:
REMARK  status: ('A' for Active; 'I' for Inactive)
REMARK    1  A    between atoms: S_1  and  N_6
REMARK    2  A    between atoms: S_1  and  C_21
REMARK    3  A    between atoms: N_5  and  C_19
REMARK    4  A    between atoms: N_6  and  C_15
REMARK    5  A    between atoms: C_9  and  C_16
REMARK    6  A    between atoms: C_10  and  C_15
REMARK    7  A    between atoms: C_18  and  C_20
REMARK                            x       y       z     vdW  Elec       q    Type
REMARK                         _______ _______ _______ _____ _____    ______ ____
ROOT
ATOM      4  N   UNL     1      -5.321   1.731  24.015  0.00  0.00    -0.297 NA
ATOM      8  C   UNL     1      -3.731   2.508  25.926  0.00  0.00    +0.002 C 
ATOM      9  C   UNL     1      -3.160   2.924  24.542  0.00  0.00    +0.055 C 
ATOM     10  C   UNL     1      -5.041   0.598  24.936  0.00  0.00    +0.072 C 
ATOM     11  C   UNL     1      -3.943   0.979  25.952  0.00  0.00    +0.024 C 
ATOM     12  C   UNL     1      -5.124   3.161  26.049  0.00  0.00    +0.019 C 
ATOM     13  C   UNL     1      -4.050   2.255  23.455  0.00  0.00    +0.094 C 
ATOM     14  C   UNL     1      -5.959   2.811  24.805  0.00  0.00    +0.085 C 
ENDROOT
BRANCH   9  16
ATOM      5  N   UNL     1      -0.738   3.680  24.495  0.00  0.00    -0.270 N 
ATOM      7  N   UNL     1       0.516   3.295  24.207  0.00  0.00    -0.171 NA
ATOM     16  C   UNL     1      -1.676   2.712  24.284  0.00  0.00    +0.044 A 
ATOM     17  C   UNL     1      -0.986   1.617  23.824  0.00  0.00    +0.053 A 
ATOM     18  C   UNL     1       0.359   2.033  23.797  0.00  0.00    +0.093 A 
ATOM     19  C   UNL     1      -0.971   5.022  24.978  0.00  0.00    +0.172 C 
BRANCH  18  20
ATOM     20  C   UNL     1       1.494   1.250  23.387  0.00  0.00    +0.002 A 
ATOM     22  C   UNL     1       2.734   1.863  23.203  0.00  0.00    +0.010 A 
ATOM     23  C   UNL     1       1.356  -0.122  23.174  0.00  0.00    +0.010 A 
ATOM     24  C   UNL     1       3.835   1.104  22.805  0.00  0.00    +0.001 A 
ATOM     25  C   UNL     1       2.457  -0.881  22.777  0.00  0.00    +0.001 A 
ATOM     26  C   UNL     1       3.696  -0.267  22.592  0.00  0.00    +0.000 A 
ENDBRANCH  18  20
ENDBRANCH   9  16
BRANCH  10  15
ATOM     15  C   UNL     1      -4.701  -0.692  24.187  0.00  0.00    +0.124 C 
BRANCH  15   6
ATOM      6  N   UNL     1      -3.238  -0.809  24.063  0.00  0.00    -0.193 NA
ATOM     27  H   UNL     1      -2.747   0.094  24.121  0.00  0.00    +0.148 HD
BRANCH   6   1
ATOM      1  S   UNL     1      -2.444  -2.147  24.768  0.00  0.00    +0.027 S 
ATOM      2  O   UNL     1      -1.748  -2.900  23.742  0.00  0.00    -0.158 OA
ATOM      3  O   UNL     1      -3.365  -2.804  25.675  0.00  0.00    -0.158 OA
ATOM     21  C   UNL     1      -1.225  -1.316  25.760  0.00  0.00    +0.214 C 
ENDBRANCH   6   1
ENDBRANCH  15   6
ENDBRANCH  10  15
TORSDOF 5
ENDMDL
MODEL 5
REMARK VINA RESULT:       0.5     16.031     18.045
REMARK  Name = 40779189
REMARK  7 active torsions:
REMARK  status: ('A' for Active; 'I' for Inactive)
REMARK    1  A    between atoms: S_1  and  N_6
REMARK    2  A    between atoms: S_1  and  C_21
REMARK    3  A    between atoms: N_5  and  C_19
REMARK    4  A    between atoms: N_6  and  C_15
REMARK    5  A    between atoms: C_9  and  C_16
REMARK    6  A    between atoms: C_10  and  C_15
REMARK    7  A    between atoms: C_18  and  C_20
REMARK                            x       y       z     vdW  Elec       q    Type
REMARK                         _______ _______ _______ _____ _____    ______ ____
ROOT
ATOM      4  N   UNL     1      -3.870  -0.555  25.689  0.00  0.00    -0.297 NA
ATOM      8  C   UNL     1      -2.610  -1.999  23.924  0.00  0.00    +0.002 C 
ATOM      9  C   UNL     1      -1.604  -1.359  24.921  0.00  0.00    +0.055 C 
ATOM     10  C   UNL     1      -4.322  -0.194  24.319  0.00  0.00    +0.072 C 
ATOM     11  C   UNL     1      -3.444  -0.886  23.254  0.00  0.00    +0.024 C 
ATOM     12  C   UNL     1      -3.585  -2.854  24.762  0.00  0.00    +0.019 C 
ATOM     13  C   UNL     1      -2.403  -0.361  25.808  0.00  0.00    +0.094 C 
ATOM     14  C   UNL     1      -4.165  -1.993  25.898  0.00  0.00    +0.085 C 
ENDROOT
BRANCH   9  16
ATOM      5  N   UNL     1      -0.310   0.463  23.718  0.00  0.00    -0.270 N 
ATOM      7  N   UNL     1       0.911   0.832  23.297  0.00  0.00    -0.171 NA
ATOM     16  C   UNL     1      -0.332  -0.741  24.360  0.00  0.00    +0.044 A 
ATOM     17  C   UNL     1       0.966  -1.190  24.358  0.00  0.00    +0.053 A 
ATOM     18  C   UNL     1       1.687  -0.182  23.691  0.00  0.00    +0.093 A 
ATOM     19  C   UNL     1      -1.436   1.330  23.463  0.00  0.00    +0.172 C 
BRANCH  18  20
ATOM     20  C   UNL     1       3.101  -0.169  23.422  0.00  0.00    +0.002 A 
ATOM     22  C   UNL     1       3.905  -1.218  23.870  0.00  0.00    +0.010 A 
ATOM     23  C   UNL     1       3.668   0.891  22.713  0.00  0.00    +0.010 A 
ATOM     24  C   UNL     1       5.276  -1.206  23.610  0.00  0.00    +0.001 A 
ATOM     25  C   UNL     1       5.038   0.902  22.453  0.00  0.00    +0.001 A 
ATOM     26  C   UNL     1       5.842  -0.146  22.901  0.00  0.00    +0.000 A 
ENDBRANCH  18  20
ENDBRANCH   9  16
BRANCH  10  15
ATOM     15  C   UNL     1      -4.386   1.321  24.108  0.00  0.00    +0.124 C 
BRANCH  15   6
ATOM      6  N   UNL     1      -4.896   1.960  25.332  0.00  0.00    -0.193 NA
ATOM     27  H   UNL     1      -4.856   1.352  26.161  0.00  0.00    +0.148 HD
BRANCH   6   1
ATOM      1  S   UNL     1      -4.591   3.619  25.597  0.00  0.00    +0.027 S 
ATOM      2  O   UNL     1      -3.550   3.773  26.595  0.00  0.00    -0.158 OA
ATOM      3  O   UNL     1      -5.861   4.305  25.738  0.00  0.00    -0.158 OA
ATOM     21  C   UNL     1      -3.912   4.081  24.020  0.00  0.00    +0.214 C 
ENDBRANCH   6   1
ENDBRANCH  15   6
ENDBRANCH  10  15
TORSDOF 5
ENDMDL
MODEL 6
REMARK VINA RESULT:       0.6     15.847     17.907
REMARK  Name = 40779189
REMARK  7 active torsions:
REMARK  status: ('A' for Active; 'I' for Inactive)
REMARK    1  A    between atoms: S_1  and  N_6
REMARK    2  A    between atoms: S_1  and  C_21
REMARK    3  A    between atoms: N_5  and  C_19
REMARK    4  A    between atoms: N_6  and  C_15
REMARK    5  A    between atoms: C_9  and  C_16
REMARK    6  A    between atoms: C_10  and  C_15
REMARK    7  A    between atoms: C_18  and  C_20
REMARK                            x       y       z     vdW  Elec       q    Type
REMARK                         _______ _______ _______ _____ _____    ______ ____
ROOT
ATOM      4  N   UNL     1      -3.801  -0.268  25.830  0.00  0.00    -0.297 NA
ATOM      8  C   UNL     1      -3.124  -0.879  23.390  0.00  0.00    +0.002 C 
ATOM      9  C   UNL     1      -1.918  -1.069  24.352  0.00  0.00    +0.055 C 
ATOM     10  C   UNL     1      -4.205   0.821  24.903  0.00  0.00    +0.072 C 
ATOM     11  C   UNL     1      -3.632   0.575  23.490  0.00  0.00    +0.024 C 
ATOM     12  C   UNL     1      -4.256  -1.792  23.908  0.00  0.00    +0.019 C 
ATOM     13  C   UNL     1      -2.337  -0.498  25.737  0.00  0.00    +0.094 C 
ATOM     14  C   UNL     1      -4.491  -1.509  25.402  0.00  0.00    +0.085 C 
ENDROOT
BRANCH   9  16
ATOM      5  N   UNL     1      -0.396   0.533  23.106  0.00  0.00    -0.270 N 
ATOM      7  N   UNL     1       0.886   0.818  22.825  0.00  0.00    -0.171 NA
ATOM     16  C   UNL     1      -0.556  -0.561  23.905  0.00  0.00    +0.044 A 
ATOM     17  C   UNL     1       0.711  -1.024  24.164  0.00  0.00    +0.053 A 
ATOM     18  C   UNL     1       1.559  -0.136  23.474  0.00  0.00    +0.093 A 
ATOM     19  C   UNL     1      -1.441   1.369  22.561  0.00  0.00    +0.172 C 
BRANCH  18  20
ATOM     20  C   UNL     1       2.996  -0.184  23.422  0.00  0.00    +0.002 A 
ATOM     22  C   UNL     1       3.713   0.914  22.945  0.00  0.00    +0.010 A 
ATOM     23  C   UNL     1       3.673  -1.327  23.850  0.00  0.00    +0.010 A 
ATOM     24  C   UNL     1       5.107   0.868  22.895  0.00  0.00    +0.001 A 
ATOM     25  C   UNL     1       5.066  -1.372  23.800  0.00  0.00    +0.001 A 
ATOM     26  C   UNL     1       5.783  -0.274  23.322  0.00  0.00    +0.000 A 
ENDBRANCH  18  20
ENDBRANCH   9  16
BRANCH  10  15
ATOM     15  C   UNL     1      -3.835   2.207  25.434  0.00  0.00    +0.124 C 
BRANCH  15   6
ATOM      6  N   UNL     1      -2.786   2.789  24.580  0.00  0.00    -0.193 NA
ATOM     27  H   UNL     1      -3.120   3.057  23.644  0.00  0.00    +0.148 HD
BRANCH   6   1
ATOM      1  S   UNL     1      -1.607   3.805  25.281  0.00  0.00    +0.027 S 
ATOM      2  O   UNL     1      -2.232   4.693  26.242  0.00  0.00    -0.158 OA
ATOM      3  O   UNL     1      -0.764   4.332  24.224  0.00  0.00    -0.158 OA
ATOM     21  C   UNL     1      -0.644   2.613  26.182  0.00  0.00    +0.214 C 
ENDBRANCH   6   1
ENDBRANCH  15   6
ENDBRANCH  10  15
TORSDOF 5
ENDMDL
MODEL 7
REMARK VINA RESULT:       1.3     16.851     19.847
REMARK  Name = 40779189
REMARK  7 active torsions:
REMARK  status: ('A' for Active; 'I' for Inactive)
REMARK    1  A    between atoms: S_1  and  N_6
REMARK    2  A    between atoms: S_1  and  C_21
REMARK    3  A    between atoms: N_5  and  C_19
REMARK    4  A    between atoms: N_6  and  C_15
REMARK    5  A    between atoms: C_9  and  C_16
REMARK    6  A    between atoms: C_10  and  C_15
REMARK    7  A    between atoms: C_18  and  C_20
REMARK                            x       y       z     vdW  Elec       q    Type
REMARK                         _______ _______ _______ _____ _____    ______ ____
ROOT
ATOM      4  N   UNL     1      -2.718  -2.700  23.828  0.00  0.00    -0.297 NA
ATOM      8  C   UNL     1      -3.157  -1.557  26.128  0.00  0.00    +0.002 C 
ATOM      9  C   UNL     1      -3.828  -0.749  24.982  0.00  0.00    +0.055 C 
ATOM     10  C   UNL     1      -1.440  -2.548  24.572  0.00  0.00    +0.072 C 
ATOM     11  C   UNL     1      -1.646  -1.690  25.840  0.00  0.00    +0.024 C 
ATOM     12  C   UNL     1      -3.755  -2.980  26.079  0.00  0.00    +0.019 C 
ATOM     13  C   UNL     1      -3.357  -1.373  23.638  0.00  0.00    +0.094 C 
ATOM     14  C   UNL     1      -3.626  -3.535  24.651  0.00  0.00    +0.085 C 
ENDROOT
BRANCH   9  16
ATOM      5  N   UNL     1      -4.758   1.609  25.095  0.00  0.00    -0.270 N 
ATOM      7  N   UNL     1      -4.425   2.911  25.089  0.00  0.00    -0.171 NA
ATOM     16  C   UNL     1      -3.690   0.766  24.996  0.00  0.00    +0.044 A 
ATOM     17  C   UNL     1      -2.581   1.573  24.920  0.00  0.00    +0.053 A 
ATOM     18  C   UNL     1      -3.094   2.883  24.982  0.00  0.00    +0.093 A 
ATOM     19  C   UNL     1      -6.150   1.237  25.197  0.00  0.00    +0.172 C 
BRANCH  18  20
ATOM     20  C   UNL     1      -2.337   4.107  24.939  0.00  0.00    +0.002 A 
ATOM     22  C   UNL     1      -2.947   5.315  25.276  0.00  0.00    +0.010 A 
ATOM     23  C   UNL     1      -0.993   4.084  24.563  0.00  0.00    +0.010 A 
ATOM     24  C   UNL     1      -2.214   6.502  25.235  0.00  0.00    +0.001 A 
ATOM     25  C   UNL     1      -0.261   5.270  24.523  0.00  0.00    +0.001 A 
ATOM     26  C   UNL     1      -0.871   6.478  24.859  0.00  0.00    +0.000 A 
ENDBRANCH  18  20
ENDBRANCH   9  16
BRANCH  10  15
ATOM     15  C   UNL     1      -0.315  -2.000  23.691  0.00  0.00    +0.124 C 
BRANCH  15   6
ATOM      6  N   UNL     1       0.276  -0.818  24.340  0.00  0.00    -0.193 NA
ATOM     27  H   UNL     1       0.964  -1.049  25.069  0.00  0.00    +0.148 HD
BRANCH   6   1
ATOM      1  S   UNL     1       0.609   0.570  23.402  0.00  0.00    +0.027 S 
ATOM      2  O   UNL     1       1.163   1.612  24.245  0.00  0.00    -0.158 OA
ATOM      3  O   UNL     1      -0.535   0.836  22.549  0.00  0.00    -0.158 OA
ATOM     21  C   UNL     1       1.913  -0.045  22.362  0.00  0.00    +0.214 C 
ENDBRANCH   6   1
ENDBRANCH  15   6
ENDBRANCH  10  15
TORSDOF 5
ENDMDL
