MODEL 1
REMARK VINA RESULT:      -3.7      0.000      0.000
REMARK  Name = 45783784
REMARK  7 active torsions:
REMARK  status: ('A' for Active; 'I' for Inactive)
REMARK    1  A    between atoms: N_2  and  C_11
REMARK    2  A    between atoms: N_6  and  C_25
REMARK    3  A    between atoms: N_6  and  C_26
REMARK    4  A    between atoms: C_7  and  C_12
REMARK    5  A    between atoms: C_11  and  C_13
REMARK    6  A    between atoms: C_16  and  C_20
REMARK    7  A    between atoms: C_19  and  C_21
REMARK                            x       y       z     vdW  Elec       q    Type
REMARK                         _______ _______ _______ _____ _____    ______ ____
ROOT
ATOM      1  O   UNL     1      -2.172   3.156  25.176  0.00  0.00    -0.336 OA
ATOM      3  N   UNL     1      -1.943   1.546  23.635  0.00  0.00    -0.190 NA
ATOM      4  N   UNL     1      -0.796   2.927  25.054  0.00  0.00    -0.056 NA
ATOM     12  C   UNL     1      -2.773   2.302  24.307  0.00  0.00    +0.245 A 
ATOM     16  C   UNL     1      -0.741   1.965  24.127  0.00  0.00    +0.204 A 
ENDROOT
BRANCH  16  20
ATOM      5  N   UNL     1       2.887   1.632  23.378  0.00  0.00    -0.240 NA
ATOM     20  C   UNL     1       0.497   1.402  23.672  0.00  0.00    +0.041 A 
ATOM     22  C   UNL     1       0.542   0.134  23.103  0.00  0.00    +0.016 A 
ATOM     23  C   UNL     1       1.687   2.103  23.786  0.00  0.00    +0.124 A 
ATOM     24  C   UNL     1       1.757  -0.386  22.672  0.00  0.00    +0.044 A 
ATOM     25  C   UNL     1       2.890   0.396  22.830  0.00  0.00    +0.118 A 
BRANCH  25   6
ATOM      6  N   UNL     1       4.121  -0.149  22.386  0.00  0.00    -0.332 N 
ATOM     26  C   UNL     1       5.353   0.077  23.069  0.00  0.00    +0.127 C 
ATOM     27  H   UNL     1       4.149  -0.516  21.441  0.00  0.00    +0.147 HD
ENDBRANCH  25   6
ENDBRANCH  16  20
BRANCH  12   7
ATOM      2  N   UNL     1      -4.924   1.486  25.256  0.00  0.00    -0.287 NA
ATOM      7  C   UNL     1      -4.286   2.355  24.248  0.00  0.00    +0.146 C 
ATOM      8  C   UNL     1      -4.843   3.761  24.536  0.00  0.00    +0.030 C 
ATOM      9  C   UNL     1      -5.830   3.571  25.679  0.00  0.00    +0.017 C 
ATOM     10  C   UNL     1      -6.207   2.107  25.587  0.00  0.00    +0.085 C 
BRANCH   2  11
ATOM     11  C   UNL     1      -5.082   0.107  24.808  0.00  0.00    +0.120 C 
BRANCH  11  13
ATOM     13  C   UNL     1      -3.803  -0.676  24.947  0.00  0.00    -0.033 A 
ATOM     14  C   UNL     1      -2.909  -0.374  25.974  0.00  0.00    +0.005 A 
ATOM     15  C   UNL     1      -3.511  -1.700  24.047  0.00  0.00    +0.005 A 
ATOM     17  C   UNL     1      -1.723  -1.096  26.101  0.00  0.00    +0.003 A 
ATOM     18  C   UNL     1      -2.325  -2.423  24.174  0.00  0.00    +0.003 A 
ATOM     19  C   UNL     1      -1.430  -2.121  25.201  0.00  0.00    -0.050 A 
ATOM     21  C   UNL     1      -0.162  -2.893  25.337  0.00  0.00    +0.044 C 
ENDBRANCH  11  13
ENDBRANCH   2  11
ENDBRANCH  12   7
TORSDOF 5
ENDMDL
MODEL 2
REMARK VINA RESULT:      -2.2      1.302      1.701
REMARK  Name = 45783784
REMARK  7 active torsions:
REMARK  status: ('A' for Active; 'I' for Inactive)
REMARK    1  A    between atoms: N_2  and  C_11
REMARK    2  A    between atoms: N_6  and  C_25
REMARK    3  A    between atoms: N_6  and  C_26
REMARK    4  A    between atoms: C_7  and  C_12
REMARK    5  A    between atoms: C_11  and  C_13
REMARK    6  A    between atoms: C_16  and  C_20
REMARK    7  A    between atoms: C_19  and  C_21
REMARK                            x       y       z     vdW  Elec       q    Type
REMARK                         _______ _______ _______ _____ _____    ______ ____
ROOT
ATOM      1  O   UNL     1      -2.866   1.652  22.613  0.00  0.00    -0.336 OA
ATOM      3  N   UNL     1      -1.279   2.234  24.083  0.00  0.00    -0.190 NA
ATOM      4  N   UNL     1      -1.697   1.000  22.202  0.00  0.00    -0.056 NA
ATOM     12  C   UNL     1      -2.533   2.356  23.726  0.00  0.00    +0.245 A 
ATOM     16  C   UNL     1      -0.806   1.393  23.118  0.00  0.00    +0.204 A 
ENDROOT
BRANCH  16  20
ATOM      5  N   UNL     1       2.898   1.489  23.443  0.00  0.00    -0.240 NA
ATOM     20  C   UNL     1       0.562   0.964  23.097  0.00  0.00    +0.041 A 
ATOM     22  C   UNL     1       0.901  -0.335  22.733  0.00  0.00    +0.016 A 
ATOM     23  C   UNL     1       1.589   1.829  23.442  0.00  0.00    +0.124 A 
ATOM     24  C   UNL     1       2.236  -0.722  22.723  0.00  0.00    +0.044 A 
ATOM     25  C   UNL     1       3.188   0.219  23.083  0.00  0.00    +0.118 A 
BRANCH  25   6
ATOM      6  N   UNL     1       4.544  -0.192  23.069  0.00  0.00    -0.332 N 
ATOM     26  C   UNL     1       5.416  -0.004  24.182  0.00  0.00    +0.127 C 
ATOM     27  H   UNL     1       4.949  -0.418  22.167  0.00  0.00    +0.147 HD
ENDBRANCH  25   6
ENDBRANCH  16  20
BRANCH  12   7
ATOM      2  N   UNL     1      -4.110   2.561  25.639  0.00  0.00    -0.287 NA
ATOM      7  C   UNL     1      -3.642   3.159  24.374  0.00  0.00    +0.146 C 
ATOM      8  C   UNL     1      -3.198   4.584  24.755  0.00  0.00    +0.030 C 
ATOM      9  C   UNL     1      -3.513   4.714  26.238  0.00  0.00    +0.017 C 
ATOM     10  C   UNL     1      -4.585   3.669  26.470  0.00  0.00    +0.085 C 
BRANCH   2  11
ATOM     11  C   UNL     1      -5.135   1.541  25.448  0.00  0.00    +0.120 C 
BRANCH  11  13
ATOM     13  C   UNL     1      -4.533   0.192  25.155  0.00  0.00    -0.033 A 
ATOM     14  C   UNL     1      -3.579  -0.347  26.018  0.00  0.00    +0.005 A 
ATOM     15  C   UNL     1      -4.926  -0.515  24.019  0.00  0.00    +0.005 A 
ATOM     17  C   UNL     1      -3.019  -1.595  25.746  0.00  0.00    +0.003 A 
ATOM     18  C   UNL     1      -4.366  -1.763  23.747  0.00  0.00    +0.003 A 
ATOM     19  C   UNL     1      -3.412  -2.304  24.610  0.00  0.00    -0.050 A 
ATOM     21  C   UNL     1      -2.812  -3.637  24.319  0.00  0.00    +0.044 C 
ENDBRANCH  11  13
ENDBRANCH   2  11
ENDBRANCH  12   7
TORSDOF 5
ENDMDL
MODEL 3
REMARK VINA RESULT:      -1.7      1.442      2.161
REMARK  Name = 45783784
REMARK  7 active torsions:
REMARK  status: ('A' for Active; 'I' for Inactive)
REMARK    1  A    between atoms: N_2  and  C_11
REMARK    2  A    between atoms: N_6  and  C_25
REMARK    3  A    between atoms: N_6  and  C_26
REMARK    4  A    between atoms: C_7  and  C_12
REMARK    5  A    between atoms: C_11  and  C_13
REMARK    6  A    between atoms: C_16  and  C_20
REMARK    7  A    between atoms: C_19  and  C_21
REMARK                            x       y       z     vdW  Elec       q    Type
REMARK                         _______ _______ _______ _____ _____    ______ ____
ROOT
ATOM      1  O   UNL     1      -2.782   1.741  22.653  0.00  0.00    -0.336 OA
ATOM      3  N   UNL     1      -1.204   2.236  24.164  0.00  0.00    -0.190 NA
ATOM      4  N   UNL     1      -1.630   1.053  22.253  0.00  0.00    -0.056 NA
ATOM     12  C   UNL     1      -2.445   2.412  23.785  0.00  0.00    +0.245 A 
ATOM     16  C   UNL     1      -0.744   1.395  23.193  0.00  0.00    +0.204 A 
ENDROOT
BRANCH  16  20
ATOM      5  N   UNL     1       2.138  -0.947  22.993  0.00  0.00    -0.240 NA
ATOM     20  C   UNL     1       0.608   0.915  23.192  0.00  0.00    +0.041 A 
ATOM     22  C   UNL     1       1.678   1.784  23.375  0.00  0.00    +0.016 A 
ATOM     23  C   UNL     1       0.889  -0.429  23.005  0.00  0.00    +0.124 A 
ATOM     24  C   UNL     1       2.977   1.289  23.367  0.00  0.00    +0.044 A 
ATOM     25  C   UNL     1       3.152  -0.072  23.174  0.00  0.00    +0.118 A 
BRANCH  25   6
ATOM      6  N   UNL     1       4.483  -0.560  23.168  0.00  0.00    -0.332 N 
ATOM     26  C   UNL     1       5.590   0.219  23.616  0.00  0.00    +0.127 C 
ATOM     27  H   UNL     1       4.665  -1.396  22.625  0.00  0.00    +0.147 HD
ENDBRANCH  25   6
ENDBRANCH  16  20
BRANCH  12   7
ATOM      2  N   UNL     1      -4.047   2.647  25.674  0.00  0.00    -0.287 NA
ATOM      7  C   UNL     1      -3.535   3.245  24.426  0.00  0.00    +0.146 C 
ATOM      8  C   UNL     1      -3.048   4.647  24.836  0.00  0.00    +0.030 C 
ATOM      9  C   UNL     1      -3.384   4.768  26.316  0.00  0.00    +0.017 C 
ATOM     10  C   UNL     1      -4.497   3.758  26.513  0.00  0.00    +0.085 C 
BRANCH   2  11
ATOM     11  C   UNL     1      -5.104   1.667  25.450  0.00  0.00    +0.120 C 
BRANCH  11  13
ATOM     13  C   UNL     1      -4.547   0.297  25.168  0.00  0.00    -0.033 A 
ATOM     14  C   UNL     1      -4.899  -0.371  23.996  0.00  0.00    +0.005 A 
ATOM     15  C   UNL     1      -3.683  -0.306  26.082  0.00  0.00    +0.005 A 
ATOM     17  C   UNL     1      -4.386  -1.641  23.736  0.00  0.00    +0.003 A 
ATOM     18  C   UNL     1      -3.170  -1.577  25.822  0.00  0.00    +0.003 A 
ATOM     19  C   UNL     1      -3.521  -2.245  24.649  0.00  0.00    -0.050 A 
ATOM     21  C   UNL     1      -2.973  -3.604  24.371  0.00  0.00    +0.044 C 
ENDBRANCH  11  13
ENDBRANCH   2  11
ENDBRANCH  12   7
TORSDOF 5
ENDMDL
MODEL 4
REMARK VINA RESULT:      -1.3     15.547     17.974
REMARK  Name = 45783784
REMARK  7 active torsions:
REMARK  status: ('A' for Active; 'I' for Inactive)
REMARK    1  A    between atoms: N_2  and  C_11
REMARK    2  A    between atoms: N_6  and  C_25
REMARK    3  A    between atoms: N_6  and  C_26
REMARK    4  A    between atoms: C_7  and  C_12
REMARK    5  A    between atoms: C_11  and  C_13
REMARK    6  A    between atoms: C_16  and  C_20
REMARK    7  A    between atoms: C_19  and  C_21
REMARK                            x       y       z     vdW  Elec       q    Type
REMARK                         _______ _______ _______ _____ _____    ______ ____
ROOT
ATOM      1  O   UNL     1      -3.408  -9.158   9.941  0.00  0.00    -0.336 OA
ATOM      3  N   UNL     1      -5.391  -9.365  10.961  0.00  0.00    -0.190 NA
ATOM      4  N   UNL     1      -4.326  -8.452   9.154  0.00  0.00    -0.056 NA
ATOM     12  C   UNL     1      -4.117  -9.664  10.984  0.00  0.00    +0.245 A 
ATOM     16  C   UNL     1      -5.472  -8.621   9.820  0.00  0.00    +0.204 A 
ENDROOT
BRANCH  16  20
ATOM      5  N   UNL     1      -9.126  -8.205   9.264  0.00  0.00    -0.240 NA
ATOM     20  C   UNL     1      -6.715  -8.061   9.373  0.00  0.00    +0.041 A 
ATOM     22  C   UNL     1      -6.746  -6.877   8.644  0.00  0.00    +0.016 A 
ATOM     23  C   UNL     1      -7.922  -8.680   9.655  0.00  0.00    +0.124 A 
ATOM     24  C   UNL     1      -7.965  -6.357   8.224  0.00  0.00    +0.044 A 
ATOM     25  C   UNL     1      -9.116  -7.053   8.557  0.00  0.00    +0.118 A 
BRANCH  25   6
ATOM      6  N   UNL     1     -10.351  -6.509   8.124  0.00  0.00    -0.332 N 
ATOM     26  C   UNL     1     -10.719  -5.152   8.361  0.00  0.00    +0.127 C 
ATOM     27  H   UNL     1     -11.070  -7.165   7.839  0.00  0.00    +0.147 HD
ENDBRANCH  25   6
ENDBRANCH  16  20
BRANCH  12   7
ATOM      2  N   UNL     1      -2.133  -9.782  12.481  0.00  0.00    -0.287 NA
ATOM      7  C   UNL     1      -3.340 -10.480  11.996  0.00  0.00    +0.146 C 
ATOM      8  C   UNL     1      -4.155 -10.781  13.267  0.00  0.00    +0.030 C 
ATOM      9  C   UNL     1      -3.298 -10.272  14.418  0.00  0.00    +0.017 C 
ATOM     10  C   UNL     1      -1.896 -10.261  13.843  0.00  0.00    +0.085 C 
BRANCH   2  11
ATOM     11  C   UNL     1      -0.972  -9.978  11.621  0.00  0.00    +0.120 C 
BRANCH  11  13
ATOM     13  C   UNL     1       0.029  -8.863  11.769  0.00  0.00    -0.033 A 
ATOM     14  C   UNL     1       1.229  -8.905  11.059  0.00  0.00    +0.005 A 
ATOM     15  C   UNL     1      -0.241  -7.791  12.619  0.00  0.00    +0.005 A 
ATOM     17  C   UNL     1       2.158  -7.874  11.198  0.00  0.00    +0.003 A 
ATOM     18  C   UNL     1       0.688  -6.760  12.758  0.00  0.00    +0.003 A 
ATOM     19  C   UNL     1       1.887  -6.801  12.048  0.00  0.00    -0.050 A 
ATOM     21  C   UNL     1       2.881  -5.699  12.197  0.00  0.00    +0.044 C 
ENDBRANCH  11  13
ENDBRANCH   2  11
ENDBRANCH  12   7
TORSDOF 5
ENDMDL
MODEL 5
REMARK VINA RESULT:      -0.2      1.564      3.706
REMARK  Name = 45783784
REMARK  7 active torsions:
REMARK  status: ('A' for Active; 'I' for Inactive)
REMARK    1  A    between atoms: N_2  and  C_11
REMARK    2  A    between atoms: N_6  and  C_25
REMARK    3  A    between atoms: N_6  and  C_26
REMARK    4  A    between atoms: C_7  and  C_12
REMARK    5  A    between atoms: C_11  and  C_13
REMARK    6  A    between atoms: C_16  and  C_20
REMARK    7  A    between atoms: C_19  and  C_21
REMARK                            x       y       z     vdW  Elec       q    Type
REMARK                         _______ _______ _______ _____ _____    ______ ____
ROOT
ATOM      1  O   UNL     1      -1.822   0.769  25.958  0.00  0.00    -0.336 OA
ATOM      3  N   UNL     1      -1.188  -0.517  24.238  0.00  0.00    -0.190 NA
ATOM      4  N   UNL     1      -0.505   1.140  25.659  0.00  0.00    -0.056 NA
ATOM     12  C   UNL     1      -2.146  -0.212  25.076  0.00  0.00    +0.245 A 
ATOM     16  C   UNL     1      -0.202   0.338  24.634  0.00  0.00    +0.204 A 
ENDROOT
BRANCH  16  20
ATOM      5  N   UNL     1       2.965   1.654  23.194  0.00  0.00    -0.240 NA
ATOM     20  C   UNL     1       1.077   0.366  23.985  0.00  0.00    +0.041 A 
ATOM     22  C   UNL     1       1.674  -0.803  23.525  0.00  0.00    +0.016 A 
ATOM     23  C   UNL     1       1.759   1.558  23.797  0.00  0.00    +0.124 A 
ATOM     24  C   UNL     1       2.914  -0.746  22.901  0.00  0.00    +0.044 A 
ATOM     25  C   UNL     1       3.513   0.496  22.761  0.00  0.00    +0.118 A 
BRANCH  25   6
ATOM      6  N   UNL     1       4.778   0.538  22.123  0.00  0.00    -0.332 N 
ATOM     26  C   UNL     1       5.959   0.008  22.721  0.00  0.00    +0.127 C 
ATOM     27  H   UNL     1       4.873   1.159  21.327  0.00  0.00    +0.147 HD
ENDBRANCH  25   6
ENDBRANCH  16  20
BRANCH  12   7
ATOM      2  N   UNL     1      -4.491  -0.176  24.245  0.00  0.00    -0.287 NA
ATOM      7  C   UNL     1      -3.541  -0.791  25.192  0.00  0.00    +0.146 C 
ATOM      8  C   UNL     1      -3.588  -2.296  24.872  0.00  0.00    +0.030 C 
ATOM      9  C   UNL     1      -4.635  -2.437  23.777  0.00  0.00    +0.017 C 
ATOM     10  C   UNL     1      -5.493  -1.199  23.941  0.00  0.00    +0.085 C 
BRANCH   2  11
ATOM     11  C   UNL     1      -5.096   1.050  24.752  0.00  0.00    +0.120 C 
BRANCH  11  13
ATOM     13  C   UNL     1      -4.106   2.183  24.801  0.00  0.00    -0.033 A 
ATOM     14  C   UNL     1      -4.007   2.974  25.946  0.00  0.00    +0.005 A 
ATOM     15  C   UNL     1      -3.292   2.447  23.700  0.00  0.00    +0.005 A 
ATOM     17  C   UNL     1      -3.093   4.026  25.991  0.00  0.00    +0.003 A 
ATOM     18  C   UNL     1      -2.377   3.499  23.745  0.00  0.00    +0.003 A 
ATOM     19  C   UNL     1      -2.277   4.288  24.890  0.00  0.00    -0.050 A 
ATOM     21  C   UNL     1      -1.301   5.414  24.939  0.00  0.00    +0.044 C 
ENDBRANCH  11  13
ENDBRANCH   2  11
ENDBRANCH  12   7
TORSDOF 5
ENDMDL
MODEL 6
REMARK VINA RESULT:       0.3      1.881      3.757
REMARK  Name = 45783784
REMARK  7 active torsions:
REMARK  status: ('A' for Active; 'I' for Inactive)
REMARK    1  A    between atoms: N_2  and  C_11
REMARK    2  A    between atoms: N_6  and  C_25
REMARK    3  A    between atoms: N_6  and  C_26
REMARK    4  A    between atoms: C_7  and  C_12
REMARK    5  A    between atoms: C_11  and  C_13
REMARK    6  A    between atoms: C_16  and  C_20
REMARK    7  A    between atoms: C_19  and  C_21
REMARK                            x       y       z     vdW  Elec       q    Type
REMARK                         _______ _______ _______ _____ _____    ______ ____
ROOT
ATOM      1  O   UNL     1      -3.094   1.569  23.014  0.00  0.00    -0.336 OA
ATOM      3  N   UNL     1      -1.690   0.615  24.475  0.00  0.00    -0.190 NA
ATOM      4  N   UNL     1      -1.832   1.584  22.407  0.00  0.00    -0.056 NA
ATOM     12  C   UNL     1      -2.921   0.982  24.227  0.00  0.00    +0.245 A 
ATOM     16  C   UNL     1      -1.058   1.005  23.330  0.00  0.00    +0.204 A 
ENDROOT
BRANCH  16  20
ATOM      5  N   UNL     1       2.617   1.539  23.544  0.00  0.00    -0.240 NA
ATOM     20  C   UNL     1       0.350   0.802  23.140  0.00  0.00    +0.041 A 
ATOM     22  C   UNL     1       0.825  -0.278  22.404  0.00  0.00    +0.016 A 
ATOM     23  C   UNL     1       1.279   1.673  23.685  0.00  0.00    +0.124 A 
ATOM     24  C   UNL     1       2.194  -0.450  22.237  0.00  0.00    +0.044 A 
ATOM     25  C   UNL     1       3.041   0.478  22.822  0.00  0.00    +0.118 A 
BRANCH  25   6
ATOM      6  N   UNL     1       4.434   0.289  22.643  0.00  0.00    -0.332 N 
ATOM     26  C   UNL     1       5.317   0.010  23.727  0.00  0.00    +0.127 C 
ATOM     27  H   UNL     1       4.830   0.581  21.756  0.00  0.00    +0.147 HD
ENDBRANCH  25   6
ENDBRANCH  16  20
BRANCH  12   7
ATOM      2  N   UNL     1      -5.003   2.053  25.069  0.00  0.00    -0.287 NA
ATOM      7  C   UNL     1      -4.157   0.844  25.091  0.00  0.00    +0.146 C 
ATOM      8  C   UNL     1      -5.086  -0.291  24.622  0.00  0.00    +0.030 C 
ATOM      9  C   UNL     1      -6.445   0.364  24.421  0.00  0.00    +0.017 C 
ATOM     10  C   UNL     1      -6.377   1.602  25.292  0.00  0.00    +0.085 C 
BRANCH   2  11
ATOM     11  C   UNL     1      -4.592   3.060  26.041  0.00  0.00    +0.120 C 
BRANCH  11  13
ATOM     13  C   UNL     1      -3.314   3.743  25.632  0.00  0.00    -0.033 A 
ATOM     14  C   UNL     1      -3.338   4.736  24.653  0.00  0.00    +0.005 A 
ATOM     15  C   UNL     1      -2.107   3.380  26.228  0.00  0.00    +0.005 A 
ATOM     17  C   UNL     1      -2.154   5.367  24.272  0.00  0.00    +0.003 A 
ATOM     18  C   UNL     1      -0.923   4.011  25.847  0.00  0.00    +0.003 A 
ATOM     19  C   UNL     1      -0.946   5.005  24.869  0.00  0.00    -0.050 A 
ATOM     21  C   UNL     1       0.319   5.679  24.459  0.00  0.00    +0.044 C 
ENDBRANCH  11  13
ENDBRANCH   2  11
ENDBRANCH  12   7
TORSDOF 5
ENDMDL
