MODEL 1
REMARK VINA RESULT:      -6.1      0.000      0.000
REMARK  Name = 75536715
REMARK  9 active torsions:
REMARK  status: ('A' for Active; 'I' for Inactive)
REMARK    1  A    between atoms: S_1  and  N_7
REMARK    2  A    between atoms: S_1  and  C_17
REMARK    3  A    between atoms: O_3  and  C_11
REMARK    4  A    between atoms: N_6  and  C_10
REMARK    5  A    between atoms: N_6  and  C_15
REMARK    6  A    between atoms: N_7  and  C_14
REMARK    7  A    between atoms: C_12  and  C_14
REMARK    8  A    between atoms: C_15  and  C_16
REMARK    9  A    between atoms: C_24  and  C_25
REMARK                            x       y       z     vdW  Elec       q    Type
REMARK                         _______ _______ _______ _____ _____    ______ ____
ROOT
ATOM      2  O   UNL     1      -0.694   3.454  25.699  0.00  0.00    -0.371 OA
ATOM     10  C   UNL     1      -0.072   1.763  24.151  0.00  0.00    +0.111 C 
ATOM     11  C   UNL     1      -1.554   2.050  24.000  0.00  0.00    +0.164 C 
ATOM     12  C   UNL     1      -1.649   3.436  24.625  0.00  0.00    +0.164 C 
ATOM     13  C   UNL     1       0.210   2.348  25.525  0.00  0.00    +0.181 C 
ENDROOT
BRANCH  11   3
ATOM      3  O   UNL     1      -1.977   2.051  22.651  0.00  0.00    -0.388 OA
ATOM     28  H   UNL     1      -1.188   2.017  22.084  0.00  0.00    +0.210 HD
ENDBRANCH  11   3
BRANCH  10   6
ATOM      6  N   UNL     1       0.261   0.351  24.059  0.00  0.00    -0.304 NA
ATOM     26  H   UNL     1      -0.600  -0.196  24.103  0.00  0.00    +0.123 HD
BRANCH   6  15
ATOM     15  C   UNL     1       0.948   0.053  22.808  0.00  0.00    +0.136 C 
BRANCH  15  16
ATOM      8  N   UNL     1       3.169  -0.977  23.412  0.00  0.00    -0.347 N 
ATOM      9  N   UNL     1       4.642   0.642  23.038  0.00  0.00    -0.244 NA
ATOM     16  C   UNL     1       2.444   0.093  22.967  0.00  0.00    +0.049 A 
ATOM     18  C   UNL     1       3.375   1.080  22.743  0.00  0.00    +0.134 A 
ATOM     21  C   UNL     1       4.482  -0.600  23.437  0.00  0.00    +0.196 A 
ATOM     29  H   UNL     1       2.803  -1.883  23.674  0.00  0.00    +0.167 HD
ENDBRANCH  15  16
ENDBRANCH   6  15
ENDBRANCH  10   6
BRANCH  12  14
ATOM     14  C   UNL     1      -3.032   3.759  25.162  0.00  0.00    +0.140 C 
BRANCH  14   7
ATOM      7  N   UNL     1      -4.051   3.042  24.371  0.00  0.00    -0.187 NA
ATOM     27  H   UNL     1      -4.326   3.490  23.487  0.00  0.00    +0.148 HD
BRANCH   7   1
ATOM      1  S   UNL     1      -5.173   2.025  25.145  0.00  0.00    +0.058 S 
ATOM      4  O   UNL     1      -6.405   1.998  24.380  0.00  0.00    -0.153 OA
ATOM      5  O   UNL     1      -5.200   2.341  26.561  0.00  0.00    -0.153 OA
BRANCH   1  17
ATOM     17  C   UNL     1      -4.398   0.444  24.986  0.00  0.00    +0.105 A 
ATOM     19  C   UNL     1      -3.361   0.086  25.847  0.00  0.00    +0.029 A 
ATOM     20  C   UNL     1      -4.821  -0.444  23.996  0.00  0.00    +0.029 A 
ATOM     22  C   UNL     1      -2.748  -1.161  25.720  0.00  0.00    +0.005 A 
ATOM     23  C   UNL     1      -4.208  -1.690  23.868  0.00  0.00    +0.005 A 
ATOM     24  C   UNL     1      -3.170  -2.049  24.729  0.00  0.00    -0.050 A 
ATOM     25  C   UNL     1      -2.514  -3.381  24.593  0.00  0.00    +0.044 C 
ENDBRANCH   1  17
ENDBRANCH   7   1
ENDBRANCH  14   7
ENDBRANCH  12  14
TORSDOF 8
ENDMDL
MODEL 2
REMARK VINA RESULT:      -5.6      1.964      4.091
REMARK  Name = 75536715
REMARK  9 active torsions:
REMARK  status: ('A' for Active; 'I' for Inactive)
REMARK    1  A    between atoms: S_1  and  N_7
REMARK    2  A    between atoms: S_1  and  C_17
REMARK    3  A    between atoms: O_3  and  C_11
REMARK    4  A    between atoms: N_6  and  C_10
REMARK    5  A    between atoms: N_6  and  C_15
REMARK    6  A    between atoms: N_7  and  C_14
REMARK    7  A    between atoms: C_12  and  C_14
REMARK    8  A    between atoms: C_15  and  C_16
REMARK    9  A    between atoms: C_24  and  C_25
REMARK                            x       y       z     vdW  Elec       q    Type
REMARK                         _______ _______ _______ _____ _____    ______ ____
ROOT
ATOM      2  O   UNL     1      -1.865  -2.534  24.039  0.00  0.00    -0.371 OA
ATOM     10  C   UNL     1      -0.076  -1.031  24.465  0.00  0.00    +0.111 C 
ATOM     11  C   UNL     1      -1.241  -0.684  25.373  0.00  0.00    +0.164 C 
ATOM     12  C   UNL     1      -2.022  -1.991  25.360  0.00  0.00    +0.164 C 
ATOM     13  C   UNL     1      -0.765  -1.865  23.397  0.00  0.00    +0.181 C 
ENDROOT
BRANCH  11   3
ATOM      3  O   UNL     1      -0.829  -0.330  26.679  0.00  0.00    -0.388 OA
ATOM     28  H   UNL     1      -1.116  -1.029  27.290  0.00  0.00    +0.210 HD
ENDBRANCH  11   3
BRANCH  10   6
ATOM      6  N   UNL     1       0.606   0.132  23.921  0.00  0.00    -0.304 NA
ATOM     26  H   UNL     1       1.230   0.514  24.633  0.00  0.00    +0.123 HD
BRANCH   6  15
ATOM     15  C   UNL     1       1.391  -0.222  22.744  0.00  0.00    +0.136 C 
BRANCH  15  16
ATOM      8  N   UNL     1       3.646  -1.045  23.516  0.00  0.00    -0.347 N 
ATOM      9  N   UNL     1       5.007   0.672  23.153  0.00  0.00    -0.244 NA
ATOM     16  C   UNL     1       2.868  -0.055  22.985  0.00  0.00    +0.049 A 
ATOM     18  C   UNL     1       3.730   0.994  22.769  0.00  0.00    +0.134 A 
ATOM     21  C   UNL     1       4.922  -0.562  23.598  0.00  0.00    +0.196 A 
ATOM     29  H   UNL     1       3.338  -1.965  23.798  0.00  0.00    +0.167 HD
ENDBRANCH  15  16
ENDBRANCH   6  15
ENDBRANCH  10   6
BRANCH  12  14
ATOM     14  C   UNL     1      -3.498  -1.811  25.669  0.00  0.00    +0.140 C 
BRANCH  14   7
ATOM      7  N   UNL     1      -3.784  -0.383  25.906  0.00  0.00    -0.187 NA
ATOM     27  H   UNL     1      -4.013  -0.128  26.876  0.00  0.00    +0.148 HD
BRANCH   7   1
ATOM      1  S   UNL     1      -4.400   0.583  24.649  0.00  0.00    +0.058 S 
ATOM      4  O   UNL     1      -5.755   0.989  24.975  0.00  0.00    -0.153 OA
ATOM      5  O   UNL     1      -4.116  -0.056  23.379  0.00  0.00    -0.153 OA
BRANCH   1  17
ATOM     17  C   UNL     1      -3.364   2.013  24.751  0.00  0.00    +0.105 A 
ATOM     19  C   UNL     1      -2.237   2.116  23.936  0.00  0.00    +0.029 A 
ATOM     20  C   UNL     1      -3.672   3.035  25.648  0.00  0.00    +0.029 A 
ATOM     22  C   UNL     1      -1.418   3.242  24.017  0.00  0.00    +0.005 A 
ATOM     23  C   UNL     1      -2.853   4.161  25.731  0.00  0.00    +0.005 A 
ATOM     24  C   UNL     1      -1.726   4.265  24.916  0.00  0.00    -0.050 A 
ATOM     25  C   UNL     1      -0.850   5.469  25.003  0.00  0.00    +0.044 C 
ENDBRANCH   1  17
ENDBRANCH   7   1
ENDBRANCH  14   7
ENDBRANCH  12  14
TORSDOF 8
ENDMDL
MODEL 3
REMARK VINA RESULT:      -5.6      1.791      4.003
REMARK  Name = 75536715
REMARK  9 active torsions:
REMARK  status: ('A' for Active; 'I' for Inactive)
REMARK    1  A    between atoms: S_1  and  N_7
REMARK    2  A    between atoms: S_1  and  C_17
REMARK    3  A    between atoms: O_3  and  C_11
REMARK    4  A    between atoms: N_6  and  C_10
REMARK    5  A    between atoms: N_6  and  C_15
REMARK    6  A    between atoms: N_7  and  C_14
REMARK    7  A    between atoms: C_12  and  C_14
REMARK    8  A    between atoms: C_15  and  C_16
REMARK    9  A    between atoms: C_24  and  C_25
REMARK                            x       y       z     vdW  Elec       q    Type
REMARK                         _______ _______ _______ _____ _____    ______ ____
ROOT
ATOM      2  O   UNL     1      -3.093  -2.325  24.479  0.00  0.00    -0.371 OA
ATOM     10  C   UNL     1      -0.924  -1.540  25.049  0.00  0.00    +0.111 C 
ATOM     11  C   UNL     1      -1.888  -0.369  25.043  0.00  0.00    +0.164 C 
ATOM     12  C   UNL     1      -3.222  -1.087  25.197  0.00  0.00    +0.164 C 
ATOM     13  C   UNL     1      -1.695  -2.569  24.237  0.00  0.00    +0.181 C 
ENDROOT
BRANCH  11   3
ATOM      3  O   UNL     1      -1.653   0.538  26.102  0.00  0.00    -0.388 OA
ATOM     28  H   UNL     1      -1.923   1.424  25.812  0.00  0.00    +0.210 HD
ENDBRANCH  11   3
BRANCH  10   6
ATOM      6  N   UNL     1       0.376  -1.229  24.477  0.00  0.00    -0.304 NA
ATOM     26  H   UNL     1       0.762  -2.073  24.052  0.00  0.00    +0.123 HD
BRANCH   6  15
ATOM     15  C   UNL     1       0.267  -0.193  23.457  0.00  0.00    +0.136 C 
BRANCH  15  16
ATOM      8  N   UNL     1       2.400   1.152  23.460  0.00  0.00    -0.347 N 
ATOM      9  N   UNL     1       3.527   0.393  21.703  0.00  0.00    -0.244 NA
ATOM     16  C   UNL     1       1.613   0.186  22.898  0.00  0.00    +0.049 A 
ATOM     18  C   UNL     1       2.329  -0.268  21.816  0.00  0.00    +0.134 A 
ATOM     21  C   UNL     1       3.538   1.240  22.708  0.00  0.00    +0.196 A 
ATOM     29  H   UNL     1       2.184   1.701  24.280  0.00  0.00    +0.167 HD
ENDBRANCH  15  16
ENDBRANCH   6  15
ENDBRANCH  10   6
BRANCH  12  14
ATOM     14  C   UNL     1      -4.397  -0.295  24.647  0.00  0.00    +0.140 C 
BRANCH  14   7
ATOM      7  N   UNL     1      -5.078   0.410  25.750  0.00  0.00    -0.187 NA
ATOM     27  H   UNL     1      -5.558  -0.188  26.434  0.00  0.00    +0.148 HD
BRANCH   7   1
ATOM      1  S   UNL     1      -5.646   1.998  25.524  0.00  0.00    +0.058 S 
ATOM      4  O   UNL     1      -6.243   2.475  26.757  0.00  0.00    -0.153 OA
ATOM      5  O   UNL     1      -6.391   2.060  24.281  0.00  0.00    -0.153 OA
BRANCH   1  17
ATOM     17  C   UNL     1      -4.140   2.888  25.267  0.00  0.00    +0.105 A 
ATOM     19  C   UNL     1      -3.650   3.730  26.265  0.00  0.00    +0.029 A 
ATOM     20  C   UNL     1      -3.445   2.751  24.066  0.00  0.00    +0.029 A 
ATOM     22  C   UNL     1      -2.463   4.435  26.062  0.00  0.00    +0.005 A 
ATOM     23  C   UNL     1      -2.259   3.456  23.862  0.00  0.00    +0.005 A 
ATOM     24  C   UNL     1      -1.768   4.298  24.860  0.00  0.00    -0.050 A 
ATOM     25  C   UNL     1      -0.499   5.052  24.643  0.00  0.00    +0.044 C 
ENDBRANCH   1  17
ENDBRANCH   7   1
ENDBRANCH  14   7
ENDBRANCH  12  14
TORSDOF 8
ENDMDL
MODEL 4
REMARK VINA RESULT:      -4.3      2.864      5.217
REMARK  Name = 75536715
REMARK  9 active torsions:
REMARK  status: ('A' for Active; 'I' for Inactive)
REMARK    1  A    between atoms: S_1  and  N_7
REMARK    2  A    between atoms: S_1  and  C_17
REMARK    3  A    between atoms: O_3  and  C_11
REMARK    4  A    between atoms: N_6  and  C_10
REMARK    5  A    between atoms: N_6  and  C_15
REMARK    6  A    between atoms: N_7  and  C_14
REMARK    7  A    between atoms: C_12  and  C_14
REMARK    8  A    between atoms: C_15  and  C_16
REMARK    9  A    between atoms: C_24  and  C_25
REMARK                            x       y       z     vdW  Elec       q    Type
REMARK                         _______ _______ _______ _____ _____    ______ ____
ROOT
ATOM      2  O   UNL     1       0.589  -1.200  23.472  0.00  0.00    -0.371 OA
ATOM     10  C   UNL     1       0.419   1.082  24.108  0.00  0.00    +0.111 C 
ATOM     11  C   UNL     1      -0.549   0.263  24.942  0.00  0.00    +0.164 C 
ATOM     12  C   UNL     1       0.052  -1.129  24.803  0.00  0.00    +0.164 C 
ATOM     13  C   UNL     1       0.694   0.137  22.950  0.00  0.00    +0.181 C 
ENDROOT
BRANCH  11   3
ATOM      3  O   UNL     1      -0.599   0.683  26.291  0.00  0.00    -0.388 OA
ATOM     28  H   UNL     1       0.262   1.069  26.523  0.00  0.00    +0.210 HD
ENDBRANCH  11   3
BRANCH  10   6
ATOM      6  N   UNL     1      -0.121   2.361  23.677  0.00  0.00    -0.304 NA
ATOM     26  H   UNL     1      -1.136   2.286  23.606  0.00  0.00    +0.123 HD
BRANCH   6  15
ATOM     15  C   UNL     1       0.210   3.418  24.626  0.00  0.00    +0.136 C 
BRANCH  15  16
ATOM      8  N   UNL     1      -1.804   3.285  26.137  0.00  0.00    -0.347 N 
ATOM      9  N   UNL     1      -2.744   5.290  25.972  0.00  0.00    -0.244 NA
ATOM     16  C   UNL     1      -1.021   3.996  25.272  0.00  0.00    +0.049 A 
ATOM     18  C   UNL     1      -1.621   5.230  25.186  0.00  0.00    +0.134 A 
ATOM     21  C   UNL     1      -2.826   4.103  26.531  0.00  0.00    +0.196 A 
ATOM     29  H   UNL     1      -1.657   2.330  26.434  0.00  0.00    +0.167 HD
ENDBRANCH  15  16
ENDBRANCH   6  15
ENDBRANCH  10   6
BRANCH  12  14
ATOM     14  C   UNL     1      -0.960  -2.243  25.007  0.00  0.00    +0.140 C 
BRANCH  14   7
ATOM      7  N   UNL     1      -2.062  -2.094  24.037  0.00  0.00    -0.187 NA
ATOM     27  H   UNL     1      -1.796  -1.740  23.109  0.00  0.00    +0.148 HD
BRANCH   7   1
ATOM      1  S   UNL     1      -3.649  -1.815  24.584  0.00  0.00    +0.058 S 
ATOM      4  O   UNL     1      -3.696  -1.977  26.025  0.00  0.00    -0.153 OA
ATOM      5  O   UNL     1      -4.575  -2.542  23.737  0.00  0.00    -0.153 OA
BRANCH   1  17
ATOM     17  C   UNL     1      -3.859  -0.097  24.222  0.00  0.00    +0.105 A 
ATOM     19  C   UNL     1      -3.120   0.495  23.198  0.00  0.00    +0.029 A 
ATOM     20  C   UNL     1      -4.761   0.666  24.962  0.00  0.00    +0.029 A 
ATOM     22  C   UNL     1      -3.284   1.851  22.913  0.00  0.00    +0.005 A 
ATOM     23  C   UNL     1      -4.925   2.022  24.678  0.00  0.00    +0.005 A 
ATOM     24  C   UNL     1      -4.186   2.615  23.655  0.00  0.00    -0.050 A 
ATOM     25  C   UNL     1      -4.360   4.065  23.350  0.00  0.00    +0.044 C 
ENDBRANCH   1  17
ENDBRANCH   7   1
ENDBRANCH  14   7
ENDBRANCH  12  14
TORSDOF 8
ENDMDL
MODEL 5
REMARK VINA RESULT:      -3.7      2.519      4.769
REMARK  Name = 75536715
REMARK  9 active torsions:
REMARK  status: ('A' for Active; 'I' for Inactive)
REMARK    1  A    between atoms: S_1  and  N_7
REMARK    2  A    between atoms: S_1  and  C_17
REMARK    3  A    between atoms: O_3  and  C_11
REMARK    4  A    between atoms: N_6  and  C_10
REMARK    5  A    between atoms: N_6  and  C_15
REMARK    6  A    between atoms: N_7  and  C_14
REMARK    7  A    between atoms: C_12  and  C_14
REMARK    8  A    between atoms: C_15  and  C_16
REMARK    9  A    between atoms: C_24  and  C_25
REMARK                            x       y       z     vdW  Elec       q    Type
REMARK                         _______ _______ _______ _____ _____    ______ ____
ROOT
ATOM      2  O   UNL     1      -3.520  -2.192  23.603  0.00  0.00    -0.371 OA
ATOM     10  C   UNL     1      -1.729  -2.224  25.162  0.00  0.00    +0.111 C 
ATOM     11  C   UNL     1      -2.709  -1.135  25.557  0.00  0.00    +0.164 C 
ATOM     12  C   UNL     1      -3.966  -1.595  24.832  0.00  0.00    +0.164 C 
ATOM     13  C   UNL     1      -2.111  -2.461  23.710  0.00  0.00    +0.181 C 
ENDROOT
BRANCH  11   3
ATOM      3  O   UNL     1      -2.906  -1.058  26.955  0.00  0.00    -0.388 OA
ATOM     28  H   UNL     1      -2.942  -1.962  27.309  0.00  0.00    +0.210 HD
ENDBRANCH  11   3
BRANCH  10   6
ATOM      6  N   UNL     1      -0.336  -1.842  25.325  0.00  0.00    -0.304 NA
ATOM     26  H   UNL     1       0.233  -2.687  25.396  0.00  0.00    +0.123 HD
BRANCH   6  15
ATOM     15  C   UNL     1       0.129  -1.053  24.190  0.00  0.00    +0.136 C 
BRANCH  15  16
ATOM      8  N   UNL     1      -0.159   0.916  25.740  0.00  0.00    -0.347 N 
ATOM      9  N   UNL     1       0.493   2.661  24.533  0.00  0.00    -0.244 NA
ATOM     16  C   UNL     1       0.204   0.414  24.522  0.00  0.00    +0.049 A 
ATOM     18  C   UNL     1       0.603   1.510  23.794  0.00  0.00    +0.134 A 
ATOM     21  C   UNL     1       0.031   2.268  25.699  0.00  0.00    +0.196 A 
ATOM     29  H   UNL     1      -0.505   0.386  26.529  0.00  0.00    +0.167 HD
ENDBRANCH  15  16
ENDBRANCH   6  15
ENDBRANCH  10   6
BRANCH  12  14
ATOM     14  C   UNL     1      -4.934  -0.464  24.532  0.00  0.00    +0.140 C 
BRANCH  14   7
ATOM      7  N   UNL     1      -5.079   0.393  25.725  0.00  0.00    -0.187 NA
ATOM     27  H   UNL     1      -5.110  -0.099  26.627  0.00  0.00    +0.148 HD
BRANCH   7   1
ATOM      1  S   UNL     1      -5.852   1.903  25.600  0.00  0.00    +0.058 S 
ATOM      4  O   UNL     1      -6.477   2.229  26.868  0.00  0.00    -0.153 OA
ATOM      5  O   UNL     1      -6.626   1.939  24.374  0.00  0.00    -0.153 OA
BRANCH   1  17
ATOM     17  C   UNL     1      -4.478   2.994  25.374  0.00  0.00    +0.105 A 
ATOM     19  C   UNL     1      -3.936   3.178  24.103  0.00  0.00    +0.029 A 
ATOM     20  C   UNL     1      -3.935   3.668  26.468  0.00  0.00    +0.029 A 
ATOM     22  C   UNL     1      -2.851   4.036  23.925  0.00  0.00    +0.005 A 
ATOM     23  C   UNL     1      -2.850   4.526  26.291  0.00  0.00    +0.005 A 
ATOM     24  C   UNL     1      -2.307   4.710  25.019  0.00  0.00    -0.050 A 
ATOM     25  C   UNL     1      -1.147   5.627  24.828  0.00  0.00    +0.044 C 
ENDBRANCH   1  17
ENDBRANCH   7   1
ENDBRANCH  14   7
ENDBRANCH  12  14
TORSDOF 8
ENDMDL
MODEL 6
REMARK VINA RESULT:      -3.0      2.657      3.625
REMARK  Name = 75536715
REMARK  9 active torsions:
REMARK  status: ('A' for Active; 'I' for Inactive)
REMARK    1  A    between atoms: S_1  and  N_7
REMARK    2  A    between atoms: S_1  and  C_17
REMARK    3  A    between atoms: O_3  and  C_11
REMARK    4  A    between atoms: N_6  and  C_10
REMARK    5  A    between atoms: N_6  and  C_15
REMARK    6  A    between atoms: N_7  and  C_14
REMARK    7  A    between atoms: C_12  and  C_14
REMARK    8  A    between atoms: C_15  and  C_16
REMARK    9  A    between atoms: C_24  and  C_25
REMARK                            x       y       z     vdW  Elec       q    Type
REMARK                         _______ _______ _______ _____ _____    ______ ____
ROOT
ATOM      2  O   UNL     1      -1.166   0.155  25.514  0.00  0.00    -0.371 OA
ATOM     10  C   UNL     1       0.307   0.080  23.651  0.00  0.00    +0.111 C 
ATOM     11  C   UNL     1       0.395   1.450  24.296  0.00  0.00    +0.164 C 
ATOM     12  C   UNL     1      -0.148   1.154  25.688  0.00  0.00    +0.164 C 
ATOM     13  C   UNL     1      -1.012  -0.431  24.209  0.00  0.00    +0.181 C 
ENDROOT
BRANCH  11   3
ATOM      3  O   UNL     1       1.717   1.949  24.341  0.00  0.00    -0.388 OA
ATOM     28  H   UNL     1       2.329   1.196  24.305  0.00  0.00    +0.210 HD
ENDBRANCH  11   3
BRANCH  10   6
ATOM      6  N   UNL     1       0.329   0.116  22.198  0.00  0.00    -0.304 NA
ATOM     26  H   UNL     1       0.415   1.086  21.892  0.00  0.00    +0.123 HD
BRANCH   6  15
ATOM     15  C   UNL     1       1.454  -0.648  21.671  0.00  0.00    +0.136 C 
BRANCH  15  16
ATOM      8  N   UNL     1       3.484   0.811  22.001  0.00  0.00    -0.347 N 
ATOM      9  N   UNL     1       4.595  -0.166  23.657  0.00  0.00    -0.244 NA
ATOM     16  C   UNL     1       2.746  -0.285  22.352  0.00  0.00    +0.049 A 
ATOM     18  C   UNL     1       3.452  -0.871  23.376  0.00  0.00    +0.134 A 
ATOM     21  C   UNL     1       4.584   0.841  22.812  0.00  0.00    +0.196 A 
ATOM     29  H   UNL     1       3.260   1.479  21.276  0.00  0.00    +0.167 HD
ENDBRANCH  15  16
ENDBRANCH   6  15
ENDBRANCH  10   6
BRANCH  12  14
ATOM     14  C   UNL     1      -0.738   2.374  26.374  0.00  0.00    +0.140 C 
BRANCH  14   7
ATOM      7  N   UNL     1      -0.215   3.600  25.741  0.00  0.00    -0.187 NA
ATOM     27  H   UNL     1       0.576   4.048  26.222  0.00  0.00    +0.148 HD
BRANCH   7   1
ATOM      1  S   UNL     1      -1.236   4.570  24.787  0.00  0.00    +0.058 S 
ATOM      4  O   UNL     1      -0.760   4.566  23.417  0.00  0.00    -0.153 OA
ATOM      5  O   UNL     1      -1.472   5.825  25.474  0.00  0.00    -0.153 OA
BRANCH   1  17
ATOM     17  C   UNL     1      -2.751   3.661  24.840  0.00  0.00    +0.105 A 
ATOM     19  C   UNL     1      -3.786   4.079  25.676  0.00  0.00    +0.029 A 
ATOM     20  C   UNL     1      -2.910   2.524  24.048  0.00  0.00    +0.029 A 
ATOM     22  C   UNL     1      -4.981   3.360  25.719  0.00  0.00    +0.005 A 
ATOM     23  C   UNL     1      -4.104   1.804  24.092  0.00  0.00    +0.005 A 
ATOM     24  C   UNL     1      -5.140   2.222  24.928  0.00  0.00    -0.050 A 
ATOM     25  C   UNL     1      -6.418   1.454  24.975  0.00  0.00    +0.044 C 
ENDBRANCH   1  17
ENDBRANCH   7   1
ENDBRANCH  14   7
ENDBRANCH  12  14
TORSDOF 8
ENDMDL
MODEL 7
REMARK VINA RESULT:      -2.9      2.168      3.076
REMARK  Name = 75536715
REMARK  9 active torsions:
REMARK  status: ('A' for Active; 'I' for Inactive)
REMARK    1  A    between atoms: S_1  and  N_7
REMARK    2  A    between atoms: S_1  and  C_17
REMARK    3  A    between atoms: O_3  and  C_11
REMARK    4  A    between atoms: N_6  and  C_10
REMARK    5  A    between atoms: N_6  and  C_15
REMARK    6  A    between atoms: N_7  and  C_14
REMARK    7  A    between atoms: C_12  and  C_14
REMARK    8  A    between atoms: C_15  and  C_16
REMARK    9  A    between atoms: C_24  and  C_25
REMARK                            x       y       z     vdW  Elec       q    Type
REMARK                         _______ _______ _______ _____ _____    ______ ____
ROOT
ATOM      2  O   UNL     1      -0.724   3.185  26.194  0.00  0.00    -0.371 OA
ATOM     10  C   UNL     1       0.292   2.269  24.252  0.00  0.00    +0.111 C 
ATOM     11  C   UNL     1      -0.483   3.514  23.864  0.00  0.00    +0.164 C 
ATOM     12  C   UNL     1      -0.592   4.223  25.207  0.00  0.00    +0.164 C 
ATOM     13  C   UNL     1      -0.328   1.937  25.599  0.00  0.00    +0.181 C 
ENDROOT
BRANCH  11   3
ATOM      3  O   UNL     1       0.195   4.304  22.906  0.00  0.00    -0.388 OA
ATOM     28  H   UNL     1      -0.387   5.037  22.647  0.00  0.00    +0.210 HD
ENDBRANCH  11   3
BRANCH  10   6
ATOM      6  N   UNL     1       0.174   1.185  23.292  0.00  0.00    -0.304 NA
ATOM     26  H   UNL     1       0.611   1.469  22.415  0.00  0.00    +0.123 HD
BRANCH   6  15
ATOM     15  C   UNL     1       0.830  -0.023  23.779  0.00  0.00    +0.136 C 
BRANCH  15  16
ATOM      8  N   UNL     1      -0.606  -0.877  25.668  0.00  0.00    -0.347 N 
ATOM      9  N   UNL     1      -1.606  -2.671  24.826  0.00  0.00    -0.244 NA
ATOM     16  C   UNL     1      -0.153  -0.990  24.384  0.00  0.00    +0.049 A 
ATOM     18  C   UNL     1      -0.784  -2.105  23.884  0.00  0.00    +0.134 A 
ATOM     21  C   UNL     1      -1.475  -1.908  25.888  0.00  0.00    +0.196 A 
ATOM     29  H   UNL     1      -0.347  -0.162  26.335  0.00  0.00    +0.167 HD
ENDBRANCH  15  16
ENDBRANCH   6  15
ENDBRANCH  10   6
BRANCH  12  14
ATOM     14  C   UNL     1      -1.778   5.167  25.294  0.00  0.00    +0.140 C 
BRANCH  14   7
ATOM      7  N   UNL     1      -2.954   4.545  24.653  0.00  0.00    -0.187 NA
ATOM     27  H   UNL     1      -3.188   4.895  23.715  0.00  0.00    +0.148 HD
BRANCH   7   1
ATOM      1  S   UNL     1      -4.201   3.894  25.608  0.00  0.00    +0.058 S 
ATOM      4  O   UNL     1      -5.458   4.526  25.254  0.00  0.00    -0.153 OA
ATOM      5  O   UNL     1      -3.767   3.857  26.992  0.00  0.00    -0.153 OA
BRANCH   1  17
ATOM     17  C   UNL     1      -4.254   2.220  25.041  0.00  0.00    +0.105 A 
ATOM     19  C   UNL     1      -5.154   1.319  25.611  0.00  0.00    +0.029 A 
ATOM     20  C   UNL     1      -3.395   1.800  24.026  0.00  0.00    +0.029 A 
ATOM     22  C   UNL     1      -5.194  -0.002  25.165  0.00  0.00    +0.005 A 
ATOM     23  C   UNL     1      -3.434   0.479  23.580  0.00  0.00    +0.005 A 
ATOM     24  C   UNL     1      -4.333  -0.423  24.150  0.00  0.00    -0.050 A 
ATOM     25  C   UNL     1      -4.377  -1.836  23.674  0.00  0.00    +0.044 C 
ENDBRANCH   1  17
ENDBRANCH   7   1
ENDBRANCH  14   7
ENDBRANCH  12  14
TORSDOF 8
ENDMDL
MODEL 8
REMARK VINA RESULT:      -2.7      2.828      5.779
REMARK  Name = 75536715
REMARK  9 active torsions:
REMARK  status: ('A' for Active; 'I' for Inactive)
REMARK    1  A    between atoms: S_1  and  N_7
REMARK    2  A    between atoms: S_1  and  C_17
REMARK    3  A    between atoms: O_3  and  C_11
REMARK    4  A    between atoms: N_6  and  C_10
REMARK    5  A    between atoms: N_6  and  C_15
REMARK    6  A    between atoms: N_7  and  C_14
REMARK    7  A    between atoms: C_12  and  C_14
REMARK    8  A    between atoms: C_15  and  C_16
REMARK    9  A    between atoms: C_24  and  C_25
REMARK                            x       y       z     vdW  Elec       q    Type
REMARK                         _______ _______ _______ _____ _____    ______ ____
ROOT
ATOM      2  O   UNL     1      -0.283   3.282  23.622  0.00  0.00    -0.371 OA
ATOM     10  C   UNL     1      -1.217   3.822  25.738  0.00  0.00    +0.111 C 
ATOM     11  C   UNL     1      -0.486   2.497  25.844  0.00  0.00    +0.164 C 
ATOM     12  C   UNL     1       0.446   2.579  24.643  0.00  0.00    +0.164 C 
ATOM     13  C   UNL     1      -1.404   3.943  24.234  0.00  0.00    +0.181 C 
ENDROOT
BRANCH  11   3
ATOM      3  O   UNL     1       0.229   2.363  27.057  0.00  0.00    -0.388 OA
ATOM     28  H   UNL     1       0.149   1.443  27.359  0.00  0.00    +0.210 HD
ENDBRANCH  11   3
BRANCH  10   6
ATOM      6  N   UNL     1      -2.474   3.856  26.468  0.00  0.00    -0.304 NA
ATOM     26  H   UNL     1      -2.373   4.475  27.273  0.00  0.00    +0.123 HD
BRANCH   6  15
ATOM     15  C   UNL     1      -3.558   4.346  25.626  0.00  0.00    +0.136 C 
BRANCH  15  16
ATOM      8  N   UNL     1      -5.625   3.108  26.370  0.00  0.00    -0.347 N 
ATOM      9  N   UNL     1      -6.018   1.664  24.729  0.00  0.00    -0.244 NA
ATOM     16  C   UNL     1      -4.639   3.314  25.446  0.00  0.00    +0.049 A 
ATOM     18  C   UNL     1      -4.902   2.411  24.443  0.00  0.00    +0.134 A 
ATOM     21  C   UNL     1      -6.428   2.109  25.896  0.00  0.00    +0.196 A 
ATOM     29  H   UNL     1      -5.742   3.602  27.244  0.00  0.00    +0.167 HD
ENDBRANCH  15  16
ENDBRANCH   6  15
ENDBRANCH  10   6
BRANCH  12  14
ATOM     14  C   UNL     1       0.876   1.219  24.122  0.00  0.00    +0.140 C 
BRANCH  14   7
ATOM      7  N   UNL     1      -0.301   0.336  24.012  0.00  0.00    -0.187 NA
ATOM     27  H   UNL     1      -1.105   0.725  23.501  0.00  0.00    +0.148 HD
BRANCH   7   1
ATOM      1  S   UNL     1      -0.593  -0.849  25.197  0.00  0.00    +0.058 S 
ATOM      4  O   UNL     1      -0.865  -0.203  26.467  0.00  0.00    -0.153 OA
ATOM      5  O   UNL     1       0.431  -1.873  25.103  0.00  0.00    -0.153 OA
BRANCH   1  17
ATOM     17  C   UNL     1      -2.100  -1.573  24.621  0.00  0.00    +0.105 A 
ATOM     19  C   UNL     1      -3.212  -0.768  24.378  0.00  0.00    +0.029 A 
ATOM     20  C   UNL     1      -2.176  -2.950  24.413  0.00  0.00    +0.029 A 
ATOM     22  C   UNL     1      -4.401  -1.339  23.925  0.00  0.00    +0.005 A 
ATOM     23  C   UNL     1      -3.366  -3.522  23.961  0.00  0.00    +0.005 A 
ATOM     24  C   UNL     1      -4.479  -2.717  23.718  0.00  0.00    -0.050 A 
ATOM     25  C   UNL     1      -5.751  -3.328  23.235  0.00  0.00    +0.044 C 
ENDBRANCH   1  17
ENDBRANCH   7   1
ENDBRANCH  14   7
ENDBRANCH  12  14
TORSDOF 8
ENDMDL
MODEL 9
REMARK VINA RESULT:      -2.7      3.185      4.984
REMARK  Name = 75536715
REMARK  9 active torsions:
REMARK  status: ('A' for Active; 'I' for Inactive)
REMARK    1  A    between atoms: S_1  and  N_7
REMARK    2  A    between atoms: S_1  and  C_17
REMARK    3  A    between atoms: O_3  and  C_11
REMARK    4  A    between atoms: N_6  and  C_10
REMARK    5  A    between atoms: N_6  and  C_15
REMARK    6  A    between atoms: N_7  and  C_14
REMARK    7  A    between atoms: C_12  and  C_14
REMARK    8  A    between atoms: C_15  and  C_16
REMARK    9  A    between atoms: C_24  and  C_25
REMARK                            x       y       z     vdW  Elec       q    Type
REMARK                         _______ _______ _______ _____ _____    ______ ____
ROOT
ATOM      2  O   UNL     1       0.140  -0.628  23.696  0.00  0.00    -0.371 OA
ATOM     10  C   UNL     1      -0.136   0.859  25.527  0.00  0.00    +0.111 C 
ATOM     11  C   UNL     1      -0.988  -0.374  25.759  0.00  0.00    +0.164 C 
ATOM     12  C   UNL     1      -0.308  -1.378  24.837  0.00  0.00    +0.164 C 
ATOM     13  C   UNL     1       0.121   0.770  24.031  0.00  0.00    +0.181 C 
ENDROOT
BRANCH  11   3
ATOM      3  O   UNL     1      -0.973  -0.803  27.106  0.00  0.00    -0.388 OA
ATOM     28  H   UNL     1      -0.070  -0.703  27.449  0.00  0.00    +0.210 HD
ENDBRANCH  11   3
BRANCH  10   6
ATOM      6  N   UNL     1      -0.786   2.099  25.916  0.00  0.00    -0.304 NA
ATOM     26  H   UNL     1      -1.401   1.917  26.710  0.00  0.00    +0.123 HD
BRANCH   6  15
ATOM     15  C   UNL     1       0.194   3.110  26.298  0.00  0.00    +0.136 C 
BRANCH  15  16
ATOM      8  N   UNL     1       2.153   2.808  27.856  0.00  0.00    -0.347 N 
ATOM      9  N   UNL     1       1.224   2.330  29.816  0.00  0.00    -0.244 NA
ATOM     16  C   UNL     1       0.803   2.818  27.643  0.00  0.00    +0.049 A 
ATOM     18  C   UNL     1       0.251   2.521  28.867  0.00  0.00    +0.134 A 
ATOM     21  C   UNL     1       2.358   2.511  29.174  0.00  0.00    +0.196 A 
ATOM     29  H   UNL     1       2.871   2.988  27.167  0.00  0.00    +0.167 HD
ENDBRANCH  15  16
ENDBRANCH   6  15
ENDBRANCH  10   6
BRANCH  12  14
ATOM     14  C   UNL     1      -1.229  -2.498  24.386  0.00  0.00    +0.140 C 
BRANCH  14   7
ATOM      7  N   UNL     1      -2.376  -1.930  23.650  0.00  0.00    -0.187 NA
ATOM     27  H   UNL     1      -2.140  -1.339  22.843  0.00  0.00    +0.148 HD
BRANCH   7   1
ATOM      1  S   UNL     1      -3.851  -1.655  24.452  0.00  0.00    +0.058 S 
ATOM      4  O   UNL     1      -3.719  -2.034  25.846  0.00  0.00    -0.153 OA
ATOM      5  O   UNL     1      -4.933  -2.192  23.649  0.00  0.00    -0.153 OA
BRANCH   1  17
ATOM     17  C   UNL     1      -3.979   0.107  24.377  0.00  0.00    +0.105 A 
ATOM     19  C   UNL     1      -3.240   0.820  23.433  0.00  0.00    +0.029 A 
ATOM     20  C   UNL     1      -4.816   0.784  25.264  0.00  0.00    +0.029 A 
ATOM     22  C   UNL     1      -3.340   2.211  23.375  0.00  0.00    +0.005 A 
ATOM     23  C   UNL     1      -4.915   2.174  25.207  0.00  0.00    +0.005 A 
ATOM     24  C   UNL     1      -4.176   2.888  24.263  0.00  0.00    -0.050 A 
ATOM     25  C   UNL     1      -4.282   4.375  24.201  0.00  0.00    +0.044 C 
ENDBRANCH   1  17
ENDBRANCH   7   1
ENDBRANCH  14   7
ENDBRANCH  12  14
TORSDOF 8
ENDMDL
MODEL 10
REMARK VINA RESULT:      -2.4      3.145      5.724
REMARK  Name = 75536715
REMARK  9 active torsions:
REMARK  status: ('A' for Active; 'I' for Inactive)
REMARK    1  A    between atoms: S_1  and  N_7
REMARK    2  A    between atoms: S_1  and  C_17
REMARK    3  A    between atoms: O_3  and  C_11
REMARK    4  A    between atoms: N_6  and  C_10
REMARK    5  A    between atoms: N_6  and  C_15
REMARK    6  A    between atoms: N_7  and  C_14
REMARK    7  A    between atoms: C_12  and  C_14
REMARK    8  A    between atoms: C_15  and  C_16
REMARK    9  A    between atoms: C_24  and  C_25
REMARK                            x       y       z     vdW  Elec       q    Type
REMARK                         _______ _______ _______ _____ _____    ______ ____
ROOT
ATOM      2  O   UNL     1      -0.103   4.424  24.854  0.00  0.00    -0.371 OA
ATOM     10  C   UNL     1      -2.401   4.907  25.212  0.00  0.00    +0.111 C 
ATOM     11  C   UNL     1      -2.042   3.636  25.957  0.00  0.00    +0.164 C 
ATOM     12  C   UNL     1      -0.529   3.777  26.065  0.00  0.00    +0.164 C 
ATOM     13  C   UNL     1      -1.254   5.009  24.220  0.00  0.00    +0.181 C 
ENDROOT
BRANCH  11   3
ATOM      3  O   UNL     1      -2.655   3.556  27.229  0.00  0.00    -0.388 OA
ATOM     28  H   UNL     1      -2.234   2.836  27.727  0.00  0.00    +0.210 HD
ENDBRANCH  11   3
BRANCH  10   6
ATOM      6  N   UNL     1      -3.703   4.858  24.567  0.00  0.00    -0.304 NA
ATOM     26  H   UNL     1      -3.721   5.535  23.803  0.00  0.00    +0.123 HD
BRANCH   6  15
ATOM     15  C   UNL     1      -3.972   3.530  24.028  0.00  0.00    +0.136 C 
BRANCH  15  16
ATOM      8  N   UNL     1      -5.508   3.288  26.014  0.00  0.00    -0.347 N 
ATOM      9  N   UNL     1      -6.461   1.303  25.728  0.00  0.00    -0.244 NA
ATOM     16  C   UNL     1      -4.986   2.785  24.855  0.00  0.00    +0.049 A 
ATOM     18  C   UNL     1      -5.590   1.559  24.699  0.00  0.00    +0.134 A 
ATOM     21  C   UNL     1      -6.388   2.363  26.502  0.00  0.00    +0.196 A 
ATOM     29  H   UNL     1      -5.286   4.180  26.435  0.00  0.00    +0.167 HD
ENDBRANCH  15  16
ENDBRANCH   6  15
ENDBRANCH  10   6
BRANCH  12  14
ATOM     14  C   UNL     1       0.189   2.447  26.216  0.00  0.00    +0.140 C 
BRANCH  14   7
ATOM      7  N   UNL     1      -0.691   1.355  25.756  0.00  0.00    -0.187 NA
ATOM     27  H   UNL     1      -0.977   0.679  26.476  0.00  0.00    +0.148 HD
BRANCH   7   1
ATOM      1  S   UNL     1      -0.629   0.835  24.138  0.00  0.00    +0.058 S 
ATOM      4  O   UNL     1       0.696   0.322  23.847  0.00  0.00    -0.153 OA
ATOM      5  O   UNL     1      -1.219   1.855  23.291  0.00  0.00    -0.153 OA
BRANCH   1  17
ATOM     17  C   UNL     1      -1.751  -0.532  24.154  0.00  0.00    +0.105 A 
ATOM     19  C   UNL     1      -1.292  -1.805  24.491  0.00  0.00    +0.029 A 
ATOM     20  C   UNL     1      -3.093  -0.337  23.828  0.00  0.00    +0.029 A 
ATOM     22  C   UNL     1      -2.176  -2.885  24.502  0.00  0.00    +0.005 A 
ATOM     23  C   UNL     1      -3.976  -1.416  23.838  0.00  0.00    +0.005 A 
ATOM     24  C   UNL     1      -3.518  -2.690  24.174  0.00  0.00    -0.050 A 
ATOM     25  C   UNL     1      -4.463  -3.845  24.186  0.00  0.00    +0.044 C 
ENDBRANCH   1  17
ENDBRANCH   7   1
ENDBRANCH  14   7
ENDBRANCH  12  14
TORSDOF 8
ENDMDL
