MODEL 1
REMARK VINA RESULT:       8.0      0.000      0.000
REMARK  Name = 11867238
REMARK  6 active torsions:
REMARK  status: ('A' for Active; 'I' for Inactive)
REMARK    1  A    between atoms: S_1  and  N_11
REMARK    2  A    between atoms: S_1  and  C_25
REMARK    3  A    between atoms: O_7  and  C_35
REMARK    4  A    between atoms: O_7  and  C_36
REMARK    5  A    between atoms: N_10  and  C_24
REMARK    6  A    between atoms: N_11  and  C_22
REMARK                            x       y       z     vdW  Elec       q    Type
REMARK                         _______ _______ _______ _____ _____    ______ ____
ROOT
ATOM      3  O   UNL     1      -0.027   2.436  26.246  0.00  0.00    -0.266 OA
ATOM      4  O   UNL     1      -4.671   0.009  26.613  0.00  0.00    -0.252 OA
ATOM      8  N   UNL     1      -4.943   1.935  25.358  0.00  0.00    -0.284 N 
ATOM      9  N   UNL     1      -1.993   3.141  25.183  0.00  0.00    -0.310 N 
ATOM     10  N   UNL     1      -4.784  -0.170  24.304  0.00  0.00    -0.269 N 
ATOM     12  C   UNL     1      -4.040   3.992  26.456  0.00  0.00    +0.027 C 
ATOM     13  C   UNL     1      -4.105   3.850  24.004  0.00  0.00    +0.054 C 
ATOM     14  C   UNL     1      -4.330   4.786  25.188  0.00  0.00    +0.018 C 
ATOM     15  C   UNL     1      -4.981   2.780  26.555  0.00  0.00    +0.114 C 
ATOM     16  C   UNL     1      -2.564   3.580  26.461  0.00  0.00    +0.130 C 
ATOM     17  C   UNL     1      -5.085   2.660  24.082  0.00  0.00    +0.119 C 
ATOM     18  C   UNL     1      -2.677   3.334  23.976  0.00  0.00    +0.027 A 
ATOM     19  C   UNL     1      -2.089   3.034  22.803  0.00  0.00    +0.024 A 
ATOM     20  C   UNL     1      -0.684   2.614  25.221  0.00  0.00    +0.274 A 
ATOM     21  C   UNL     1      -4.783   0.539  25.505  0.00  0.00    +0.306 C 
ATOM     22  C   UNL     1      -0.099   2.279  23.899  0.00  0.00    +0.112 A 
ATOM     23  C   UNL     1      -0.759   2.488  22.759  0.00  0.00    +0.031 A 
ATOM     37  H   UNL     1      -5.296   0.215  23.518  0.00  0.00    +0.156 HD
ENDROOT
BRANCH  10  24
ATOM      2  F   UNL     1      -2.430  -5.088  23.317  0.00  0.00    -0.205 F 
ATOM     24  C   UNL     1      -4.182  -1.428  24.053  0.00  0.00    +0.035 A 
ATOM     26  C   UNL     1      -2.833  -1.618  24.335  0.00  0.00    +0.026 A 
ATOM     27  C   UNL     1      -4.944  -2.467  23.523  0.00  0.00    +0.026 A 
ATOM     30  C   UNL     1      -2.240  -2.856  24.087  0.00  0.00    +0.040 A 
ATOM     31  C   UNL     1      -4.351  -3.705  23.274  0.00  0.00    +0.040 A 
ATOM     32  C   UNL     1      -2.999  -3.899  23.556  0.00  0.00    +0.124 A 
ENDBRANCH  10  24
BRANCH  22  11
ATOM     11  N   UNL     1       1.196   1.738  23.814  0.00  0.00    -0.211 N 
ATOM     38  H   UNL     1       1.883   2.405  23.431  0.00  0.00    +0.174 HD
BRANCH  11   1
ATOM      1  S   UNL     1       1.335   0.162  23.214  0.00  0.00    +0.073 S 
ATOM      5  O   UNL     1       0.655  -0.761  24.103  0.00  0.00    -0.150 OA
ATOM      6  O   UNL     1       1.046   0.154  21.792  0.00  0.00    -0.150 OA
BRANCH   1  25
ATOM     25  C   UNL     1       3.073  -0.110  23.401  0.00  0.00    +0.109 A 
ATOM     28  C   UNL     1       3.950   0.926  23.136  0.00  0.00    +0.032 A 
ATOM     29  C   UNL     1       3.522  -1.353  23.811  0.00  0.00    +0.032 A 
ATOM     33  C   UNL     1       5.321   0.712  23.284  0.00  0.00    +0.047 A 
ATOM     34  C   UNL     1       4.891  -1.568  23.960  0.00  0.00    +0.047 A 
ATOM     35  C   UNL     1       5.791  -0.535  23.696  0.00  0.00    +0.120 A 
BRANCH  35   7
ATOM      7  O   UNL     1       7.128  -0.743  23.842  0.00  0.00    -0.495 OA
ATOM     36  C   UNL     1       7.946  -0.538  22.691  0.00  0.00    +0.277 C 
ENDBRANCH  35   7
ENDBRANCH   1  25
ENDBRANCH  11   1
ENDBRANCH  22  11
TORSDOF 5
ENDMDL
MODEL 2
REMARK VINA RESULT:      11.4      2.924      7.551
REMARK  Name = 11867238
REMARK  6 active torsions:
REMARK  status: ('A' for Active; 'I' for Inactive)
REMARK    1  A    between atoms: S_1  and  N_11
REMARK    2  A    between atoms: S_1  and  C_25
REMARK    3  A    between atoms: O_7  and  C_35
REMARK    4  A    between atoms: O_7  and  C_36
REMARK    5  A    between atoms: N_10  and  C_24
REMARK    6  A    between atoms: N_11  and  C_22
REMARK                            x       y       z     vdW  Elec       q    Type
REMARK                         _______ _______ _______ _____ _____    ______ ____
ROOT
ATOM      3  O   UNL     1      -1.558   2.480  26.403  0.00  0.00    -0.266 OA
ATOM      4  O   UNL     1       0.959  -2.100  25.877  0.00  0.00    -0.252 OA
ATOM      8  N   UNL     1      -0.945  -2.151  24.563  0.00  0.00    -0.284 N 
ATOM      9  N   UNL     1      -2.210   0.753  24.959  0.00  0.00    -0.310 N 
ATOM     10  N   UNL     1       1.169  -1.748  23.595  0.00  0.00    -0.269 N 
ATOM     12  C   UNL     1      -3.034  -1.522  25.786  0.00  0.00    +0.027 C 
ATOM     13  C   UNL     1      -2.860  -1.094  23.372  0.00  0.00    +0.054 C 
ATOM     14  C   UNL     1      -3.806  -1.567  24.473  0.00  0.00    +0.018 C 
ATOM     15  C   UNL     1      -1.804  -2.442  25.714  0.00  0.00    +0.114 C 
ATOM     16  C   UNL     1      -2.652  -0.070  26.091  0.00  0.00    +0.130 C 
ATOM     17  C   UNL     1      -1.652  -2.049  23.273  0.00  0.00    +0.119 C 
ATOM     18  C   UNL     1      -2.374   0.320  23.637  0.00  0.00    +0.027 A 
ATOM     19  C   UNL     1      -2.072   1.135  22.609  0.00  0.00    +0.024 A 
ATOM     20  C   UNL     1      -1.710   2.037  25.265  0.00  0.00    +0.274 A 
ATOM     21  C   UNL     1       0.445  -1.998  24.761  0.00  0.00    +0.306 C 
ATOM     22  C   UNL     1      -1.372   2.880  24.091  0.00  0.00    +0.112 A 
ATOM     23  C   UNL     1      -1.554   2.456  22.840  0.00  0.00    +0.031 A 
ATOM     37  H   UNL     1       0.803  -2.099  22.717  0.00  0.00    +0.156 HD
ENDROOT
BRANCH  10  24
ATOM      2  F   UNL     1       6.048   0.845  23.181  0.00  0.00    -0.205 F 
ATOM     24  C   UNL     1       2.417  -1.085  23.488  0.00  0.00    +0.035 A 
ATOM     26  C   UNL     1       3.575  -1.716  23.932  0.00  0.00    +0.026 A 
ATOM     27  C   UNL     1       2.477   0.194  22.942  0.00  0.00    +0.026 A 
ATOM     30  C   UNL     1       4.804  -1.063  23.827  0.00  0.00    +0.040 A 
ATOM     31  C   UNL     1       3.705   0.847  22.837  0.00  0.00    +0.040 A 
ATOM     32  C   UNL     1       4.868   0.218  23.280  0.00  0.00    +0.124 A 
ENDBRANCH  10  24
BRANCH  22  11
ATOM     11  N   UNL     1      -0.857   4.175  24.275  0.00  0.00    -0.211 N 
ATOM     38  H   UNL     1       0.005   4.187  24.840  0.00  0.00    +0.174 HD
BRANCH  11   1
ATOM      1  S   UNL     1      -1.965   5.397  24.655  0.00  0.00    +0.073 S 
ATOM      5  O   UNL     1      -1.569   6.048  25.889  0.00  0.00    -0.150 OA
ATOM      6  O   UNL     1      -2.247   6.186  23.471  0.00  0.00    -0.150 OA
BRANCH   1  25
ATOM     25  C   UNL     1      -3.408   4.436  25.006  0.00  0.00    +0.109 A 
ATOM     28  C   UNL     1      -4.112   3.870  23.958  0.00  0.00    +0.032 A 
ATOM     29  C   UNL     1      -3.805   4.269  26.321  0.00  0.00    +0.032 A 
ATOM     33  C   UNL     1      -5.250   3.112  24.234  0.00  0.00    +0.047 A 
ATOM     34  C   UNL     1      -4.942   3.511  26.597  0.00  0.00    +0.047 A 
ATOM     35  C   UNL     1      -5.664   2.933  25.554  0.00  0.00    +0.120 A 
BRANCH  35   7
ATOM      7  O   UNL     1      -6.775   2.192  25.824  0.00  0.00    -0.495 OA
ATOM     36  C   UNL     1      -6.778   1.446  27.039  0.00  0.00    +0.277 C 
ENDBRANCH  35   7
ENDBRANCH   1  25
ENDBRANCH  11   1
ENDBRANCH  22  11
TORSDOF 5
ENDMDL
