MODEL 1
REMARK VINA RESULT:      -2.8      0.000      0.000
REMARK  Name = 11887241
REMARK  6 active torsions:
REMARK  status: ('A' for Active; 'I' for Inactive)
REMARK    1  A    between atoms: O_4  and  C_21
REMARK    2  A    between atoms: O_4  and  C_28
REMARK    3  A    between atoms: N_7  and  C_14
REMARK    4  A    between atoms: N_8  and  C_15
REMARK    5  A    between atoms: C_18  and  C_20
REMARK    6  A    between atoms: C_19  and  C_21
REMARK                            x       y       z     vdW  Elec       q    Type
REMARK                         _______ _______ _______ _____ _____    ______ ____
ROOT
ATOM      1  O   UNL     1      -2.596   3.966  24.513  0.00  0.00    -0.370 OA
ATOM      2  O   UNL     1      -3.476   2.124  22.121  0.00  0.00    -0.370 OA
ATOM     12  C   UNL     1      -3.594   2.025  23.552  0.00  0.00    +0.176 C 
ATOM     13  C   UNL     1      -2.324   2.604  24.146  0.00  0.00    +0.171 C 
ATOM     14  C   UNL     1      -4.700   2.940  24.043  0.00  0.00    +0.168 C 
ATOM     15  C   UNL     1      -1.325   2.557  23.012  0.00  0.00    +0.130 C 
ATOM     16  C   UNL     1      -3.978   4.263  24.268  0.00  0.00    +0.190 C 
ATOM     17  C   UNL     1      -2.213   2.717  21.792  0.00  0.00    +0.185 C 
ENDROOT
BRANCH  14   7
ATOM      7  N   UNL     1      -5.391   2.403  25.219  0.00  0.00    -0.217 N 
ATOM      9  N   UNL     1      -6.256   3.160  25.901  0.00  0.00    -0.043 NA
ATOM     10  N   UNL     1      -6.098   1.134  26.820  0.00  0.00    -0.108 NA
ATOM     11  N   UNL     1      -6.688   2.377  26.882  0.00  0.00    -0.023 NA
ATOM     18  C   UNL     1      -5.298   1.174  25.779  0.00  0.00    +0.182 A 
BRANCH  18  20
ATOM      5  O   UNL     1      -1.182  -1.473  25.801  0.00  0.00    -0.453 OA
ATOM      6  O   UNL     1      -1.952  -2.879  24.002  0.00  0.00    -0.453 OA
ATOM     20  C   UNL     1      -4.455   0.113  25.294  0.00  0.00    +0.024 A 
ATOM     22  C   UNL     1      -3.197  -0.097  25.869  0.00  0.00    +0.061 A 
ATOM     23  C   UNL     1      -4.902  -0.710  24.243  0.00  0.00    +0.015 A 
ATOM     24  C   UNL     1      -2.425  -1.125  25.369  0.00  0.00    +0.167 A 
ATOM     25  C   UNL     1      -4.100  -1.745  23.757  0.00  0.00    +0.050 A 
ATOM     26  C   UNL     1      -2.865  -1.928  24.342  0.00  0.00    +0.166 A 
ATOM     27  C   UNL     1      -0.889  -2.584  24.931  0.00  0.00    +0.466 C 
ENDBRANCH  18  20
ENDBRANCH  14   7
BRANCH  15   8
ATOM      3  O   UNL     1       0.903   1.750  24.680  0.00  0.00    -0.272 OA
ATOM      8  N   UNL     1      -0.624   1.296  22.985  0.00  0.00    -0.305 N 
ATOM     19  C   UNL     1       0.437   0.999  23.828  0.00  0.00    +0.251 C 
ATOM     34  H   UNL     1      -0.962   0.576  22.352  0.00  0.00    +0.149 HD
BRANCH  19  21
ATOM     21  C   UNL     1       0.979  -0.393  23.580  0.00  0.00    +0.324 C 
BRANCH  21   4
ATOM      4  O   UNL     1       1.993  -0.366  22.599  0.00  0.00    -0.483 OA
BRANCH   4  28
ATOM     28  C   UNL     1       3.294  -0.304  23.042  0.00  0.00    +0.121 A 
ATOM     29  C   UNL     1       3.859  -1.412  23.658  0.00  0.00    +0.045 A 
ATOM     30  C   UNL     1       4.020   0.865  22.867  0.00  0.00    +0.045 A 
ATOM     31  C   UNL     1       5.178  -1.348  24.109  0.00  0.00    +0.004 A 
ATOM     32  C   UNL     1       5.339   0.928  23.317  0.00  0.00    +0.004 A 
ATOM     33  C   UNL     1       5.917  -0.178  23.939  0.00  0.00    +0.000 A 
ENDBRANCH   4  28
ENDBRANCH  21   4
ENDBRANCH  19  21
ENDBRANCH  15   8
TORSDOF 6
ENDMDL
MODEL 2
REMARK VINA RESULT:       0.2      1.530      4.074
REMARK  Name = 11887241
REMARK  6 active torsions:
REMARK  status: ('A' for Active; 'I' for Inactive)
REMARK    1  A    between atoms: O_4  and  C_21
REMARK    2  A    between atoms: O_4  and  C_28
REMARK    3  A    between atoms: N_7  and  C_14
REMARK    4  A    between atoms: N_8  and  C_15
REMARK    5  A    between atoms: C_18  and  C_20
REMARK    6  A    between atoms: C_19  and  C_21
REMARK                            x       y       z     vdW  Elec       q    Type
REMARK                         _______ _______ _______ _____ _____    ______ ____
ROOT
ATOM      1  O   UNL     1      -3.320  -2.095  24.706  0.00  0.00    -0.370 OA
ATOM      2  O   UNL     1      -1.358  -0.032  26.043  0.00  0.00    -0.370 OA
ATOM     12  C   UNL     1      -2.467   0.090  25.133  0.00  0.00    +0.176 C 
ATOM     13  C   UNL     1      -2.413  -1.103  24.199  0.00  0.00    +0.171 C 
ATOM     14  C   UNL     1      -3.773  -0.071  25.888  0.00  0.00    +0.168 C 
ATOM     15  C   UNL     1      -0.987  -1.596  24.303  0.00  0.00    +0.130 C 
ATOM     16  C   UNL     1      -4.007  -1.576  25.853  0.00  0.00    +0.190 C 
ATOM     17  C   UNL     1      -0.618  -1.218  25.726  0.00  0.00    +0.185 C 
ENDROOT
BRANCH  14   7
ATOM      7  N   UNL     1      -4.854   0.738  25.317  0.00  0.00    -0.217 N 
ATOM      9  N   UNL     1      -6.065   0.209  25.119  0.00  0.00    -0.043 NA
ATOM     10  N   UNL     1      -6.031   2.342  24.471  0.00  0.00    -0.108 NA
ATOM     11  N   UNL     1      -6.784   1.197  24.601  0.00  0.00    -0.023 NA
ATOM     18  C   UNL     1      -4.837   2.034  24.922  0.00  0.00    +0.182 A 
BRANCH  18  20
ATOM      5  O   UNL     1      -0.485   3.637  23.361  0.00  0.00    -0.453 OA
ATOM      6  O   UNL     1      -0.359   5.303  25.098  0.00  0.00    -0.453 OA
ATOM     20  C   UNL     1      -3.689   2.899  24.996  0.00  0.00    +0.024 A 
ATOM     22  C   UNL     1      -2.656   2.769  24.062  0.00  0.00    +0.061 A 
ATOM     23  C   UNL     1      -3.612   3.873  26.010  0.00  0.00    +0.015 A 
ATOM     24  C   UNL     1      -1.577   3.620  24.174  0.00  0.00    +0.167 A 
ATOM     25  C   UNL     1      -2.507   4.722  26.101  0.00  0.00    +0.050 A 
ATOM     26  C   UNL     1      -1.504   4.571  25.166  0.00  0.00    +0.166 A 
ATOM     27  C   UNL     1       0.281   4.706  23.951  0.00  0.00    +0.466 C 
ENDBRANCH  18  20
ENDBRANCH  14   7
BRANCH  15   8
ATOM      3  O   UNL     1       0.439   0.900  24.665  0.00  0.00    -0.272 OA
ATOM      8  N   UNL     1      -0.133  -0.930  23.349  0.00  0.00    -0.305 N 
ATOM     19  C   UNL     1       0.511   0.269  23.614  0.00  0.00    +0.251 C 
ATOM     34  H   UNL     1       0.041  -1.393  22.461  0.00  0.00    +0.149 HD
BRANCH  19  21
ATOM     21  C   UNL     1       1.339   0.735  22.435  0.00  0.00    +0.324 C 
BRANCH  21   4
ATOM      4  O   UNL     1       2.290  -0.244  22.076  0.00  0.00    -0.483 OA
BRANCH   4  28
ATOM     28  C   UNL     1       3.462  -0.275  22.795  0.00  0.00    +0.121 A 
ATOM     29  C   UNL     1       3.829  -1.441  23.453  0.00  0.00    +0.045 A 
ATOM     30  C   UNL     1       4.258   0.860  22.853  0.00  0.00    +0.045 A 
ATOM     31  C   UNL     1       5.017  -1.471  24.184  0.00  0.00    +0.004 A 
ATOM     32  C   UNL     1       5.446   0.829  23.584  0.00  0.00    +0.004 A 
ATOM     33  C   UNL     1       5.824  -0.336  24.250  0.00  0.00    +0.000 A 
ENDBRANCH   4  28
ENDBRANCH  21   4
ENDBRANCH  19  21
ENDBRANCH  15   8
TORSDOF 6
ENDMDL
