MODEL 1
REMARK VINA RESULT:      -3.7      0.000      0.000
REMARK  Name = 45783739
REMARK  4 active torsions:
REMARK  status: ('A' for Active; 'I' for Inactive)
REMARK    1  A    between atoms: N_2  and  C_9
REMARK    2  A    between atoms: N_3  and  C_19
REMARK    3  A    between atoms: C_10  and  C_18
REMARK    4  A    between atoms: C_20  and  C_21
REMARK                            x       y       z     vdW  Elec       q    Type
REMARK                         _______ _______ _______ _____ _____    ______ ____
ROOT
ATOM      1  O   UNL     1      -6.541  -9.772  15.116  0.00  0.00    -0.336 OA
ATOM      4  N   UNL     1      -6.380 -10.489  12.999  0.00  0.00    -0.190 NA
ATOM      5  N   UNL     1      -5.188  -9.661  14.769  0.00  0.00    -0.056 NA
ATOM     18  C   UNL     1      -7.171 -10.266  14.018  0.00  0.00    +0.245 A 
ATOM     20  C   UNL     1      -5.174 -10.102  13.507  0.00  0.00    +0.207 A 
ENDROOT
BRANCH  20  21
ATOM      6  N   UNL     1      -1.597 -10.510  12.525  0.00  0.00    -0.220 NA
ATOM      7  N   UNL     1      -2.618 -10.673  14.654  0.00  0.00    -0.342 N 
ATOM      8  N   UNL     1      -2.915 -10.010  10.571  0.00  0.00    -0.243 NA
ATOM     21  C   UNL     1      -3.972 -10.171  12.727  0.00  0.00    +0.080 A 
ATOM     22  C   UNL     1      -2.729 -10.445  13.259  0.00  0.00    +0.130 A 
ATOM     23  C   UNL     1      -4.006  -9.960  11.364  0.00  0.00    +0.127 A 
ATOM     24  C   UNL     1      -1.761 -10.286  11.208  0.00  0.00    +0.223 A 
ATOM     25  H   UNL     1      -3.242 -10.177  15.277  0.00  0.00    +0.144 HD
ATOM     26  H   UNL     1      -1.690 -10.883  15.000  0.00  0.00    +0.144 HD
ENDBRANCH  20  21
BRANCH  18  10
ATOM      2  N   UNL     1      -9.362  -9.314  14.717  0.00  0.00    -0.288 NA
ATOM     10  C   UNL     1      -8.665 -10.481  14.138  0.00  0.00    +0.146 C 
ATOM     11  C   UNL     1     -10.713  -9.320  14.156  0.00  0.00    +0.085 C 
ATOM     14  C   UNL     1      -9.346 -10.706  12.776  0.00  0.00    +0.030 C 
ATOM     15  C   UNL     1     -10.449  -9.660  12.704  0.00  0.00    +0.017 C 
BRANCH   2   9
ATOM      3  N   UNL     1     -10.607 -10.178  18.687  0.00  0.00    -0.305 NA
ATOM      9  C   UNL     1      -9.373  -9.317  16.178  0.00  0.00    +0.060 C 
ATOM     12  C   UNL     1      -9.237 -10.748  16.706  0.00  0.00    +0.034 C 
ATOM     13  C   UNL     1     -10.657  -8.681  16.718  0.00  0.00    +0.034 C 
ATOM     16  C   UNL     1      -9.347 -10.781  18.232  0.00  0.00    +0.085 C 
ATOM     17  C   UNL     1     -10.719  -8.782  18.244  0.00  0.00    +0.085 C 
ATOM     19  C   UNL     1     -10.719 -10.265  20.144  0.00  0.00    +0.104 C 
ENDBRANCH   2   9
ENDBRANCH  18  10
TORSDOF 3
ENDMDL
MODEL 2
REMARK VINA RESULT:      -3.5      2.278      2.992
REMARK  Name = 45783739
REMARK  4 active torsions:
REMARK  status: ('A' for Active; 'I' for Inactive)
REMARK    1  A    between atoms: N_2  and  C_9
REMARK    2  A    between atoms: N_3  and  C_19
REMARK    3  A    between atoms: C_10  and  C_18
REMARK    4  A    between atoms: C_20  and  C_21
REMARK                            x       y       z     vdW  Elec       q    Type
REMARK                         _______ _______ _______ _____ _____    ______ ____
ROOT
ATOM      1  O   UNL     1      -6.725  -9.016  13.745  0.00  0.00    -0.336 OA
ATOM      4  N   UNL     1      -7.601 -10.295  12.128  0.00  0.00    -0.190 NA
ATOM      5  N   UNL     1      -5.777  -9.044  12.714  0.00  0.00    -0.056 NA
ATOM     18  C   UNL     1      -7.766  -9.777  13.318  0.00  0.00    +0.245 A 
ATOM     20  C   UNL     1      -6.367  -9.816  11.797  0.00  0.00    +0.207 A 
ENDROOT
BRANCH  20  21
ATOM      6  N   UNL     1      -3.817 -10.677   9.212  0.00  0.00    -0.220 NA
ATOM      7  N   UNL     1      -3.564 -10.321  11.538  0.00  0.00    -0.342 N 
ATOM      8  N   UNL     1      -5.985 -10.499   8.175  0.00  0.00    -0.243 NA
ATOM     21  C   UNL     1      -5.748 -10.132  10.542  0.00  0.00    +0.080 A 
ATOM     22  C   UNL     1      -4.399 -10.380  10.393  0.00  0.00    +0.130 A 
ATOM     23  C   UNL     1      -6.500 -10.207   9.387  0.00  0.00    +0.127 A 
ATOM     24  C   UNL     1      -4.657 -10.720   8.160  0.00  0.00    +0.223 A 
ATOM     25  H   UNL     1      -3.793  -9.663  12.271  0.00  0.00    +0.144 HD
ATOM     26  H   UNL     1      -2.583 -10.521  11.385  0.00  0.00    +0.144 HD
ENDBRANCH  20  21
BRANCH  18  10
ATOM      2  N   UNL     1      -8.724  -9.187  15.539  0.00  0.00    -0.288 NA
ATOM     10  C   UNL     1      -8.939  -9.908  14.268  0.00  0.00    +0.146 C 
ATOM     11  C   UNL     1     -10.048  -8.787  16.017  0.00  0.00    +0.085 C 
ATOM     14  C   UNL     1     -10.238  -9.311  13.696  0.00  0.00    +0.030 C 
ATOM     15  C   UNL     1     -10.710  -8.311  14.740  0.00  0.00    +0.017 C 
BRANCH   2   9
ATOM      3  N   UNL     1      -6.455 -10.096  19.016  0.00  0.00    -0.305 NA
ATOM      9  C   UNL     1      -7.996  -9.975  16.531  0.00  0.00    +0.060 C 
ATOM     12  C   UNL     1      -8.652  -9.829  17.908  0.00  0.00    +0.034 C 
ATOM     13  C   UNL     1      -6.529  -9.545  16.605  0.00  0.00    +0.034 C 
ATOM     16  C   UNL     1      -7.846 -10.567  18.979  0.00  0.00    +0.085 C 
ATOM     17  C   UNL     1      -5.793 -10.292  17.719  0.00  0.00    +0.085 C 
ATOM     19  C   UNL     1      -5.712 -10.774  20.079  0.00  0.00    +0.104 C 
ENDBRANCH   2   9
ENDBRANCH  18  10
TORSDOF 3
ENDMDL
MODEL 3
REMARK VINA RESULT:      -3.5     14.298     15.465
REMARK  Name = 45783739
REMARK  4 active torsions:
REMARK  status: ('A' for Active; 'I' for Inactive)
REMARK    1  A    between atoms: N_2  and  C_9
REMARK    2  A    between atoms: N_3  and  C_19
REMARK    3  A    between atoms: C_10  and  C_18
REMARK    4  A    between atoms: C_20  and  C_21
REMARK                            x       y       z     vdW  Elec       q    Type
REMARK                         _______ _______ _______ _____ _____    ______ ____
ROOT
ATOM      1  O   UNL     1      -1.043   1.121  25.119  0.00  0.00    -0.336 OA
ATOM      4  N   UNL     1      -0.279  -0.537  23.822  0.00  0.00    -0.190 NA
ATOM      5  N   UNL     1       0.202   1.546  24.637  0.00  0.00    -0.056 NA
ATOM     18  C   UNL     1      -1.249  -0.114  24.591  0.00  0.00    +0.245 A 
ATOM     20  C   UNL     1       0.588   0.514  23.880  0.00  0.00    +0.207 A 
ENDROOT
BRANCH  20  21
ATOM      6  N   UNL     1       3.166  -0.033  21.239  0.00  0.00    -0.220 NA
ATOM      7  N   UNL     1       0.865  -0.584  21.255  0.00  0.00    -0.342 N 
ATOM      8  N   UNL     1       4.178   1.055  23.135  0.00  0.00    -0.243 NA
ATOM     21  C   UNL     1       1.835   0.502  23.171  0.00  0.00    +0.080 A 
ATOM     22  C   UNL     1       1.992  -0.022  21.905  0.00  0.00    +0.130 A 
ATOM     23  C   UNL     1       2.973   1.034  23.744  0.00  0.00    +0.127 A 
ATOM     24  C   UNL     1       4.202   0.514  21.903  0.00  0.00    +0.223 A 
ATOM     25  H   UNL     1       0.161  -1.045  21.816  0.00  0.00    +0.144 HD
ATOM     26  H   UNL     1       1.022  -0.945  20.322  0.00  0.00    +0.144 HD
ENDBRANCH  20  21
BRANCH  18  10
ATOM      2  N   UNL     1      -3.584  -0.662  23.923  0.00  0.00    -0.288 NA
ATOM     10  C   UNL     1      -2.547  -0.799  24.966  0.00  0.00    +0.146 C 
ATOM     11  C   UNL     1      -4.432  -1.849  24.025  0.00  0.00    +0.085 C 
ATOM     14  C   UNL     1      -2.384  -2.318  25.157  0.00  0.00    +0.030 C 
ATOM     15  C   UNL     1      -3.410  -2.949  24.226  0.00  0.00    +0.017 C 
BRANCH   2   9
ATOM      3  N   UNL     1      -4.748   3.192  25.285  0.00  0.00    -0.305 NA
ATOM      9  C   UNL     1      -4.353   0.575  24.036  0.00  0.00    +0.060 C 
ATOM     12  C   UNL     1      -3.468   1.781  23.704  0.00  0.00    +0.034 C 
ATOM     13  C   UNL     1      -4.940   0.730  25.442  0.00  0.00    +0.034 C 
ATOM     16  C   UNL     1      -4.229   3.092  23.914  0.00  0.00    +0.085 C 
ATOM     17  C   UNL     1      -5.652   2.076  25.594  0.00  0.00    +0.085 C 
ATOM     19  C   UNL     1      -5.427   4.473  25.484  0.00  0.00    +0.104 C 
ENDBRANCH   2   9
ENDBRANCH  18  10
TORSDOF 3
ENDMDL
MODEL 4
REMARK VINA RESULT:      -3.4     14.552     15.780
REMARK  Name = 45783739
REMARK  4 active torsions:
REMARK  status: ('A' for Active; 'I' for Inactive)
REMARK    1  A    between atoms: N_2  and  C_9
REMARK    2  A    between atoms: N_3  and  C_19
REMARK    3  A    between atoms: C_10  and  C_18
REMARK    4  A    between atoms: C_20  and  C_21
REMARK                            x       y       z     vdW  Elec       q    Type
REMARK                         _______ _______ _______ _____ _____    ______ ____
ROOT
ATOM      1  O   UNL     1      -1.356   3.260  24.817  0.00  0.00    -0.336 OA
ATOM      4  N   UNL     1      -1.229   1.368  23.623  0.00  0.00    -0.190 NA
ATOM      5  N   UNL     1       0.009   2.982  24.671  0.00  0.00    -0.056 NA
ATOM     18  C   UNL     1      -2.014   2.261  24.171  0.00  0.00    +0.245 A 
ATOM     20  C   UNL     1       0.002   1.853  23.955  0.00  0.00    +0.207 A 
ENDROOT
BRANCH  20  21
ATOM      6  N   UNL     1       2.471  -0.820  23.128  0.00  0.00    -0.220 NA
ATOM      7  N   UNL     1       0.224  -0.996  23.848  0.00  0.00    -0.342 N 
ATOM      8  N   UNL     1       3.494   1.341  22.826  0.00  0.00    -0.243 NA
ATOM     21  C   UNL     1       1.207   1.183  23.559  0.00  0.00    +0.080 A 
ATOM     22  C   UNL     1       1.337  -0.189  23.500  0.00  0.00    +0.130 A 
ATOM     23  C   UNL     1       2.329   1.905  23.207  0.00  0.00    +0.127 A 
ATOM     24  C   UNL     1       3.494  -0.005  22.808  0.00  0.00    +0.223 A 
ATOM     25  H   UNL     1      -0.412  -0.664  24.562  0.00  0.00    +0.144 HD
ATOM     26  H   UNL     1       0.358  -1.997  23.778  0.00  0.00    +0.144 HD
ENDBRANCH  20  21
BRANCH  18  10
ATOM      2  N   UNL     1      -4.114   1.719  25.393  0.00  0.00    -0.288 NA
ATOM     10  C   UNL     1      -3.527   2.332  24.184  0.00  0.00    +0.146 C 
ATOM     11  C   UNL     1      -5.370   2.425  25.646  0.00  0.00    +0.085 C 
ATOM     14  C   UNL     1      -4.055   3.778  24.183  0.00  0.00    +0.030 C 
ATOM     15  C   UNL     1      -4.976   3.866  25.391  0.00  0.00    +0.017 C 
BRANCH   2   9
ATOM      3  N   UNL     1      -3.323  -2.334  24.389  0.00  0.00    -0.305 NA
ATOM      9  C   UNL     1      -4.309   0.277  25.270  0.00  0.00    +0.060 C 
ATOM     12  C   UNL     1      -3.202  -0.473  26.016  0.00  0.00    +0.034 C 
ATOM     13  C   UNL     1      -4.329  -0.151  23.800  0.00  0.00    +0.034 C 
ATOM     16  C   UNL     1      -3.332  -1.985  25.816  0.00  0.00    +0.085 C 
ATOM     17  C   UNL     1      -4.423  -1.673  23.672  0.00  0.00    +0.085 C 
ATOM     19  C   UNL     1      -3.397  -3.785  24.216  0.00  0.00    +0.104 C 
ENDBRANCH   2   9
ENDBRANCH  18  10
TORSDOF 3
ENDMDL
MODEL 5
REMARK VINA RESULT:      -3.3     14.966     16.144
REMARK  Name = 45783739
REMARK  4 active torsions:
REMARK  status: ('A' for Active; 'I' for Inactive)
REMARK    1  A    between atoms: N_2  and  C_9
REMARK    2  A    between atoms: N_3  and  C_19
REMARK    3  A    between atoms: C_10  and  C_18
REMARK    4  A    between atoms: C_20  and  C_21
REMARK                            x       y       z     vdW  Elec       q    Type
REMARK                         _______ _______ _______ _____ _____    ______ ____
ROOT
ATOM      1  O   UNL     1      -0.453  -0.394  22.690  0.00  0.00    -0.336 OA
ATOM      4  N   UNL     1       0.829  -0.736  24.495  0.00  0.00    -0.190 NA
ATOM      5  N   UNL     1       0.872  -0.247  22.260  0.00  0.00    -0.056 NA
ATOM     18  C   UNL     1      -0.388  -0.681  24.016  0.00  0.00    +0.245 A 
ATOM     20  C   UNL     1       1.568  -0.464  23.381  0.00  0.00    +0.207 A 
ENDROOT
BRANCH  20  21
ATOM      6  N   UNL     1       5.084   0.765  23.167  0.00  0.00    -0.220 NA
ATOM      7  N   UNL     1       3.049   1.903  22.767  0.00  0.00    -0.342 N 
ATOM      8  N   UNL     1       5.082  -1.554  23.824  0.00  0.00    -0.243 NA
ATOM     21  C   UNL     1       3.001  -0.413  23.421  0.00  0.00    +0.080 A 
ATOM     22  C   UNL     1       3.736   0.717  23.130  0.00  0.00    +0.130 A 
ATOM     23  C   UNL     1       3.733  -1.531  23.766  0.00  0.00    +0.127 A 
ATOM     24  C   UNL     1       5.683  -0.389  23.518  0.00  0.00    +0.223 A 
ATOM     25  H   UNL     1       2.179   1.823  22.256  0.00  0.00    +0.144 HD
ATOM     26  H   UNL     1       3.626   2.713  22.574  0.00  0.00    +0.144 HD
ENDBRANCH  20  21
BRANCH  18  10
ATOM      2  N   UNL     1      -2.786  -0.035  24.185  0.00  0.00    -0.288 NA
ATOM     10  C   UNL     1      -1.710  -0.889  24.727  0.00  0.00    +0.146 C 
ATOM     11  C   UNL     1      -4.037  -0.764  24.394  0.00  0.00    +0.085 C 
ATOM     14  C   UNL     1      -2.243  -2.326  24.585  0.00  0.00    +0.030 C 
ATOM     15  C   UNL     1      -3.644  -2.176  24.012  0.00  0.00    +0.017 C 
BRANCH   2   9
ATOM      3  N   UNL     1      -1.924   4.084  24.782  0.00  0.00    -0.305 NA
ATOM      9  C   UNL     1      -2.820   1.298  24.783  0.00  0.00    +0.060 C 
ATOM     12  C   UNL     1      -3.335   2.321  23.766  0.00  0.00    +0.034 C 
ATOM     13  C   UNL     1      -1.432   1.711  25.281  0.00  0.00    +0.034 C 
ATOM     16  C   UNL     1      -3.283   3.738  24.342  0.00  0.00    +0.085 C 
ATOM     17  C   UNL     1      -1.443   3.148  25.807  0.00  0.00    +0.085 C 
ATOM     19  C   UNL     1      -1.881   5.458  25.281  0.00  0.00    +0.104 C 
ENDBRANCH   2   9
ENDBRANCH  18  10
TORSDOF 3
ENDMDL
MODEL 6
REMARK VINA RESULT:      -3.1     15.006     16.172
REMARK  Name = 45783739
REMARK  4 active torsions:
REMARK  status: ('A' for Active; 'I' for Inactive)
REMARK    1  A    between atoms: N_2  and  C_9
REMARK    2  A    between atoms: N_3  and  C_19
REMARK    3  A    between atoms: C_10  and  C_18
REMARK    4  A    between atoms: C_20  and  C_21
REMARK                            x       y       z     vdW  Elec       q    Type
REMARK                         _______ _______ _______ _____ _____    ______ ____
ROOT
ATOM      1  O   UNL     1      -0.157   0.296  22.631  0.00  0.00    -0.336 OA
ATOM      4  N   UNL     1       1.353   1.319  23.932  0.00  0.00    -0.190 NA
ATOM      5  N   UNL     1       1.054  -0.378  22.427  0.00  0.00    -0.056 NA
ATOM     18  C   UNL     1       0.107   1.279  23.531  0.00  0.00    +0.245 A 
ATOM     20  C   UNL     1       1.894   0.283  23.229  0.00  0.00    +0.207 A 
ENDROOT
BRANCH  20  21
ATOM      6  N   UNL     1       5.620   0.465  23.136  0.00  0.00    -0.220 NA
ATOM      7  N   UNL     1       4.003   2.089  22.547  0.00  0.00    -0.342 N 
ATOM      8  N   UNL     1       4.941  -1.702  23.941  0.00  0.00    -0.243 NA
ATOM     21  C   UNL     1       3.281  -0.063  23.347  0.00  0.00    +0.080 A 
ATOM     22  C   UNL     1       4.315   0.791  23.025  0.00  0.00    +0.130 A 
ATOM     23  C   UNL     1       3.657  -1.310  23.806  0.00  0.00    +0.127 A 
ATOM     24  C   UNL     1       5.857  -0.779  23.594  0.00  0.00    +0.223 A 
ATOM     25  H   UNL     1       3.166   2.215  21.994  0.00  0.00    +0.144 HD
ATOM     26  H   UNL     1       4.792   2.688  22.334  0.00  0.00    +0.144 HD
ENDBRANCH  20  21
BRANCH  18  10
ATOM      2  N   UNL     1      -1.585   1.843  25.267  0.00  0.00    -0.288 NA
ATOM     10  C   UNL     1      -1.057   2.164  23.925  0.00  0.00    +0.146 C 
ATOM     11  C   UNL     1      -2.136   3.087  25.803  0.00  0.00    +0.085 C 
ATOM     14  C   UNL     1      -0.675   3.653  24.002  0.00  0.00    +0.030 C 
ATOM     15  C   UNL     1      -1.080   4.096  25.400  0.00  0.00    +0.017 C 
BRANCH   2   9
ATOM      3  N   UNL     1      -3.556  -1.738  24.101  0.00  0.00    -0.305 NA
ATOM      9  C   UNL     1      -2.572   0.765  25.254  0.00  0.00    +0.060 C 
ATOM     12  C   UNL     1      -1.891  -0.580  25.520  0.00  0.00    +0.034 C 
ATOM     13  C   UNL     1      -3.316   0.718  23.917  0.00  0.00    +0.034 C 
ATOM     16  C   UNL     1      -2.893  -1.732  25.412  0.00  0.00    +0.085 C 
ATOM     17  C   UNL     1      -4.271  -0.477  23.861  0.00  0.00    +0.085 C 
ATOM     19  C   UNL     1      -4.471  -2.875  23.995  0.00  0.00    +0.104 C 
ENDBRANCH   2   9
ENDBRANCH  18  10
TORSDOF 3
ENDMDL
