MODEL 1
REMARK VINA RESULT:       5.5      0.000      0.000
REMARK  Name = 11912132
REMARK  7 active torsions:
REMARK  status: ('A' for Active; 'I' for Inactive)
REMARK    1  A    between atoms: N_8  and  C_18
REMARK    2  A    between atoms: C_11  and  C_14
REMARK    3  A    between atoms: C_14  and  C_18
REMARK    4  A    between atoms: C_18  and  C_30
REMARK    5  A    between atoms: C_19  and  C_27
REMARK    6  A    between atoms: C_20  and  C_24
REMARK    7  A    between atoms: C_31  and  C_32
REMARK                            x       y       z     vdW  Elec       q    Type
REMARK                         _______ _______ _______ _____ _____    ______ ____
ROOT
ATOM      2  O   UNL     1      -2.631   3.736  23.561  0.00  0.00    -0.275 OA
ATOM      5  O   UNL     1       1.570  -1.755  22.569  0.00  0.00    -0.269 OA
ATOM      6  N   UNL     1      -0.590   2.652  23.814  0.00  0.00    -0.298 N 
ATOM      7  N   UNL     1       1.219   0.437  23.232  0.00  0.00    -0.283 N 
ATOM     19  C   UNL     1      -0.203   0.370  22.888  0.00  0.00    +0.179 C 
ATOM     21  C   UNL     1      -0.833   1.746  22.688  0.00  0.00    +0.139 C 
ATOM     22  C   UNL     1       0.681   2.498  24.527  0.00  0.00    +0.127 C 
ATOM     23  C   UNL     1       1.724   1.728  23.724  0.00  0.00    +0.128 C 
ATOM     24  C   UNL     1      -1.558   3.598  24.153  0.00  0.00    +0.219 C 
ATOM     31  C   UNL     1       2.033  -0.690  22.981  0.00  0.00    +0.254 C 
ENDROOT
BRANCH  24  20
ATOM      9  N   UNL     1      -3.556   4.752  27.089  0.00  0.00    -0.316 NA
ATOM     20  C   UNL     1      -1.233   4.492  25.317  0.00  0.00    +0.078 C 
ATOM     25  C   UNL     1      -2.132   5.731  25.320  0.00  0.00    +0.028 C 
ATOM     26  C   UNL     1      -1.348   3.730  26.638  0.00  0.00    +0.028 C 
ATOM     28  C   UNL     1      -3.553   5.415  25.786  0.00  0.00    +0.081 C 
ATOM     29  C   UNL     1      -2.804   3.498  27.048  0.00  0.00    +0.081 C 
ATOM     37  H   UNL     1      -4.517   4.559  27.368  0.00  0.00    +0.122 HD
ENDBRANCH  24  20
BRANCH  31  32
ATOM      1  S   UNL     1       4.294   0.815  22.646  0.00  0.00    -0.092 S 
ATOM     32  C   UNL     1       3.463  -0.559  23.241  0.00  0.00    +0.074 A 
ATOM     33  C   UNL     1       4.298  -1.411  23.928  0.00  0.00    +0.021 A 
ATOM     34  C   UNL     1       5.640  -0.930  23.966  0.00  0.00    +0.008 A 
ATOM     35  C   UNL     1       5.778   0.271  23.307  0.00  0.00    +0.046 A 
ENDBRANCH  31  32
BRANCH  19  27
ATOM      3  O   UNL     1      -0.290  -0.847  24.944  0.00  0.00    -0.274 OA
ATOM      8  N   UNL     1      -2.268  -0.466  23.774  0.00  0.00    -0.302 N 
ATOM     27  C   UNL     1      -0.902  -0.374  23.990  0.00  0.00    +0.236 C 
ATOM     36  H   UNL     1      -2.659  -0.093  22.914  0.00  0.00    +0.150 HD
BRANCH   8  18
ATOM     18  C   UNL     1      -3.165  -1.152  24.676  0.00  0.00    +0.159 C 
BRANCH  18  30
ATOM      4  O   UNL     1      -4.060  -3.332  24.081  0.00  0.00    -0.274 OA
ATOM     10  N   UNL     1      -1.821  -3.162  24.567  0.00  0.00    -0.328 N 
ATOM     30  C   UNL     1      -3.089  -2.647  24.396  0.00  0.00    +0.231 C 
ATOM     38  H   UNL     1      -1.031  -2.589  24.847  0.00  0.00    +0.145 HD
ATOM     39  H   UNL     1      -1.636  -4.148  24.420  0.00  0.00    +0.145 HD
ENDBRANCH  18  30
BRANCH  18  14
ATOM     14  C   UNL     1      -4.594  -0.605  24.598  0.00  0.00    +0.035 C 
BRANCH  14  11
ATOM     11  C   UNL     1      -4.753   0.811  25.145  0.00  0.00    -0.009 C 
ATOM     12  C   UNL     1      -5.929   0.884  26.127  0.00  0.00    +0.003 C 
ATOM     13  C   UNL     1      -4.934   1.818  24.000  0.00  0.00    +0.003 C 
ATOM     15  C   UNL     1      -6.142   2.304  26.648  0.00  0.00    +0.000 C 
ATOM     16  C   UNL     1      -5.149   3.236  24.525  0.00  0.00    +0.000 C 
ATOM     17  C   UNL     1      -6.314   3.302  25.508  0.00  0.00    +0.000 C 
ENDBRANCH  14  11
ENDBRANCH  18  14
ENDBRANCH   8  18
ENDBRANCH  19  27
TORSDOF 7
ENDMDL
MODEL 2
REMARK VINA RESULT:       7.8      2.444      6.510
REMARK  Name = 11912132
REMARK  7 active torsions:
REMARK  status: ('A' for Active; 'I' for Inactive)
REMARK    1  A    between atoms: N_8  and  C_18
REMARK    2  A    between atoms: C_11  and  C_14
REMARK    3  A    between atoms: C_14  and  C_18
REMARK    4  A    between atoms: C_18  and  C_30
REMARK    5  A    between atoms: C_19  and  C_27
REMARK    6  A    between atoms: C_20  and  C_24
REMARK    7  A    between atoms: C_31  and  C_32
REMARK                            x       y       z     vdW  Elec       q    Type
REMARK                         _______ _______ _______ _____ _____    ______ ____
ROOT
ATOM      2  O   UNL     1       4.229   0.485  21.970  0.00  0.00    -0.275 OA
ATOM      5  O   UNL     1      -2.618   0.717  23.326  0.00  0.00    -0.269 OA
ATOM      6  N   UNL     1       2.338  -0.291  23.075  0.00  0.00    -0.298 N 
ATOM      7  N   UNL     1      -0.550  -0.315  23.494  0.00  0.00    -0.283 N 
ATOM     19  C   UNL     1       0.094   0.725  22.690  0.00  0.00    +0.179 C 
ATOM     21  C   UNL     1       1.420   0.273  22.082  0.00  0.00    +0.139 C 
ATOM     22  C   UNL     1       1.737  -1.011  24.201  0.00  0.00    +0.127 C 
ATOM     23  C   UNL     1       0.296  -1.434  23.935  0.00  0.00    +0.128 C 
ATOM     24  C   UNL     1       3.713  -0.119  22.912  0.00  0.00    +0.219 C 
ATOM     31  C   UNL     1      -1.944  -0.239  23.712  0.00  0.00    +0.254 C 
ENDROOT
BRANCH  24  20
ATOM      9  N   UNL     1       7.401  -0.049  23.493  0.00  0.00    -0.316 NA
ATOM     20  C   UNL     1       4.588  -0.729  23.971  0.00  0.00    +0.078 C 
ATOM     25  C   UNL     1       5.581  -1.718  23.354  0.00  0.00    +0.028 C 
ATOM     26  C   UNL     1       5.318   0.355  24.766  0.00  0.00    +0.028 C 
ATOM     28  C   UNL     1       6.725  -1.012  22.625  0.00  0.00    +0.081 C 
ATOM     29  C   UNL     1       6.473   0.973  23.977  0.00  0.00    +0.081 C 
ATOM     37  H   UNL     1       8.156   0.399  22.976  0.00  0.00    +0.122 HD
ENDBRANCH  24  20
BRANCH  31  32
ATOM      1  S   UNL     1      -2.724  -1.246  26.136  0.00  0.00    -0.092 S 
ATOM     32  C   UNL     1      -2.574  -1.342  24.432  0.00  0.00    +0.074 A 
ATOM     33  C   UNL     1      -3.096  -2.514  23.932  0.00  0.00    +0.021 A 
ATOM     34  C   UNL     1      -3.628  -3.345  24.961  0.00  0.00    +0.008 A 
ATOM     35  C   UNL     1      -3.491  -2.776  26.208  0.00  0.00    +0.046 A 
ENDBRANCH  31  32
BRANCH  19  27
ATOM      3  O   UNL     1       1.414   2.414  23.750  0.00  0.00    -0.274 OA
ATOM      8  N   UNL     1      -0.877   2.352  24.160  0.00  0.00    -0.302 N 
ATOM     27  C   UNL     1       0.303   1.921  23.576  0.00  0.00    +0.236 C 
ATOM     36  H   UNL     1      -1.731   1.826  23.996  0.00  0.00    +0.150 HD
BRANCH   8  18
ATOM     18  C   UNL     1      -0.945   3.470  25.073  0.00  0.00    +0.159 C 
BRANCH  18  30
ATOM      4  O   UNL     1      -1.196   3.159  27.470  0.00  0.00    -0.274 OA
ATOM     10  N   UNL     1       0.723   2.398  26.461  0.00  0.00    -0.328 N 
ATOM     30  C   UNL     1      -0.519   2.997  26.456  0.00  0.00    +0.231 C 
ATOM     38  H   UNL     1       1.280   2.289  25.619  0.00  0.00    +0.145 HD
ATOM     39  H   UNL     1       1.127   2.046  27.322  0.00  0.00    +0.145 HD
ENDBRANCH  18  30
BRANCH  18  14
ATOM     14  C   UNL     1      -2.324   4.136  25.071  0.00  0.00    +0.035 C 
BRANCH  14  11
ATOM     11  C   UNL     1      -3.486   3.172  25.302  0.00  0.00    -0.009 C 
ATOM     12  C   UNL     1      -4.181   2.832  23.978  0.00  0.00    +0.003 C 
ATOM     13  C   UNL     1      -4.485   3.760  26.309  0.00  0.00    +0.003 C 
ATOM     15  C   UNL     1      -5.380   1.911  24.190  0.00  0.00    +0.000 C 
ATOM     16  C   UNL     1      -5.684   2.836  26.517  0.00  0.00    +0.000 C 
ATOM     17  C   UNL     1      -6.366   2.494  25.196  0.00  0.00    +0.000 C 
ENDBRANCH  14  11
ENDBRANCH  18  14
ENDBRANCH   8  18
ENDBRANCH  19  27
TORSDOF 7
ENDMDL
MODEL 3
REMARK VINA RESULT:       8.4      2.364      6.026
REMARK  Name = 11912132
REMARK  7 active torsions:
REMARK  status: ('A' for Active; 'I' for Inactive)
REMARK    1  A    between atoms: N_8  and  C_18
REMARK    2  A    between atoms: C_11  and  C_14
REMARK    3  A    between atoms: C_14  and  C_18
REMARK    4  A    between atoms: C_18  and  C_30
REMARK    5  A    between atoms: C_19  and  C_27
REMARK    6  A    between atoms: C_20  and  C_24
REMARK    7  A    between atoms: C_31  and  C_32
REMARK                            x       y       z     vdW  Elec       q    Type
REMARK                         _______ _______ _______ _____ _____    ______ ____
ROOT
ATOM      2  O   UNL     1      -4.602   4.511  23.490  0.00  0.00    -0.275 OA
ATOM      5  O   UNL     1       1.665   2.190  25.521  0.00  0.00    -0.269 OA
ATOM      6  N   UNL     1      -3.123   3.791  25.133  0.00  0.00    -0.298 N 
ATOM      7  N   UNL     1      -0.450   3.006  26.002  0.00  0.00    -0.283 N 
ATOM     19  C   UNL     1      -0.784   3.127  24.581  0.00  0.00    +0.179 C 
ATOM     21  C   UNL     1      -1.940   4.091  24.322  0.00  0.00    +0.139 C 
ATOM     22  C   UNL     1      -2.888   3.232  26.468  0.00  0.00    +0.127 C 
ATOM     23  C   UNL     1      -1.465   3.459  26.965  0.00  0.00    +0.128 C 
ATOM     24  C   UNL     1      -4.393   4.042  24.611  0.00  0.00    +0.219 C 
ATOM     31  C   UNL     1       0.843   2.562  26.360  0.00  0.00    +0.254 C 
ENDROOT
BRANCH  24  20
ATOM      9  N   UNL     1      -6.337   0.904  25.174  0.00  0.00    -0.316 NA
ATOM     20  C   UNL     1      -5.555   3.711  25.505  0.00  0.00    +0.078 C 
ATOM     25  C   UNL     1      -6.774   3.288  24.681  0.00  0.00    +0.028 C 
ATOM     26  C   UNL     1      -5.174   2.627  26.515  0.00  0.00    +0.028 C 
ATOM     28  C   UNL     1      -6.630   1.873  24.119  0.00  0.00    +0.081 C 
ATOM     29  C   UNL     1      -5.098   1.240  25.874  0.00  0.00    +0.081 C 
ATOM     37  H   UNL     1      -6.250  -0.026  24.763  0.00  0.00    +0.122 HD
ENDBRANCH  24  20
BRANCH  31  32
ATOM      1  S   UNL     1       2.744   3.040  28.270  0.00  0.00    -0.092 S 
ATOM     32  C   UNL     1       1.179   2.546  27.780  0.00  0.00    +0.074 A 
ATOM     33  C   UNL     1       0.395   2.176  28.849  0.00  0.00    +0.021 A 
ATOM     34  C   UNL     1       1.088   2.301  30.089  0.00  0.00    +0.008 A 
ATOM     35  C   UNL     1       2.375   2.760  29.919  0.00  0.00    +0.046 A 
ENDBRANCH  31  32
BRANCH  19  27
ATOM      3  O   UNL     1      -2.268   1.317  24.093  0.00  0.00    -0.274 OA
ATOM      8  N   UNL     1      -0.000   1.074  23.624  0.00  0.00    -0.302 N 
ATOM     27  C   UNL     1      -1.120   1.754  24.073  0.00  0.00    +0.236 C 
ATOM     36  H   UNL     1       0.913   1.510  23.715  0.00  0.00    +0.150 HD
BRANCH   8  18
ATOM     18  C   UNL     1      -0.050  -0.275  23.106  0.00  0.00    +0.159 C 
BRANCH  18  30
ATOM      4  O   UNL     1      -0.975  -2.305  24.069  0.00  0.00    -0.274 OA
ATOM     10  N   UNL     1      -0.118  -0.713  25.486  0.00  0.00    -0.328 N 
ATOM     30  C   UNL     1      -0.426  -1.219  24.240  0.00  0.00    +0.231 C 
ATOM     38  H   UNL     1       0.317   0.195  25.614  0.00  0.00    +0.145 HD
ATOM     39  H   UNL     1      -0.326  -1.240  26.327  0.00  0.00    +0.145 HD
ENDBRANCH  18  30
BRANCH  18  14
ATOM     14  C   UNL     1       1.254  -0.675  22.408  0.00  0.00    +0.035 C 
BRANCH  14  11
ATOM     11  C   UNL     1       2.518  -0.263  23.158  0.00  0.00    -0.009 C 
ATOM     12  C   UNL     1       3.293   0.802  22.371  0.00  0.00    +0.003 C 
ATOM     13  C   UNL     1       3.403  -1.485  23.440  0.00  0.00    +0.003 C 
ATOM     15  C   UNL     1       4.590   1.192  23.076  0.00  0.00    +0.000 C 
ATOM     16  C   UNL     1       4.701  -1.091  24.143  0.00  0.00    +0.000 C 
ATOM     17  C   UNL     1       5.463  -0.025  23.362  0.00  0.00    +0.000 C 
ENDBRANCH  14  11
ENDBRANCH  18  14
ENDBRANCH   8  18
ENDBRANCH  19  27
TORSDOF 7
ENDMDL
MODEL 4
REMARK VINA RESULT:       8.5      2.368      6.609
REMARK  Name = 11912132
REMARK  7 active torsions:
REMARK  status: ('A' for Active; 'I' for Inactive)
REMARK    1  A    between atoms: N_8  and  C_18
REMARK    2  A    between atoms: C_11  and  C_14
REMARK    3  A    between atoms: C_14  and  C_18
REMARK    4  A    between atoms: C_18  and  C_30
REMARK    5  A    between atoms: C_19  and  C_27
REMARK    6  A    between atoms: C_20  and  C_24
REMARK    7  A    between atoms: C_31  and  C_32
REMARK                            x       y       z     vdW  Elec       q    Type
REMARK                         _______ _______ _______ _____ _____    ______ ____
ROOT
ATOM      2  O   UNL     1      -2.443   5.014  26.293  0.00  0.00    -0.275 OA
ATOM      5  O   UNL     1       0.304  -1.301  25.127  0.00  0.00    -0.269 OA
ATOM      6  N   UNL     1      -2.586   2.842  25.476  0.00  0.00    -0.298 N 
ATOM      7  N   UNL     1      -1.502   0.150  25.164  0.00  0.00    -0.283 N 
ATOM     19  C   UNL     1      -0.674   1.253  25.659  0.00  0.00    +0.179 C 
ATOM     21  C   UNL     1      -1.491   2.359  26.322  0.00  0.00    +0.139 C 
ATOM     22  C   UNL     1      -3.219   1.863  24.587  0.00  0.00    +0.127 C 
ATOM     23  C   UNL     1      -2.937   0.421  24.994  0.00  0.00    +0.128 C 
ATOM     24  C   UNL     1      -2.968   4.182  25.549  0.00  0.00    +0.219 C 
ATOM     31  C   UNL     1      -0.905  -1.116  24.975  0.00  0.00    +0.254 C 
ENDROOT
BRANCH  24  20
ATOM      9  N   UNL     1      -6.399   2.810  25.007  0.00  0.00    -0.316 NA
ATOM     20  C   UNL     1      -4.101   4.599  24.653  0.00  0.00    +0.078 C 
ATOM     25  C   UNL     1      -4.442   3.490  23.654  0.00  0.00    +0.028 C 
ATOM     26  C   UNL     1      -5.330   4.991  25.476  0.00  0.00    +0.028 C 
ATOM     28  C   UNL     1      -5.205   2.336  24.307  0.00  0.00    +0.081 C 
ATOM     29  C   UNL     1      -6.055   3.773  26.051  0.00  0.00    +0.081 C 
ATOM     37  H   UNL     1      -6.881   2.015  25.426  0.00  0.00    +0.122 HD
ENDBRANCH  24  20
BRANCH  31  32
ATOM      1  S   UNL     1      -3.291  -2.403  25.352  0.00  0.00    -0.092 S 
ATOM     32  C   UNL     1      -1.775  -2.218  24.577  0.00  0.00    +0.074 A 
ATOM     33  C   UNL     1      -1.561  -3.187  23.622  0.00  0.00    +0.021 A 
ATOM     34  C   UNL     1      -2.656  -4.094  23.526  0.00  0.00    +0.008 A 
ATOM     35  C   UNL     1      -3.665  -3.784  24.410  0.00  0.00    +0.046 A 
ENDBRANCH  31  32
BRANCH  19  27
ATOM      3  O   UNL     1       0.055   2.984  24.179  0.00  0.00    -0.274 OA
ATOM      8  N   UNL     1       0.827   0.813  23.842  0.00  0.00    -0.302 N 
ATOM     27  C   UNL     1       0.103   1.797  24.494  0.00  0.00    +0.236 C 
ATOM     36  H   UNL     1       0.740  -0.151  24.150  0.00  0.00    +0.150 HD
BRANCH   8  18
ATOM     18  C   UNL     1       1.640   1.072  22.675  0.00  0.00    +0.159 C 
BRANCH  18  30
ATOM      4  O   UNL     1       2.393  -0.347  20.852  0.00  0.00    -0.274 OA
ATOM     10  N   UNL     1       0.561  -1.008  22.069  0.00  0.00    -0.328 N 
ATOM     30  C   UNL     1       1.601  -0.152  21.771  0.00  0.00    +0.231 C 
ATOM     38  H   UNL     1      -0.100  -0.825  22.819  0.00  0.00    +0.145 HD
ATOM     39  H   UNL     1       0.417  -1.857  21.534  0.00  0.00    +0.145 HD
ENDBRANCH  18  30
BRANCH  18  14
ATOM     14  C   UNL     1       3.066   1.492  23.046  0.00  0.00    +0.035 C 
BRANCH  14  11
ATOM     11  C   UNL     1       4.085   0.355  23.004  0.00  0.00    -0.009 C 
ATOM     12  C   UNL     1       3.583  -0.853  23.806  0.00  0.00    +0.003 C 
ATOM     13  C   UNL     1       5.448   0.829  23.526  0.00  0.00    +0.003 C 
ATOM     15  C   UNL     1       4.608  -1.984  23.823  0.00  0.00    +0.000 C 
ATOM     16  C   UNL     1       6.470  -0.306  23.544  0.00  0.00    +0.000 C 
ATOM     17  C   UNL     1       5.963  -1.508  24.335  0.00  0.00    +0.000 C 
ENDBRANCH  14  11
ENDBRANCH  18  14
ENDBRANCH   8  18
ENDBRANCH  19  27
TORSDOF 7
ENDMDL
