MODEL 1
REMARK VINA RESULT:       1.2      0.000      0.000
REMARK  Name = 40467553
REMARK  6 active torsions:
REMARK  status: ('A' for Active; 'I' for Inactive)
REMARK    1  A    between atoms: S_1  and  N_7
REMARK    2  A    between atoms: S_1  and  C_26
REMARK    3  A    between atoms: N_5  and  C_14
REMARK    4  A    between atoms: N_7  and  C_24
REMARK    5  A    between atoms: C_14  and  C_15
REMARK    6  A    between atoms: C_31  and  C_32
REMARK                            x       y       z     vdW  Elec       q    Type
REMARK                         _______ _______ _______ _____ _____    ______ ____
ROOT
ATOM      2  O   UNL     1       0.161   2.599  26.061  0.00  0.00    -0.266 OA
ATOM      5  N   UNL     1      -4.748   1.801  25.388  0.00  0.00    -0.301 NA
ATOM      6  N   UNL     1      -1.844   3.036  24.929  0.00  0.00    -0.310 N 
ATOM      8  C   UNL     1      -3.900   4.063  26.060  0.00  0.00    +0.024 C 
ATOM      9  C   UNL     1      -3.992   3.467  23.686  0.00  0.00    +0.050 C 
ATOM     10  C   UNL     1      -4.206   4.611  24.672  0.00  0.00    +0.017 C 
ATOM     11  C   UNL     1      -4.839   2.880  26.380  0.00  0.00    +0.089 C 
ATOM     12  C   UNL     1      -4.957   2.307  24.023  0.00  0.00    +0.094 C 
ATOM     13  C   UNL     1      -2.417   3.671  26.123  0.00  0.00    +0.130 C 
ATOM     16  C   UNL     1      -2.552   2.987  23.721  0.00  0.00    +0.026 A 
ATOM     22  C   UNL     1      -1.971   2.501  22.609  0.00  0.00    +0.024 A 
ATOM     23  C   UNL     1      -0.517   2.570  25.034  0.00  0.00    +0.274 A 
ATOM     24  C   UNL     1       0.062   2.025  23.780  0.00  0.00    +0.112 A 
ATOM     25  C   UNL     1      -0.623   2.003  22.635  0.00  0.00    +0.031 A 
ENDROOT
BRANCH  24   7
ATOM      7  N   UNL     1       1.376   1.525  23.765  0.00  0.00    -0.211 N 
ATOM     33  H   UNL     1       2.062   2.211  23.420  0.00  0.00    +0.174 HD
BRANCH   7   1
ATOM      1  S   UNL     1       1.595  -0.048  23.180  0.00  0.00    +0.072 S 
ATOM      3  O   UNL     1       1.017  -1.000  24.110  0.00  0.00    -0.150 OA
ATOM      4  O   UNL     1       1.248  -0.098  21.772  0.00  0.00    -0.150 OA
BRANCH   1  26
ATOM     26  C   UNL     1       3.354  -0.199  23.296  0.00  0.00    +0.109 A 
ATOM     27  C   UNL     1       4.171   0.859  22.900  0.00  0.00    +0.029 A 
ATOM     28  C   UNL     1       3.922  -1.376  23.783  0.00  0.00    +0.029 A 
ATOM     29  C   UNL     1       5.559   0.740  22.990  0.00  0.00    +0.005 A 
ATOM     30  C   UNL     1       5.309  -1.495  23.873  0.00  0.00    +0.005 A 
ATOM     31  C   UNL     1       6.127  -0.436  23.477  0.00  0.00    -0.050 A 
ATOM     32  C   UNL     1       7.610  -0.563  23.574  0.00  0.00    +0.044 C 
ENDBRANCH   1  26
ENDBRANCH   7   1
ENDBRANCH  24   7
BRANCH   5  14
ATOM     14  C   UNL     1      -5.687   0.725  25.696  0.00  0.00    +0.088 C 
BRANCH  14  15
ATOM     15  C   UNL     1      -5.048  -0.644  25.476  0.00  0.00    +0.003 C 
ATOM     17  C   UNL     1      -4.885  -0.931  23.978  0.00  0.00    +0.005 C 
ATOM     18  C   UNL     1      -3.697  -0.735  26.200  0.00  0.00    +0.005 C 
ATOM     19  C   UNL     1      -4.199  -2.274  23.732  0.00  0.00    +0.000 C 
ATOM     20  C   UNL     1      -3.014  -2.077  25.951  0.00  0.00    +0.000 C 
ATOM     21  C   UNL     1      -2.861  -2.364  24.460  0.00  0.00    +0.000 C 
ENDBRANCH  14  15
ENDBRANCH   5  14
TORSDOF 5
ENDMDL
