MODEL 1
REMARK VINA RESULT:       0.7      0.000      0.000
REMARK  Name = 25338283
REMARK  7 active torsions:
REMARK  status: ('A' for Active; 'I' for Inactive)
REMARK    1  A    between atoms: O_3  and  C_19
REMARK    2  A    between atoms: O_3  and  C_26
REMARK    3  A    between atoms: N_4  and  C_15
REMARK    4  A    between atoms: N_5  and  C_10
REMARK    5  A    between atoms: C_11  and  C_14
REMARK    6  A    between atoms: C_16  and  C_17
REMARK    7  A    between atoms: C_18  and  C_21
REMARK                            x       y       z     vdW  Elec       q    Type
REMARK                         _______ _______ _______ _____ _____    ______ ____
ROOT
ATOM      4  N   UNL     1      -2.135  -1.829  25.254  0.00  0.00    -0.293 NA
ATOM     10  C   UNL     1      -4.064  -1.047  24.206  0.00  0.00    +0.089 C 
ATOM     11  C   UNL     1      -1.736  -1.691  23.841  0.00  0.00    +0.147 C 
ATOM     12  C   UNL     1      -2.950  -1.031  23.158  0.00  0.00    +0.052 C 
ATOM     13  C   UNL     1      -3.584  -2.050  25.242  0.00  0.00    +0.107 C 
ATOM     15  C   UNL     1      -1.426  -2.898  25.949  0.00  0.00    +0.105 C 
ENDROOT
BRANCH  11  14
ATOM      1  O   UNL     1      -0.601   0.432  23.413  0.00  0.00    -0.336 OA
ATOM      6  N   UNL     1       0.783  -1.310  23.671  0.00  0.00    -0.189 NA
ATOM      7  N   UNL     1       0.695   0.941  23.268  0.00  0.00    -0.054 NA
ATOM     14  C   UNL     1      -0.460  -0.899  23.648  0.00  0.00    +0.245 A 
ATOM     18  C   UNL     1       1.454  -0.146  23.433  0.00  0.00    +0.222 A 
BRANCH  18  21
ATOM      8  N   UNL     1       3.439   1.042  22.922  0.00  0.00    -0.249 NA
ATOM      9  N   UNL     1       5.001  -1.156  23.690  0.00  0.00    -0.260 NA
ATOM     21  C   UNL     1       2.887  -0.103  23.369  0.00  0.00    +0.129 A 
ATOM     25  C   UNL     1       3.655  -1.184  23.746  0.00  0.00    +0.142 A 
ATOM     27  C   UNL     1       4.785   1.069  22.866  0.00  0.00    +0.131 A 
ATOM     28  C   UNL     1       5.553  -0.011  23.244  0.00  0.00    +0.130 A 
ENDBRANCH  18  21
ENDBRANCH  11  14
BRANCH  10   5
ATOM      2  O   UNL     1      -3.315   1.477  23.058  0.00  0.00    -0.270 OA
ATOM      5  N   UNL     1      -4.262   0.259  24.790  0.00  0.00    -0.307 N 
ATOM     16  C   UNL     1      -3.865   1.426  24.155  0.00  0.00    +0.248 C 
ATOM     29  H   UNL     1      -4.721   0.304  25.694  0.00  0.00    +0.149 HD
BRANCH  16  17
ATOM     17  C   UNL     1      -4.115   2.687  24.900  0.00  0.00    +0.078 A 
ATOM     19  C   UNL     1      -3.060   3.421  25.441  0.00  0.00    +0.132 A 
ATOM     20  C   UNL     1      -5.428   3.132  25.058  0.00  0.00    +0.017 A 
ATOM     22  C   UNL     1      -3.316   4.601  26.138  0.00  0.00    +0.046 A 
ATOM     23  C   UNL     1      -5.685   4.312  25.756  0.00  0.00    +0.001 A 
ATOM     24  C   UNL     1      -4.629   5.047  26.296  0.00  0.00    +0.004 A 
BRANCH  19   3
ATOM      3  O   UNL     1      -1.772   3.000  25.299  0.00  0.00    -0.494 OA
ATOM     26  C   UNL     1      -0.800   3.992  24.970  0.00  0.00    +0.277 C 
ENDBRANCH  19   3
ENDBRANCH  16  17
ENDBRANCH  10   5
TORSDOF 5
ENDMDL
MODEL 2
REMARK VINA RESULT:       1.4      1.174      2.082
REMARK  Name = 25338283
REMARK  7 active torsions:
REMARK  status: ('A' for Active; 'I' for Inactive)
REMARK    1  A    between atoms: O_3  and  C_19
REMARK    2  A    between atoms: O_3  and  C_26
REMARK    3  A    between atoms: N_4  and  C_15
REMARK    4  A    between atoms: N_5  and  C_10
REMARK    5  A    between atoms: C_11  and  C_14
REMARK    6  A    between atoms: C_16  and  C_17
REMARK    7  A    between atoms: C_18  and  C_21
REMARK                            x       y       z     vdW  Elec       q    Type
REMARK                         _______ _______ _______ _____ _____    ______ ____
ROOT
ATOM      4  N   UNL     1      -1.659  -1.425  25.359  0.00  0.00    -0.293 NA
ATOM     10  C   UNL     1      -3.554  -0.328  24.560  0.00  0.00    +0.089 C 
ATOM     11  C   UNL     1      -1.531  -1.523  23.893  0.00  0.00    +0.147 C 
ATOM     12  C   UNL     1      -2.693  -0.673  23.344  0.00  0.00    +0.052 C 
ATOM     13  C   UNL     1      -3.095  -1.307  25.629  0.00  0.00    +0.107 C 
ATOM     15  C   UNL     1      -1.063  -2.553  26.064  0.00  0.00    +0.105 C 
ENDROOT
BRANCH  11  14
ATOM      1  O   UNL     1      -0.148  -0.626  22.088  0.00  0.00    -0.336 OA
ATOM      6  N   UNL     1       0.976  -1.043  23.980  0.00  0.00    -0.189 NA
ATOM      7  N   UNL     1       1.183  -0.269  21.837  0.00  0.00    -0.054 NA
ATOM     14  C   UNL     1      -0.183  -1.070  23.372  0.00  0.00    +0.245 A 
ATOM     18  C   UNL     1       1.782  -0.545  22.999  0.00  0.00    +0.222 A 
BRANCH  18  21
ATOM      8  N   UNL     1       3.876  -1.350  23.758  0.00  0.00    -0.249 NA
ATOM      9  N   UNL     1       5.104   1.076  23.074  0.00  0.00    -0.260 NA
ATOM     21  C   UNL     1       3.184  -0.331  23.214  0.00  0.00    +0.129 A 
ATOM     25  C   UNL     1       3.788   0.862  22.877  0.00  0.00    +0.142 A 
ATOM     27  C   UNL     1       5.192  -1.137  23.955  0.00  0.00    +0.131 A 
ATOM     28  C   UNL     1       5.795   0.056  23.618  0.00  0.00    +0.130 A 
ENDBRANCH  18  21
ENDBRANCH  11  14
BRANCH  10   5
ATOM      2  O   UNL     1      -2.258   1.753  23.064  0.00  0.00    -0.270 OA
ATOM      5  N   UNL     1      -3.356   1.039  24.978  0.00  0.00    -0.307 N 
ATOM     16  C   UNL     1      -2.716   1.976  24.182  0.00  0.00    +0.248 C 
ATOM     29  H   UNL     1      -3.718   1.309  25.888  0.00  0.00    +0.149 HD
BRANCH  16  17
ATOM     17  C   UNL     1      -2.569   3.333  24.768  0.00  0.00    +0.078 A 
ATOM     19  C   UNL     1      -3.525   3.841  25.647  0.00  0.00    +0.132 A 
ATOM     20  C   UNL     1      -1.457   4.104  24.426  0.00  0.00    +0.017 A 
ATOM     22  C   UNL     1      -3.370   5.118  26.186  0.00  0.00    +0.046 A 
ATOM     23  C   UNL     1      -1.302   5.382  24.963  0.00  0.00    +0.001 A 
ATOM     24  C   UNL     1      -2.258   5.888  25.843  0.00  0.00    +0.004 A 
BRANCH  19   3
ATOM      3  O   UNL     1      -4.619   3.105  25.992  0.00  0.00    -0.494 OA
ATOM     26  C   UNL     1      -5.883   3.563  25.516  0.00  0.00    +0.277 C 
ENDBRANCH  19   3
ENDBRANCH  16  17
ENDBRANCH  10   5
TORSDOF 5
ENDMDL
MODEL 3
REMARK VINA RESULT:       2.6      1.884      4.881
REMARK  Name = 25338283
REMARK  7 active torsions:
REMARK  status: ('A' for Active; 'I' for Inactive)
REMARK    1  A    between atoms: O_3  and  C_19
REMARK    2  A    between atoms: O_3  and  C_26
REMARK    3  A    between atoms: N_4  and  C_15
REMARK    4  A    between atoms: N_5  and  C_10
REMARK    5  A    between atoms: C_11  and  C_14
REMARK    6  A    between atoms: C_16  and  C_17
REMARK    7  A    between atoms: C_18  and  C_21
REMARK                            x       y       z     vdW  Elec       q    Type
REMARK                         _______ _______ _______ _____ _____    ______ ____
ROOT
ATOM      4  N   UNL     1      -3.916   3.620  23.967  0.00  0.00    -0.293 NA
ATOM     10  C   UNL     1      -4.833   2.464  25.770  0.00  0.00    +0.089 C 
ATOM     11  C   UNL     1      -2.924   3.802  25.043  0.00  0.00    +0.147 C 
ATOM     12  C   UNL     1      -3.438   2.920  26.197  0.00  0.00    +0.052 C 
ATOM     13  C   UNL     1      -5.202   3.408  24.637  0.00  0.00    +0.107 C 
ATOM     15  C   UNL     1      -3.965   4.741  23.035  0.00  0.00    +0.105 C 
ENDROOT
BRANCH  11  14
ATOM      1  O   UNL     1      -0.580   4.434  24.758  0.00  0.00    -0.336 OA
ATOM      6  N   UNL     1      -1.039   2.327  24.153  0.00  0.00    -0.189 NA
ATOM      7  N   UNL     1       0.630   3.884  24.319  0.00  0.00    -0.054 NA
ATOM     14  C   UNL     1      -1.510   3.452  24.629  0.00  0.00    +0.245 A 
ATOM     18  C   UNL     1       0.277   2.640  23.978  0.00  0.00    +0.222 A 
BRANCH  18  21
ATOM      8  N   UNL     1       2.500   2.085  23.378  0.00  0.00    -0.249 NA
ATOM      9  N   UNL     1       1.689  -0.481  22.591  0.00  0.00    -0.260 NA
ATOM     21  C   UNL     1       1.216   1.686  23.463  0.00  0.00    +0.129 A 
ATOM     25  C   UNL     1       0.817   0.424  23.077  0.00  0.00    +0.142 A 
ATOM     27  C   UNL     1       3.372   1.179  22.891  0.00  0.00    +0.131 A 
ATOM     28  C   UNL     1       2.973  -0.082  22.505  0.00  0.00    +0.130 A 
ENDBRANCH  18  21
ENDBRANCH  11  14
BRANCH  10   5
ATOM      2  O   UNL     1      -2.549   0.737  25.555  0.00  0.00    -0.270 OA
ATOM      5  N   UNL     1      -4.830   1.089  25.329  0.00  0.00    -0.307 N 
ATOM     16  C   UNL     1      -3.671   0.332  25.260  0.00  0.00    +0.248 C 
ATOM     29  H   UNL     1      -5.723   0.675  25.076  0.00  0.00    +0.149 HD
BRANCH  16  17
ATOM     17  C   UNL     1      -3.832  -1.058  24.760  0.00  0.00    +0.078 A 
ATOM     19  C   UNL     1      -2.931  -2.058  25.123  0.00  0.00    +0.132 A 
ATOM     20  C   UNL     1      -4.902  -1.355  23.915  0.00  0.00    +0.017 A 
ATOM     22  C   UNL     1      -3.099  -3.356  24.642  0.00  0.00    +0.046 A 
ATOM     23  C   UNL     1      -5.070  -2.654  23.434  0.00  0.00    +0.001 A 
ATOM     24  C   UNL     1      -4.169  -3.654  23.797  0.00  0.00    +0.004 A 
BRANCH  19   3
ATOM      3  O   UNL     1      -1.879  -1.786  25.945  0.00  0.00    -0.494 OA
ATOM     26  C   UNL     1      -0.574  -1.874  25.376  0.00  0.00    +0.277 C 
ENDBRANCH  19   3
ENDBRANCH  16  17
ENDBRANCH  10   5
TORSDOF 5
ENDMDL
MODEL 4
REMARK VINA RESULT:       2.7      1.529      2.107
REMARK  Name = 25338283
REMARK  7 active torsions:
REMARK  status: ('A' for Active; 'I' for Inactive)
REMARK    1  A    between atoms: O_3  and  C_19
REMARK    2  A    between atoms: O_3  and  C_26
REMARK    3  A    between atoms: N_4  and  C_15
REMARK    4  A    between atoms: N_5  and  C_10
REMARK    5  A    between atoms: C_11  and  C_14
REMARK    6  A    between atoms: C_16  and  C_17
REMARK    7  A    between atoms: C_18  and  C_21
REMARK                            x       y       z     vdW  Elec       q    Type
REMARK                         _______ _______ _______ _____ _____    ______ ____
ROOT
ATOM      4  N   UNL     1      -3.134  -1.133  25.691  0.00  0.00    -0.293 NA
ATOM     10  C   UNL     1      -4.241   0.175  24.111  0.00  0.00    +0.089 C 
ATOM     11  C   UNL     1      -2.548  -1.561  24.407  0.00  0.00    +0.147 C 
ATOM     12  C   UNL     1      -3.156  -0.602  23.365  0.00  0.00    +0.052 C 
ATOM     13  C   UNL     1      -4.477  -0.637  25.375  0.00  0.00    +0.107 C 
ATOM     15  C   UNL     1      -3.166  -2.194  26.690  0.00  0.00    +0.105 C 
ENDROOT
BRANCH  11  14
ATOM      1  O   UNL     1      -0.413  -2.449  25.199  0.00  0.00    -0.336 OA
ATOM      6  N   UNL     1      -0.216  -0.774  23.725  0.00  0.00    -0.189 NA
ATOM      7  N   UNL     1       0.961  -2.244  25.025  0.00  0.00    -0.054 NA
ATOM     14  C   UNL     1      -1.034  -1.544  24.398  0.00  0.00    +0.245 A 
ATOM     18  C   UNL     1       0.996  -1.240  24.142  0.00  0.00    +0.222 A 
BRANCH  18  21
ATOM      8  N   UNL     1       3.344  -1.400  23.877  0.00  0.00    -0.249 NA
ATOM      9  N   UNL     1       3.400   1.061  22.534  0.00  0.00    -0.260 NA
ATOM     21  C   UNL     1       2.225  -0.683  23.656  0.00  0.00    +0.129 A 
ATOM     25  C   UNL     1       2.252   0.526  22.996  0.00  0.00    +0.142 A 
ATOM     27  C   UNL     1       4.492  -0.865  23.416  0.00  0.00    +0.131 A 
ATOM     28  C   UNL     1       4.519   0.344  22.755  0.00  0.00    +0.130 A 
ENDBRANCH  18  21
ENDBRANCH  11  14
BRANCH  10   5
ATOM      2  O   UNL     1      -2.097   1.623  22.865  0.00  0.00    -0.270 OA
ATOM      5  N   UNL     1      -3.813   1.518  24.422  0.00  0.00    -0.307 N 
ATOM     16  C   UNL     1      -2.762   2.136  23.761  0.00  0.00    +0.248 C 
ATOM     29  H   UNL     1      -4.320   2.017  25.146  0.00  0.00    +0.149 HD
BRANCH  16  17
ATOM     17  C   UNL     1      -2.428   3.510  24.216  0.00  0.00    +0.078 A 
ATOM     19  C   UNL     1      -1.133   3.836  24.619  0.00  0.00    +0.132 A 
ATOM     20  C   UNL     1      -3.431   4.480  24.241  0.00  0.00    +0.017 A 
ATOM     22  C   UNL     1      -0.840   5.131  25.045  0.00  0.00    +0.046 A 
ATOM     23  C   UNL     1      -3.138   5.775  24.667  0.00  0.00    +0.001 A 
ATOM     24  C   UNL     1      -1.843   6.101  25.069  0.00  0.00    +0.004 A 
BRANCH  19   3
ATOM      3  O   UNL     1      -0.141   2.902  24.605  0.00  0.00    -0.494 OA
ATOM     26  C   UNL     1       0.126   2.223  25.830  0.00  0.00    +0.277 C 
ENDBRANCH  19   3
ENDBRANCH  16  17
ENDBRANCH  10   5
TORSDOF 5
ENDMDL
MODEL 5
REMARK VINA RESULT:       3.7      2.321      6.366
REMARK  Name = 25338283
REMARK  7 active torsions:
REMARK  status: ('A' for Active; 'I' for Inactive)
REMARK    1  A    between atoms: O_3  and  C_19
REMARK    2  A    between atoms: O_3  and  C_26
REMARK    3  A    between atoms: N_4  and  C_15
REMARK    4  A    between atoms: N_5  and  C_10
REMARK    5  A    between atoms: C_11  and  C_14
REMARK    6  A    between atoms: C_16  and  C_17
REMARK    7  A    between atoms: C_18  and  C_21
REMARK                            x       y       z     vdW  Elec       q    Type
REMARK                         _______ _______ _______ _____ _____    ______ ____
ROOT
ATOM      4  N   UNL     1      -3.645  -1.813  23.988  0.00  0.00    -0.293 NA
ATOM     10  C   UNL     1      -1.774  -2.537  25.176  0.00  0.00    +0.089 C 
ATOM     11  C   UNL     1      -3.797  -1.174  25.309  0.00  0.00    +0.147 C 
ATOM     12  C   UNL     1      -2.495  -1.517  26.059  0.00  0.00    +0.052 C 
ATOM     13  C   UNL     1      -2.850  -3.023  24.217  0.00  0.00    +0.107 C 
ATOM     15  C   UNL     1      -4.918  -2.112  23.344  0.00  0.00    +0.105 C 
ENDROOT
BRANCH  11  14
ATOM      1  O   UNL     1      -5.327   0.727  25.450  0.00  0.00    -0.336 OA
ATOM      6  N   UNL     1      -3.209   1.289  24.986  0.00  0.00    -0.189 NA
ATOM      7  N   UNL     1      -5.312   2.122  25.329  0.00  0.00    -0.054 NA
ATOM     14  C   UNL     1      -4.049   0.317  25.234  0.00  0.00    +0.245 A 
ATOM     18  C   UNL     1      -4.029   2.377  25.055  0.00  0.00    +0.222 A 
BRANCH  18  21
ATOM      8  N   UNL     1      -4.046   4.387  23.802  0.00  0.00    -0.249 NA
ATOM      9  N   UNL     1      -2.110   5.505  25.494  0.00  0.00    -0.260 NA
ATOM     21  C   UNL     1      -3.535   3.708  24.847  0.00  0.00    +0.129 A 
ATOM     25  C   UNL     1      -2.583   4.257  25.679  0.00  0.00    +0.142 A 
ATOM     27  C   UNL     1      -3.573   5.635  23.617  0.00  0.00    +0.131 A 
ATOM     28  C   UNL     1      -2.621   6.185  24.449  0.00  0.00    +0.130 A 
ENDBRANCH  18  21
ENDBRANCH  11  14
BRANCH  10   5
ATOM      2  O   UNL     1      -0.701   0.095  25.583  0.00  0.00    -0.270 OA
ATOM      5  N   UNL     1      -0.669  -1.938  24.467  0.00  0.00    -0.307 N 
ATOM     16  C   UNL     1      -0.220  -0.654  24.736  0.00  0.00    +0.248 C 
ATOM     29  H   UNL     1      -0.208  -2.498  23.756  0.00  0.00    +0.149 HD
BRANCH  16  17
ATOM     17  C   UNL     1       0.910  -0.173  23.901  0.00  0.00    +0.078 A 
ATOM     19  C   UNL     1       1.288   1.169  23.910  0.00  0.00    +0.132 A 
ATOM     20  C   UNL     1       1.595  -1.085  23.096  0.00  0.00    +0.017 A 
ATOM     22  C   UNL     1       2.351   1.600  23.118  0.00  0.00    +0.046 A 
ATOM     23  C   UNL     1       2.657  -0.653  22.302  0.00  0.00    +0.001 A 
ATOM     24  C   UNL     1       3.036   0.689  22.313  0.00  0.00    +0.004 A 
BRANCH  19   3
ATOM      3  O   UNL     1       0.630   2.074  24.688  0.00  0.00    -0.494 OA
ATOM     26  C   UNL     1      -0.090   3.104  24.013  0.00  0.00    +0.277 C 
ENDBRANCH  19   3
ENDBRANCH  16  17
ENDBRANCH  10   5
TORSDOF 5
ENDMDL
MODEL 6
REMARK VINA RESULT:       4.3      3.135      5.723
REMARK  Name = 25338283
REMARK  7 active torsions:
REMARK  status: ('A' for Active; 'I' for Inactive)
REMARK    1  A    between atoms: O_3  and  C_19
REMARK    2  A    between atoms: O_3  and  C_26
REMARK    3  A    between atoms: N_4  and  C_15
REMARK    4  A    between atoms: N_5  and  C_10
REMARK    5  A    between atoms: C_11  and  C_14
REMARK    6  A    between atoms: C_16  and  C_17
REMARK    7  A    between atoms: C_18  and  C_21
REMARK                            x       y       z     vdW  Elec       q    Type
REMARK                         _______ _______ _______ _____ _____    ______ ____
ROOT
ATOM      4  N   UNL     1      -3.389   3.499  24.001  0.00  0.00    -0.293 NA
ATOM     10  C   UNL     1      -5.115   2.261  24.962  0.00  0.00    +0.089 C 
ATOM     11  C   UNL     1      -3.193   3.688  25.450  0.00  0.00    +0.147 C 
ATOM     12  C   UNL     1      -4.230   2.756  26.107  0.00  0.00    +0.052 C 
ATOM     13  C   UNL     1      -4.818   3.222  23.822  0.00  0.00    +0.107 C 
ATOM     15  C   UNL     1      -2.952   4.641  23.207  0.00  0.00    +0.105 C 
ENDROOT
BRANCH  11  14
ATOM      1  O   UNL     1      -0.834   3.298  24.941  0.00  0.00    -0.336 OA
ATOM      6  N   UNL     1      -1.321   3.233  27.126  0.00  0.00    -0.189 NA
ATOM      7  N   UNL     1       0.372   3.034  25.601  0.00  0.00    -0.054 NA
ATOM     14  C   UNL     1      -1.780   3.402  25.912  0.00  0.00    +0.245 A 
ATOM     18  C   UNL     1       0.002   3.010  26.885  0.00  0.00    +0.222 A 
BRANCH  18  21
ATOM      8  N   UNL     1       2.221   3.079  27.711  0.00  0.00    -0.249 NA
ATOM      9  N   UNL     1       1.383   2.014  30.166  0.00  0.00    -0.260 NA
ATOM     21  C   UNL     1       0.932   2.769  27.951  0.00  0.00    +0.129 A 
ATOM     25  C   UNL     1       0.520   2.246  29.157  0.00  0.00    +0.142 A 
ATOM     27  C   UNL     1       3.084   2.847  28.720  0.00  0.00    +0.131 A 
ATOM     28  C   UNL     1       2.672   2.324  29.926  0.00  0.00    +0.130 A 
ENDBRANCH  18  21
ENDBRANCH  11  14
BRANCH  10   5
ATOM      2  O   UNL     1      -2.800   0.764  25.767  0.00  0.00    -0.270 OA
ATOM      5  N   UNL     1      -4.799   0.900  24.599  0.00  0.00    -0.307 N 
ATOM     16  C   UNL     1      -3.652   0.259  25.040  0.00  0.00    +0.248 C 
ATOM     29  H   UNL     1      -5.461   0.406  24.008  0.00  0.00    +0.149 HD
BRANCH  16  17
ATOM     17  C   UNL     1      -3.459  -1.132  24.556  0.00  0.00    +0.078 A 
ATOM     19  C   UNL     1      -2.212  -1.751  24.631  0.00  0.00    +0.132 A 
ATOM     20  C   UNL     1      -4.547  -1.820  24.018  0.00  0.00    +0.017 A 
ATOM     22  C   UNL     1      -2.051  -3.057  24.170  0.00  0.00    +0.046 A 
ATOM     23  C   UNL     1      -4.387  -3.126  23.555  0.00  0.00    +0.001 A 
ATOM     24  C   UNL     1      -3.139  -3.745  23.632  0.00  0.00    +0.004 A 
BRANCH  19   3
ATOM      3  O   UNL     1      -1.137  -1.094  25.152  0.00  0.00    -0.494 OA
ATOM     26  C   UNL     1      -0.121  -0.688  24.237  0.00  0.00    +0.277 C 
ENDBRANCH  19   3
ENDBRANCH  16  17
ENDBRANCH  10   5
TORSDOF 5
ENDMDL
