MODEL 1
REMARK VINA RESULT:      -3.9      0.000      0.000
REMARK  Name = 38027879
REMARK  17 active torsions:
REMARK  status: ('A' for Active; 'I' for Inactive)
REMARK    1  A    between atoms: O_3  and  C_24
REMARK    2  A    between atoms: O_3  and  C_28
REMARK    3  A    between atoms: O_4  and  C_31
REMARK    4  A    between atoms: O_4  and  C_33
REMARK    5  A    between atoms: O_5  and  C_32
REMARK    6  A    between atoms: N_7  and  C_16
REMARK    7  A    between atoms: N_8  and  C_23
REMARK    8  A    between atoms: C_9  and  C_13
REMARK    9  A    between atoms: C_10  and  C_16
REMARK   10  A    between atoms: C_12  and  C_17
REMARK   11  A    between atoms: C_13  and  C_18
REMARK   12  A    between atoms: C_13  and  C_19
REMARK   13  A    between atoms: C_14  and  C_20
REMARK   14  A    between atoms: C_17  and  C_21
REMARK   15  A    between atoms: C_22  and  C_24
REMARK   16  A    between atoms: C_23  and  C_25
REMARK   17  A    between atoms: C_28  and  C_32
REMARK                            x       y       z     vdW  Elec       q    Type
REMARK                         _______ _______ _______ _____ _____    ______ ____
ROOT
ATOM      9  C   UNL     1      -1.342   0.076  24.704  0.00  0.00    +0.000 C 
ATOM     10  C   UNL     1      -0.514  -1.227  24.569  0.00  0.00    +0.032 C 
ATOM     11  C   UNL     1      -2.459  -0.105  25.742  0.00  0.00    +0.012 C 
ATOM     12  C   UNL     1      -3.416  -1.254  25.373  0.00  0.00    +0.023 C 
ATOM     14  C   UNL     1      -2.664  -2.505  24.965  0.00  0.00    -0.073 C 
ATOM     15  C   UNL     1      -1.364  -2.475  24.622  0.00  0.00    -0.022 C 
ATOM     20  C   UNL     1      -3.429  -3.798  25.004  0.00  0.00    +0.039 C 
ENDROOT
BRANCH   9  13
ATOM     13  C   UNL     1      -0.463   1.269  25.091  0.00  0.00    -0.013 C 
ATOM     18  C   UNL     1      -0.578   2.376  24.047  0.00  0.00    +0.007 C 
ATOM     19  C   UNL     1      -0.848   1.788  26.473  0.00  0.00    +0.007 C 
ENDBRANCH   9  13
BRANCH  10  16
ATOM     16  C   UNL     1       0.312  -1.226  23.277  0.00  0.00    +0.112 C 
BRANCH  16   7
ATOM      2  O   UNL     1       1.972  -0.262  21.114  0.00  0.00    -0.273 OA
ATOM      7  N   UNL     1       1.395  -0.298  23.369  0.00  0.00    -0.313 N 
ATOM     22  C   UNL     1       2.148   0.115  22.270  0.00  0.00    +0.239 C 
ATOM     34  H   UNL     1       1.591   0.123  24.272  0.00  0.00    +0.149 HD
BRANCH  22  24
ATOM     24  C   UNL     1       3.229   1.102  22.654  0.00  0.00    +0.256 C 
BRANCH  24   3
ATOM      3  O   UNL     1       4.506   0.598  22.321  0.00  0.00    -0.359 OA
BRANCH   3  28
ATOM     28  C   UNL     1       5.345   0.479  23.464  0.00  0.00    +0.280 C 
BRANCH  28  32
ATOM      6  O   UNL     1       4.278  -1.672  23.828  0.00  0.00    -0.248 OA
ATOM     32  C   UNL     1       5.167  -0.876  24.088  0.00  0.00    +0.331 C 
BRANCH  32   5
ATOM      5  O   UNL     1       6.146  -1.106  25.001  0.00  0.00    -0.479 OA
ATOM     36  H   UNL     1       5.823  -1.637  25.759  0.00  0.00    +0.295 HD
ENDBRANCH  32   5
ENDBRANCH  28  32
ENDBRANCH   3  28
ENDBRANCH  24   3
ENDBRANCH  22  24
ENDBRANCH  16   7
ENDBRANCH  10  16
BRANCH  12  17
ATOM     17  C   UNL     1      -4.400  -0.824  24.278  0.00  0.00    +0.103 C 
BRANCH  17  21
ATOM      1  O   UNL     1      -3.923   1.404  23.467  0.00  0.00    -0.276 OA
ATOM      8  N   UNL     1      -5.526   1.108  25.123  0.00  0.00    -0.311 N 
ATOM     21  C   UNL     1      -4.565   0.678  24.220  0.00  0.00    +0.214 C 
ATOM     35  H   UNL     1      -6.007   0.428  25.704  0.00  0.00    +0.149 HD
BRANCH   8  23
ATOM     23  C   UNL     1      -5.889   2.497  25.286  0.00  0.00    +0.139 C 
BRANCH  23  25
ATOM     25  C   UNL     1      -4.688   3.397  25.265  0.00  0.00    -0.030 A 
ATOM     26  C   UNL     1      -4.314   4.033  24.080  0.00  0.00    +0.009 A 
ATOM     27  C   UNL     1      -3.945   3.598  26.428  0.00  0.00    +0.009 A 
ATOM     29  C   UNL     1      -3.197   4.868  24.060  0.00  0.00    +0.046 A 
ATOM     30  C   UNL     1      -2.828   4.432  26.408  0.00  0.00    +0.046 A 
ATOM     31  C   UNL     1      -2.454   5.069  25.223  0.00  0.00    +0.120 A 
BRANCH  31   4
ATOM      4  O   UNL     1      -1.364   5.883  25.203  0.00  0.00    -0.495 OA
ATOM     33  C   UNL     1      -0.212   5.411  24.506  0.00  0.00    +0.277 C 
ENDBRANCH  31   4
ENDBRANCH  23  25
ENDBRANCH   8  23
ENDBRANCH  17  21
ENDBRANCH  12  17
TORSDOF 13
ENDMDL
MODEL 2
REMARK VINA RESULT:      -3.0      2.661      5.732
REMARK  Name = 38027879
REMARK  17 active torsions:
REMARK  status: ('A' for Active; 'I' for Inactive)
REMARK    1  A    between atoms: O_3  and  C_24
REMARK    2  A    between atoms: O_3  and  C_28
REMARK    3  A    between atoms: O_4  and  C_31
REMARK    4  A    between atoms: O_4  and  C_33
REMARK    5  A    between atoms: O_5  and  C_32
REMARK    6  A    between atoms: N_7  and  C_16
REMARK    7  A    between atoms: N_8  and  C_23
REMARK    8  A    between atoms: C_9  and  C_13
REMARK    9  A    between atoms: C_10  and  C_16
REMARK   10  A    between atoms: C_12  and  C_17
REMARK   11  A    between atoms: C_13  and  C_18
REMARK   12  A    between atoms: C_13  and  C_19
REMARK   13  A    between atoms: C_14  and  C_20
REMARK   14  A    between atoms: C_17  and  C_21
REMARK   15  A    between atoms: C_22  and  C_24
REMARK   16  A    between atoms: C_23  and  C_25
REMARK   17  A    between atoms: C_28  and  C_32
REMARK                            x       y       z     vdW  Elec       q    Type
REMARK                         _______ _______ _______ _____ _____    ______ ____
ROOT
ATOM      9  C   UNL     1      -3.603   2.419  24.102  0.00  0.00    +0.000 C 
ATOM     10  C   UNL     1      -4.203   3.573  24.944  0.00  0.00    +0.032 C 
ATOM     11  C   UNL     1      -4.691   1.393  23.750  0.00  0.00    +0.012 C 
ATOM     12  C   UNL     1      -5.351   0.790  25.004  0.00  0.00    +0.023 C 
ATOM     14  C   UNL     1      -5.730   1.859  26.010  0.00  0.00    -0.073 C 
ATOM     15  C   UNL     1      -5.216   3.100  25.959  0.00  0.00    -0.022 C 
ATOM     20  C   UNL     1      -6.748   1.480  27.049  0.00  0.00    +0.039 C 
ENDROOT
BRANCH   9  13
ATOM     13  C   UNL     1      -2.941   2.934  22.821  0.00  0.00    -0.013 C 
ATOM     18  C   UNL     1      -2.399   1.771  21.996  0.00  0.00    +0.007 C 
ATOM     19  C   UNL     1      -3.932   3.760  22.006  0.00  0.00    +0.007 C 
ENDBRANCH   9  13
BRANCH  10  16
ATOM     16  C   UNL     1      -3.101   4.368  25.655  0.00  0.00    +0.112 C 
BRANCH  16   7
ATOM      2  O   UNL     1      -0.292   4.263  24.975  0.00  0.00    -0.273 OA
ATOM      7  N   UNL     1      -2.113   3.491  26.201  0.00  0.00    -0.313 N 
ATOM     22  C   UNL     1      -0.774   3.507  25.814  0.00  0.00    +0.239 C 
ATOM     34  H   UNL     1      -2.392   2.861  26.947  0.00  0.00    +0.149 HD
BRANCH  22  24
ATOM     24  C   UNL     1       0.049   2.473  26.553  0.00  0.00    +0.256 C 
BRANCH  24   3
ATOM      3  O   UNL     1       1.013   3.097  27.374  0.00  0.00    -0.359 OA
BRANCH   3  28
ATOM     28  C   UNL     1       0.904   2.680  28.731  0.00  0.00    +0.280 C 
BRANCH  28  32
ATOM      6  O   UNL     1       3.318   2.898  28.893  0.00  0.00    -0.248 OA
ATOM     32  C   UNL     1       2.272   2.409  29.292  0.00  0.00    +0.331 C 
BRANCH  32   5
ATOM      5  O   UNL     1       2.191   1.530  30.322  0.00  0.00    -0.479 OA
ATOM     36  H   UNL     1       1.271   1.426  30.645  0.00  0.00    +0.295 HD
ENDBRANCH  32   5
ENDBRANCH  28  32
ENDBRANCH   3  28
ENDBRANCH  24   3
ENDBRANCH  22  24
ENDBRANCH  16   7
ENDBRANCH  10  16
BRANCH  12  17
ATOM     17  C   UNL     1      -4.452  -0.273  25.646  0.00  0.00    +0.103 C 
BRANCH  17  21
ATOM      1  O   UNL     1      -4.264  -1.784  23.766  0.00  0.00    -0.276 OA
ATOM      8  N   UNL     1      -2.336  -0.939  24.752  0.00  0.00    -0.311 N 
ATOM     21  C   UNL     1      -3.708  -1.088  24.611  0.00  0.00    +0.214 C 
ATOM     35  H   UNL     1      -1.971  -0.336  25.484  0.00  0.00    +0.149 HD
BRANCH   8  23
ATOM     23  C   UNL     1      -1.379  -1.605  23.900  0.00  0.00    +0.139 C 
BRANCH  23  25
ATOM     25  C   UNL     1      -0.166  -0.757  23.649  0.00  0.00    -0.030 A 
ATOM     26  C   UNL     1       0.920  -1.283  22.949  0.00  0.00    +0.009 A 
ATOM     27  C   UNL     1      -0.124   0.557  24.115  0.00  0.00    +0.009 A 
ATOM     29  C   UNL     1       2.048  -0.496  22.717  0.00  0.00    +0.046 A 
ATOM     30  C   UNL     1       1.003   1.344  23.883  0.00  0.00    +0.046 A 
ATOM     31  C   UNL     1       2.090   0.818  23.183  0.00  0.00    +0.120 A 
BRANCH  31   4
ATOM      4  O   UNL     1       3.190   1.586  22.957  0.00  0.00    -0.495 OA
ATOM     33  C   UNL     1       4.435   0.907  22.800  0.00  0.00    +0.277 C 
ENDBRANCH  31   4
ENDBRANCH  23  25
ENDBRANCH   8  23
ENDBRANCH  17  21
ENDBRANCH  12  17
TORSDOF 13
ENDMDL
MODEL 3
REMARK VINA RESULT:      -2.0      1.563      3.266
REMARK  Name = 38027879
REMARK  17 active torsions:
REMARK  status: ('A' for Active; 'I' for Inactive)
REMARK    1  A    between atoms: O_3  and  C_24
REMARK    2  A    between atoms: O_3  and  C_28
REMARK    3  A    between atoms: O_4  and  C_31
REMARK    4  A    between atoms: O_4  and  C_33
REMARK    5  A    between atoms: O_5  and  C_32
REMARK    6  A    between atoms: N_7  and  C_16
REMARK    7  A    between atoms: N_8  and  C_23
REMARK    8  A    between atoms: C_9  and  C_13
REMARK    9  A    between atoms: C_10  and  C_16
REMARK   10  A    between atoms: C_12  and  C_17
REMARK   11  A    between atoms: C_13  and  C_18
REMARK   12  A    between atoms: C_13  and  C_19
REMARK   13  A    between atoms: C_14  and  C_20
REMARK   14  A    between atoms: C_17  and  C_21
REMARK   15  A    between atoms: C_22  and  C_24
REMARK   16  A    between atoms: C_23  and  C_25
REMARK   17  A    between atoms: C_28  and  C_32
REMARK                            x       y       z     vdW  Elec       q    Type
REMARK                         _______ _______ _______ _____ _____    ______ ____
ROOT
ATOM      9  C   UNL     1      -3.519  -0.870  25.036  0.00  0.00    +0.000 C 
ATOM     10  C   UNL     1      -2.295  -0.141  24.427  0.00  0.00    +0.032 C 
ATOM     11  C   UNL     1      -4.775  -0.604  24.193  0.00  0.00    +0.012 C 
ATOM     12  C   UNL     1      -5.102   0.898  24.094  0.00  0.00    +0.023 C 
ATOM     14  C   UNL     1      -3.874   1.721  23.757  0.00  0.00    -0.073 C 
ATOM     15  C   UNL     1      -2.628   1.234  23.900  0.00  0.00    -0.022 C 
ATOM     20  C   UNL     1      -4.113   3.099  23.208  0.00  0.00    +0.039 C 
ENDROOT
BRANCH   9  13
ATOM     13  C   UNL     1      -3.281  -2.379  25.152  0.00  0.00    -0.013 C 
ATOM     18  C   UNL     1      -4.155  -3.134  24.155  0.00  0.00    +0.007 C 
ATOM     19  C   UNL     1      -1.807  -2.704  24.932  0.00  0.00    +0.007 C 
ENDBRANCH   9  13
BRANCH  10  16
ATOM     16  C   UNL     1      -1.152  -0.035  25.444  0.00  0.00    +0.112 C 
BRANCH  16   7
ATOM      2  O   UNL     1       0.283  -0.838  23.065  0.00  0.00    -0.273 OA
ATOM      7  N   UNL     1      -0.015   0.608  24.865  0.00  0.00    -0.313 N 
ATOM     22  C   UNL     1       0.620   0.151  23.710  0.00  0.00    +0.239 C 
ATOM     34  H   UNL     1       0.314   1.471  25.286  0.00  0.00    +0.149 HD
BRANCH  22  24
ATOM     24  C   UNL     1       1.795   1.022  23.320  0.00  0.00    +0.256 C 
BRANCH  24   3
ATOM      3  O   UNL     1       2.713   0.297  22.529  0.00  0.00    -0.359 OA
BRANCH   3  28
ATOM     28  C   UNL     1       4.037   0.805  22.651  0.00  0.00    +0.280 C 
BRANCH  28  32
ATOM      6  O   UNL     1       6.064  -0.017  23.708  0.00  0.00    -0.248 OA
ATOM     32  C   UNL     1       4.882  -0.160  23.435  0.00  0.00    +0.331 C 
BRANCH  32   5
ATOM      5  O   UNL     1       4.144  -1.237  23.806  0.00  0.00    -0.479 OA
ATOM     36  H   UNL     1       3.560  -1.036  24.568  0.00  0.00    +0.295 HD
ENDBRANCH  32   5
ENDBRANCH  28  32
ENDBRANCH   3  28
ENDBRANCH  24   3
ENDBRANCH  22  24
ENDBRANCH  16   7
ENDBRANCH  10  16
BRANCH  12  17
ATOM     17  C   UNL     1      -5.766   1.405  25.379  0.00  0.00    +0.103 C 
BRANCH  17  21
ATOM      1  O   UNL     1      -5.907   3.819  25.452  0.00  0.00    -0.276 OA
ATOM      8  N   UNL     1      -4.108   2.746  26.460  0.00  0.00    -0.311 N 
ATOM     21  C   UNL     1      -5.299   2.795  25.750  0.00  0.00    +0.214 C 
ATOM     35  H   UNL     1      -3.681   1.846  26.660  0.00  0.00    +0.149 HD
BRANCH   8  23
ATOM     23  C   UNL     1      -3.429   3.927  26.941  0.00  0.00    +0.139 C 
BRANCH  23  25
ATOM     25  C   UNL     1      -2.300   4.333  26.037  0.00  0.00    -0.030 A 
ATOM     26  C   UNL     1      -2.347   5.558  25.371  0.00  0.00    +0.009 A 
ATOM     27  C   UNL     1      -1.206   3.486  25.862  0.00  0.00    +0.009 A 
ATOM     29  C   UNL     1      -1.300   5.935  24.530  0.00  0.00    +0.046 A 
ATOM     30  C   UNL     1      -0.160   3.862  25.021  0.00  0.00    +0.046 A 
ATOM     31  C   UNL     1      -0.206   5.088  24.355  0.00  0.00    +0.120 A 
BRANCH  31   4
ATOM      4  O   UNL     1       0.815   5.455  23.534  0.00  0.00    -0.495 OA
ATOM     33  C   UNL     1       0.578   5.382  22.129  0.00  0.00    +0.277 C 
ENDBRANCH  31   4
ENDBRANCH  23  25
ENDBRANCH   8  23
ENDBRANCH  17  21
ENDBRANCH  12  17
TORSDOF 13
ENDMDL
MODEL 4
REMARK VINA RESULT:      -1.9      1.769      7.126
REMARK  Name = 38027879
REMARK  17 active torsions:
REMARK  status: ('A' for Active; 'I' for Inactive)
REMARK    1  A    between atoms: O_3  and  C_24
REMARK    2  A    between atoms: O_3  and  C_28
REMARK    3  A    between atoms: O_4  and  C_31
REMARK    4  A    between atoms: O_4  and  C_33
REMARK    5  A    between atoms: O_5  and  C_32
REMARK    6  A    between atoms: N_7  and  C_16
REMARK    7  A    between atoms: N_8  and  C_23
REMARK    8  A    between atoms: C_9  and  C_13
REMARK    9  A    between atoms: C_10  and  C_16
REMARK   10  A    between atoms: C_12  and  C_17
REMARK   11  A    between atoms: C_13  and  C_18
REMARK   12  A    between atoms: C_13  and  C_19
REMARK   13  A    between atoms: C_14  and  C_20
REMARK   14  A    between atoms: C_17  and  C_21
REMARK   15  A    between atoms: C_22  and  C_24
REMARK   16  A    between atoms: C_23  and  C_25
REMARK   17  A    between atoms: C_28  and  C_32
REMARK                            x       y       z     vdW  Elec       q    Type
REMARK                         _______ _______ _______ _____ _____    ______ ____
ROOT
ATOM      9  C   UNL     1      -3.333   0.946  23.675  0.00  0.00    +0.000 C 
ATOM     10  C   UNL     1      -4.662   0.341  24.191  0.00  0.00    +0.032 C 
ATOM     11  C   UNL     1      -2.389  -0.166  23.194  0.00  0.00    +0.012 C 
ATOM     12  C   UNL     1      -2.063  -1.176  24.310  0.00  0.00    +0.023 C 
ATOM     14  C   UNL     1      -3.310  -1.620  25.049  0.00  0.00    -0.073 C 
ATOM     15  C   UNL     1      -4.466  -0.936  24.973  0.00  0.00    -0.022 C 
ATOM     20  C   UNL     1      -3.210  -2.893  25.842  0.00  0.00    +0.039 C 
ENDROOT
BRANCH   9  13
ATOM     13  C   UNL     1      -3.567   1.952  22.544  0.00  0.00    -0.013 C 
ATOM     18  C   UNL     1      -3.726   3.361  23.108  0.00  0.00    +0.007 C 
ATOM     19  C   UNL     1      -2.421   1.899  21.538  0.00  0.00    +0.007 C 
ENDBRANCH   9  13
BRANCH  10  16
ATOM     16  C   UNL     1      -5.433   1.352  25.048  0.00  0.00    +0.112 C 
BRANCH  16   7
ATOM      2  O   UNL     1      -5.776   4.131  25.772  0.00  0.00    -0.273 OA
ATOM      7  N   UNL     1      -4.535   2.161  25.810  0.00  0.00    -0.313 N 
ATOM     22  C   UNL     1      -4.778   3.500  26.114  0.00  0.00    +0.239 C 
ATOM     34  H   UNL     1      -3.703   1.723  26.193  0.00  0.00    +0.149 HD
BRANCH  22  24
ATOM     24  C   UNL     1      -3.663   4.114  26.933  0.00  0.00    +0.256 C 
BRANCH  24   3
ATOM      3  O   UNL     1      -2.735   4.772  26.098  0.00  0.00    -0.359 OA
BRANCH   3  28
ATOM     28  C   UNL     1      -1.623   3.941  25.780  0.00  0.00    +0.280 C 
BRANCH  28  32
ATOM      6  O   UNL     1      -0.489   5.809  24.719  0.00  0.00    -0.248 OA
ATOM     32  C   UNL     1      -0.758   4.618  24.754  0.00  0.00    +0.331 C 
BRANCH  32   5
ATOM      5  O   UNL     1      -0.305   3.712  23.851  0.00  0.00    -0.479 OA
ATOM     36  H   UNL     1       0.185   2.979  24.280  0.00  0.00    +0.295 HD
ENDBRANCH  32   5
ENDBRANCH  28  32
ENDBRANCH   3  28
ENDBRANCH  24   3
ENDBRANCH  22  24
ENDBRANCH  16   7
ENDBRANCH  10  16
BRANCH  12  17
ATOM     17  C   UNL     1      -1.022  -0.610  25.282  0.00  0.00    +0.103 C 
BRANCH  17  21
ATOM      1  O   UNL     1       0.331   1.380  25.032  0.00  0.00    -0.276 OA
ATOM      8  N   UNL     1       0.411  -0.271  23.398  0.00  0.00    -0.311 N 
ATOM     21  C   UNL     1      -0.028   0.293  24.587  0.00  0.00    +0.214 C 
ATOM     35  H   UNL     1       0.056  -1.181  23.115  0.00  0.00    +0.149 HD
BRANCH   8  23
ATOM     23  C   UNL     1       1.364   0.373  22.524  0.00  0.00    +0.139 C 
BRANCH  23  25
ATOM     25  C   UNL     1       2.781   0.099  22.940  0.00  0.00    -0.030 A 
ATOM     26  C   UNL     1       3.746   1.101  22.829  0.00  0.00    +0.009 A 
ATOM     27  C   UNL     1       3.133  -1.156  23.437  0.00  0.00    +0.009 A 
ATOM     29  C   UNL     1       5.062   0.847  23.214  0.00  0.00    +0.046 A 
ATOM     30  C   UNL     1       4.449  -1.410  23.821  0.00  0.00    +0.046 A 
ATOM     31  C   UNL     1       5.414  -0.408  23.711  0.00  0.00    +0.120 A 
BRANCH  31   4
ATOM      4  O   UNL     1       6.698  -0.656  24.086  0.00  0.00    -0.495 OA
ATOM     33  C   UNL     1       7.709  -0.488  23.094  0.00  0.00    +0.277 C 
ENDBRANCH  31   4
ENDBRANCH  23  25
ENDBRANCH   8  23
ENDBRANCH  17  21
ENDBRANCH  12  17
TORSDOF 13
ENDMDL
MODEL 5
REMARK VINA RESULT:      -1.8      1.903      5.428
REMARK  Name = 38027879
REMARK  17 active torsions:
REMARK  status: ('A' for Active; 'I' for Inactive)
REMARK    1  A    between atoms: O_3  and  C_24
REMARK    2  A    between atoms: O_3  and  C_28
REMARK    3  A    between atoms: O_4  and  C_31
REMARK    4  A    between atoms: O_4  and  C_33
REMARK    5  A    between atoms: O_5  and  C_32
REMARK    6  A    between atoms: N_7  and  C_16
REMARK    7  A    between atoms: N_8  and  C_23
REMARK    8  A    between atoms: C_9  and  C_13
REMARK    9  A    between atoms: C_10  and  C_16
REMARK   10  A    between atoms: C_12  and  C_17
REMARK   11  A    between atoms: C_13  and  C_18
REMARK   12  A    between atoms: C_13  and  C_19
REMARK   13  A    between atoms: C_14  and  C_20
REMARK   14  A    between atoms: C_17  and  C_21
REMARK   15  A    between atoms: C_22  and  C_24
REMARK   16  A    between atoms: C_23  and  C_25
REMARK   17  A    between atoms: C_28  and  C_32
REMARK                            x       y       z     vdW  Elec       q    Type
REMARK                         _______ _______ _______ _____ _____    ______ ____
ROOT
ATOM      9  C   UNL     1      -3.151   2.250  24.501  0.00  0.00    +0.000 C 
ATOM     10  C   UNL     1      -2.304   2.534  23.235  0.00  0.00    +0.032 C 
ATOM     11  C   UNL     1      -3.480   3.561  25.230  0.00  0.00    +0.012 C 
ATOM     12  C   UNL     1      -2.211   4.325  25.654  0.00  0.00    +0.023 C 
ATOM     14  C   UNL     1      -1.203   4.414  24.525  0.00  0.00    -0.073 C 
ATOM     15  C   UNL     1      -1.269   3.614  23.446  0.00  0.00    -0.022 C 
ATOM     20  C   UNL     1      -0.145   5.475  24.644  0.00  0.00    +0.039 C 
ENDROOT
BRANCH   9  13
ATOM     13  C   UNL     1      -4.446   1.505  24.162  0.00  0.00    -0.013 C 
ATOM     18  C   UNL     1      -4.134   0.124  23.595  0.00  0.00    +0.007 C 
ATOM     19  C   UNL     1      -5.334   1.395  25.398  0.00  0.00    +0.007 C 
ENDBRANCH   9  13
BRANCH  10  16
ATOM     16  C   UNL     1      -1.616   1.259  22.733  0.00  0.00    +0.112 C 
BRANCH  16   7
ATOM      2  O   UNL     1       0.438  -0.558  21.814  0.00  0.00    -0.273 OA
ATOM      7  N   UNL     1      -0.249   1.222  23.147  0.00  0.00    -0.313 N 
ATOM     22  C   UNL     1       0.680   0.308  22.652  0.00  0.00    +0.239 C 
ATOM     34  H   UNL     1       0.074   1.933  23.797  0.00  0.00    +0.149 HD
BRANCH  22  24
ATOM     24  C   UNL     1       2.052   0.495  23.263  0.00  0.00    +0.256 C 
BRANCH  24   3
ATOM      3  O   UNL     1       3.062   0.191  22.325  0.00  0.00    -0.359 OA
BRANCH   3  28
ATOM     28  C   UNL     1       4.333   0.687  22.733  0.00  0.00    +0.280 C 
BRANCH  28  32
ATOM      6  O   UNL     1       4.948  -1.405  23.803  0.00  0.00    -0.248 OA
ATOM     32  C   UNL     1       4.895  -0.185  23.820  0.00  0.00    +0.331 C 
BRANCH  32   5
ATOM      5  O   UNL     1       5.345   0.579  24.848  0.00  0.00    -0.479 OA
ATOM     36  H   UNL     1       4.688   1.256  25.117  0.00  0.00    +0.295 HD
ENDBRANCH  32   5
ENDBRANCH  28  32
ENDBRANCH   3  28
ENDBRANCH  24   3
ENDBRANCH  22  24
ENDBRANCH  16   7
ENDBRANCH  10  16
BRANCH  12  17
ATOM     17  C   UNL     1      -1.581   3.701  26.904  0.00  0.00    +0.103 C 
BRANCH  17  21
ATOM      1  O   UNL     1       0.588   2.828  26.282  0.00  0.00    -0.276 OA
ATOM      8  N   UNL     1      -1.189   1.363  26.594  0.00  0.00    -0.311 N 
ATOM     21  C   UNL     1      -0.589   2.613  26.557  0.00  0.00    +0.214 C 
ATOM     35  H   UNL     1      -2.172   1.286  26.836  0.00  0.00    +0.149 HD
BRANCH   8  23
ATOM     23  C   UNL     1      -0.478   0.139  26.303  0.00  0.00    +0.139 C 
BRANCH  23  25
ATOM     25  C   UNL     1      -1.385  -0.913  25.730  0.00  0.00    -0.030 A 
ATOM     26  C   UNL     1      -2.690  -1.042  26.206  0.00  0.00    +0.009 A 
ATOM     27  C   UNL     1      -0.923  -1.761  24.724  0.00  0.00    +0.009 A 
ATOM     29  C   UNL     1      -3.532  -2.020  25.676  0.00  0.00    +0.046 A 
ATOM     30  C   UNL     1      -1.764  -2.738  24.194  0.00  0.00    +0.046 A 
ATOM     31  C   UNL     1      -3.070  -2.867  24.669  0.00  0.00    +0.120 A 
BRANCH  31   4
ATOM      4  O   UNL     1      -3.891  -3.821  24.152  0.00  0.00    -0.495 OA
ATOM     33  C   UNL     1      -4.945  -3.377  23.299  0.00  0.00    +0.277 C 
ENDBRANCH  31   4
ENDBRANCH  23  25
ENDBRANCH   8  23
ENDBRANCH  17  21
ENDBRANCH  12  17
TORSDOF 13
ENDMDL
MODEL 6
REMARK VINA RESULT:      -0.1      1.981      7.681
REMARK  Name = 38027879
REMARK  17 active torsions:
REMARK  status: ('A' for Active; 'I' for Inactive)
REMARK    1  A    between atoms: O_3  and  C_24
REMARK    2  A    between atoms: O_3  and  C_28
REMARK    3  A    between atoms: O_4  and  C_31
REMARK    4  A    between atoms: O_4  and  C_33
REMARK    5  A    between atoms: O_5  and  C_32
REMARK    6  A    between atoms: N_7  and  C_16
REMARK    7  A    between atoms: N_8  and  C_23
REMARK    8  A    between atoms: C_9  and  C_13
REMARK    9  A    between atoms: C_10  and  C_16
REMARK   10  A    between atoms: C_12  and  C_17
REMARK   11  A    between atoms: C_13  and  C_18
REMARK   12  A    between atoms: C_13  and  C_19
REMARK   13  A    between atoms: C_14  and  C_20
REMARK   14  A    between atoms: C_17  and  C_21
REMARK   15  A    between atoms: C_22  and  C_24
REMARK   16  A    between atoms: C_23  and  C_25
REMARK   17  A    between atoms: C_28  and  C_32
REMARK                            x       y       z     vdW  Elec       q    Type
REMARK                         _______ _______ _______ _____ _____    ______ ____
ROOT
ATOM      9  C   UNL     1      -2.237   3.722  25.043  0.00  0.00    +0.000 C 
ATOM     10  C   UNL     1      -3.233   3.981  23.884  0.00  0.00    +0.032 C 
ATOM     11  C   UNL     1      -0.895   3.218  24.493  0.00  0.00    +0.012 C 
ATOM     12  C   UNL     1      -1.049   1.917  23.682  0.00  0.00    +0.023 C 
ATOM     14  C   UNL     1      -2.196   2.001  22.695  0.00  0.00    -0.073 C 
ATOM     15  C   UNL     1      -3.155   2.940  22.794  0.00  0.00    -0.022 C 
ATOM     20  C   UNL     1      -2.190   1.011  21.565  0.00  0.00    +0.039 C 
ENDROOT
BRANCH   9  13
ATOM     13  C   UNL     1      -2.012   4.979  25.890  0.00  0.00    -0.013 C 
ATOM     18  C   UNL     1      -1.695   6.174  24.997  0.00  0.00    +0.007 C 
ATOM     19  C   UNL     1      -3.235   5.261  26.758  0.00  0.00    +0.007 C 
ENDBRANCH   9  13
BRANCH  10  16
ATOM     16  C   UNL     1      -4.673   4.072  24.403  0.00  0.00    +0.112 C 
BRANCH  16   7
ATOM      2  O   UNL     1      -5.639   2.829  26.829  0.00  0.00    -0.273 OA
ATOM      7  N   UNL     1      -5.247   2.770  24.535  0.00  0.00    -0.313 N 
ATOM     22  C   UNL     1      -5.689   2.245  25.750  0.00  0.00    +0.239 C 
ATOM     34  H   UNL     1      -5.390   2.221  23.693  0.00  0.00    +0.149 HD
BRANCH  22  24
ATOM     24  C   UNL     1      -6.253   0.849  25.600  0.00  0.00    +0.256 C 
BRANCH  24   3
ATOM      3  O   UNL     1      -5.444   0.072  24.742  0.00  0.00    -0.359 OA
BRANCH   3  28
ATOM     28  C   UNL     1      -4.255  -0.370  25.390  0.00  0.00    +0.280 C 
BRANCH  28  32
ATOM      6  O   UNL     1      -3.270  -2.588  25.477  0.00  0.00    -0.248 OA
ATOM     32  C   UNL     1      -3.854  -1.715  24.854  0.00  0.00    +0.331 C 
BRANCH  32   5
ATOM      5  O   UNL     1      -4.234  -1.836  23.556  0.00  0.00    -0.479 OA
ATOM     36  H   UNL     1      -4.713  -1.041  23.239  0.00  0.00    +0.295 HD
ENDBRANCH  32   5
ENDBRANCH  28  32
ENDBRANCH   3  28
ENDBRANCH  24   3
ENDBRANCH  22  24
ENDBRANCH  16   7
ENDBRANCH  10  16
BRANCH  12  17
ATOM     17  C   UNL     1      -1.210   0.706  24.608  0.00  0.00    +0.103 C 
BRANCH  17  21
ATOM      1  O   UNL     1      -0.232  -1.496  24.829  0.00  0.00    -0.276 OA
ATOM      8  N   UNL     1       0.495  -0.086  23.131  0.00  0.00    -0.311 N 
ATOM     21  C   UNL     1      -0.280  -0.426  24.229  0.00  0.00    +0.214 C 
ATOM     35  H   UNL     1       0.380   0.827  22.700  0.00  0.00    +0.149 HD
BRANCH   8  23
ATOM     23  C   UNL     1       1.475  -0.976  22.552  0.00  0.00    +0.139 C 
BRANCH  23  25
ATOM     25  C   UNL     1       2.877  -0.578  22.914  0.00  0.00    -0.030 A 
ATOM     26  C   UNL     1       3.352   0.689  22.572  0.00  0.00    +0.009 A 
ATOM     27  C   UNL     1       3.705  -1.474  23.590  0.00  0.00    +0.009 A 
ATOM     29  C   UNL     1       4.655   1.058  22.907  0.00  0.00    +0.046 A 
ATOM     30  C   UNL     1       5.007  -1.105  23.924  0.00  0.00    +0.046 A 
ATOM     31  C   UNL     1       5.483   0.162  23.583  0.00  0.00    +0.120 A 
BRANCH  31   4
ATOM      4  O   UNL     1       6.753   0.523  23.910  0.00  0.00    -0.495 OA
ATOM     33  C   UNL     1       7.814  -0.204  23.292  0.00  0.00    +0.277 C 
ENDBRANCH  31   4
ENDBRANCH  23  25
ENDBRANCH   8  23
ENDBRANCH  17  21
ENDBRANCH  12  17
TORSDOF 13
ENDMDL
MODEL 7
REMARK VINA RESULT:      -0.0      1.999      7.011
REMARK  Name = 38027879
REMARK  17 active torsions:
REMARK  status: ('A' for Active; 'I' for Inactive)
REMARK    1  A    between atoms: O_3  and  C_24
REMARK    2  A    between atoms: O_3  and  C_28
REMARK    3  A    between atoms: O_4  and  C_31
REMARK    4  A    between atoms: O_4  and  C_33
REMARK    5  A    between atoms: O_5  and  C_32
REMARK    6  A    between atoms: N_7  and  C_16
REMARK    7  A    between atoms: N_8  and  C_23
REMARK    8  A    between atoms: C_9  and  C_13
REMARK    9  A    between atoms: C_10  and  C_16
REMARK   10  A    between atoms: C_12  and  C_17
REMARK   11  A    between atoms: C_13  and  C_18
REMARK   12  A    between atoms: C_13  and  C_19
REMARK   13  A    between atoms: C_14  and  C_20
REMARK   14  A    between atoms: C_17  and  C_21
REMARK   15  A    between atoms: C_22  and  C_24
REMARK   16  A    between atoms: C_23  and  C_25
REMARK   17  A    between atoms: C_28  and  C_32
REMARK                            x       y       z     vdW  Elec       q    Type
REMARK                         _______ _______ _______ _____ _____    ______ ____
ROOT
ATOM      9  C   UNL     1      -3.763   3.275  25.633  0.00  0.00    +0.000 C 
ATOM     10  C   UNL     1      -3.753   3.623  24.123  0.00  0.00    +0.032 C 
ATOM     11  C   UNL     1      -2.772   4.167  26.396  0.00  0.00    +0.012 C 
ATOM     12  C   UNL     1      -1.331   4.016  25.871  0.00  0.00    +0.023 C 
ATOM     14  C   UNL     1      -1.274   4.081  24.357  0.00  0.00    -0.073 C 
ATOM     15  C   UNL     1      -2.369   3.916  23.594  0.00  0.00    -0.022 C 
ATOM     20  C   UNL     1       0.064   4.385  23.744  0.00  0.00    +0.039 C 
ENDROOT
BRANCH   9  13
ATOM     13  C   UNL     1      -5.163   3.419  26.239  0.00  0.00    -0.013 C 
ATOM     18  C   UNL     1      -5.948   4.509  25.516  0.00  0.00    +0.007 C 
ATOM     19  C   UNL     1      -5.907   2.088  26.181  0.00  0.00    +0.007 C 
ENDBRANCH   9  13
BRANCH  10  16
ATOM     16  C   UNL     1      -4.391   2.503  23.293  0.00  0.00    +0.112 C 
BRANCH  16   7
ATOM      2  O   UNL     1      -5.387  -0.037  24.252  0.00  0.00    -0.273 OA
ATOM      7  N   UNL     1      -3.655   1.286  23.433  0.00  0.00    -0.313 N 
ATOM     22  C   UNL     1      -4.216   0.100  23.907  0.00  0.00    +0.239 C 
ATOM     34  H   UNL     1      -2.689   1.271  23.121  0.00  0.00    +0.149 HD
BRANCH  22  24
ATOM     24  C   UNL     1      -3.212  -1.031  23.951  0.00  0.00    +0.256 C 
BRANCH  24   3
ATOM      3  O   UNL     1      -3.650  -2.054  24.820  0.00  0.00    -0.359 OA
BRANCH   3  28
ATOM     28  C   UNL     1      -2.613  -2.491  25.693  0.00  0.00    +0.280 C 
BRANCH  28  32
ATOM      6  O   UNL     1      -1.052  -2.891  23.876  0.00  0.00    -0.248 OA
ATOM     32  C   UNL     1      -1.290  -2.432  24.982  0.00  0.00    +0.331 C 
BRANCH  32   5
ATOM      5  O   UNL     1      -0.374  -1.788  25.749  0.00  0.00    -0.479 OA
ATOM     36  H   UNL     1       0.063  -1.056  25.262  0.00  0.00    +0.295 HD
ENDBRANCH  32   5
ENDBRANCH  28  32
ENDBRANCH   3  28
ENDBRANCH  24   3
ENDBRANCH  22  24
ENDBRANCH  16   7
ENDBRANCH  10  16
BRANCH  12  17
ATOM     17  C   UNL     1      -0.686   2.727  26.389  0.00  0.00    +0.103 C 
BRANCH  17  21
ATOM      1  O   UNL     1      -1.616   0.783  25.288  0.00  0.00    -0.276 OA
ATOM      8  N   UNL     1       0.386   1.683  24.524  0.00  0.00    -0.311 N 
ATOM     21  C   UNL     1      -0.720   1.619  25.359  0.00  0.00    +0.214 C 
ATOM     35  H   UNL     1       1.075   2.417  24.661  0.00  0.00    +0.149 HD
BRANCH   8  23
ATOM     23  C   UNL     1       0.616   0.748  23.447  0.00  0.00    +0.139 C 
BRANCH  23  25
ATOM     25  C   UNL     1       2.069   0.392  23.314  0.00  0.00    -0.030 A 
ATOM     26  C   UNL     1       2.496  -0.907  23.589  0.00  0.00    +0.009 A 
ATOM     27  C   UNL     1       2.991   1.360  22.917  0.00  0.00    +0.009 A 
ATOM     29  C   UNL     1       3.846  -1.238  23.467  0.00  0.00    +0.046 A 
ATOM     30  C   UNL     1       4.340   1.030  22.796  0.00  0.00    +0.046 A 
ATOM     31  C   UNL     1       4.768  -0.270  23.070  0.00  0.00    +0.120 A 
BRANCH  31   4
ATOM      4  O   UNL     1       6.085  -0.592  22.951  0.00  0.00    -0.495 OA
ATOM     33  C   UNL     1       7.020   0.228  23.650  0.00  0.00    +0.277 C 
ENDBRANCH  31   4
ENDBRANCH  23  25
ENDBRANCH   8  23
ENDBRANCH  17  21
ENDBRANCH  12  17
TORSDOF 13
ENDMDL
