MODEL 1
REMARK VINA RESULT:      -2.6      0.000      0.000
REMARK  Name = 7155413
REMARK  2 active torsions:
REMARK  status: ('A' for Active; 'I' for Inactive)
REMARK    1  A    between atoms: C_13  and  C_18
REMARK    2  A    between atoms: C_15  and  C_19
REMARK                            x       y       z     vdW  Elec       q    Type
REMARK                         _______ _______ _______ _____ _____    ______ ____
ROOT
ATOM      2  O   UNL     1      16.082  -9.450  27.572  0.00  0.00    -0.268 OA
ATOM      3  O   UNL     1      12.730 -10.561  31.216  0.00  0.00    -0.269 OA
ATOM      4  N   UNL     1      16.313  -8.725  29.786  0.00  0.00    -0.311 N 
ATOM      5  N   UNL     1      14.506  -9.462  32.268  0.00  0.00    -0.296 N 
ATOM      6  C   UNL     1      16.741 -10.378  31.701  0.00  0.00    +0.027 C 
ATOM      7  C   UNL     1      16.498  -7.977  32.179  0.00  0.00    +0.054 C 
ATOM      8  C   UNL     1      17.404  -9.191  32.383  0.00  0.00    +0.018 C 
ATOM      9  C   UNL     1      16.661 -10.093  30.200  0.00  0.00    +0.130 C 
ATOM     10  C   UNL     1      15.356 -10.651  32.311  0.00  0.00    +0.113 C 
ATOM     11  C   UNL     1      15.120  -8.247  32.823  0.00  0.00    +0.117 C 
ATOM     12  C   UNL     1      16.325  -7.647  30.693  0.00  0.00    +0.034 A 
ATOM     13  C   UNL     1      16.151  -6.379  30.240  0.00  0.00    +0.002 A 
ATOM     14  C   UNL     1      16.090  -8.549  28.409  0.00  0.00    +0.252 A 
ATOM     15  C   UNL     1      13.242  -9.542  31.679  0.00  0.00    +0.253 C 
ATOM     16  C   UNL     1      15.914  -6.158  28.827  0.00  0.00    +0.015 A 
ATOM     17  C   UNL     1      15.864  -7.160  27.949  0.00  0.00    +0.071 A 
ENDROOT
BRANCH  13  18
ATOM     18  C   UNL     1      16.181  -5.215  31.154  0.00  0.00    -0.016 A 
ATOM     20  C   UNL     1      15.012  -4.500  31.400  0.00  0.00    +0.008 A 
ATOM     21  C   UNL     1      17.377  -4.842  31.761  0.00  0.00    +0.008 A 
ATOM     23  C   UNL     1      15.040  -3.403  32.261  0.00  0.00    +0.001 A 
ATOM     24  C   UNL     1      17.405  -3.746  32.621  0.00  0.00    +0.001 A 
ATOM     26  C   UNL     1      16.236  -3.025  32.872  0.00  0.00    +0.000 A 
ENDBRANCH  13  18
BRANCH  15  19
ATOM      1  S   UNL     1      11.306  -7.963  32.802  0.00  0.00    -0.092 S 
ATOM     19  C   UNL     1      12.444  -8.314  31.576  0.00  0.00    +0.074 A 
ATOM     22  C   UNL     1      12.473  -7.352  30.596  0.00  0.00    +0.021 A 
ATOM     25  C   UNL     1      11.542  -6.305  30.854  0.00  0.00    +0.008 A 
ATOM     27  C   UNL     1      10.842  -6.511  32.022  0.00  0.00    +0.046 A 
ENDBRANCH  15  19
TORSDOF 2
ENDMDL
