MODEL 1
REMARK VINA RESULT:      -4.8      0.000      0.000
REMARK  Name = 75536943
REMARK  4 active torsions:
REMARK  status: ('A' for Active; 'I' for Inactive)
REMARK    1  A    between atoms: O_2  and  C_8
REMARK    2  A    between atoms: O_2  and  C_15
REMARK    3  A    between atoms: C_13  and  C_14
REMARK    4  A    between atoms: C_19  and  C_22
REMARK                            x       y       z     vdW  Elec       q    Type
REMARK                         _______ _______ _______ _____ _____    ______ ____
ROOT
ATOM      1  O   UNL     1       1.190  -0.548  23.180  0.00  0.00    -0.375 OA
ATOM      3  O   UNL     1      -0.075   4.088  23.648  0.00  0.00    -0.270 OA
ATOM      4  N   UNL     1      -0.019   1.958  24.624  0.00  0.00    -0.292 N 
ATOM      8  C   UNL     1      -0.210  -0.526  25.178  0.00  0.00    +0.218 C 
ATOM      9  C   UNL     1      -0.714   0.907  25.376  0.00  0.00    +0.155 C 
ATOM     10  C   UNL     1       1.341   1.694  24.154  0.00  0.00    +0.136 C 
ATOM     11  C   UNL     1      -0.079  -0.922  23.710  0.00  0.00    +0.206 C 
ATOM     12  C   UNL     1       1.329   0.840  22.892  0.00  0.00    +0.179 C 
ATOM     13  C   UNL     1      -0.608   3.192  24.302  0.00  0.00    +0.250 C 
ENDROOT
BRANCH  13  14
ATOM      6  N   UNL     1      -3.474   4.191  26.510  0.00  0.00    -0.243 NA
ATOM      7  N   UNL     1      -4.350   3.478  24.381  0.00  0.00    -0.243 NA
ATOM     14  C   UNL     1      -1.975   3.458  24.775  0.00  0.00    +0.073 A 
ATOM     17  C   UNL     1      -2.233   3.936  26.043  0.00  0.00    +0.127 A 
ATOM     18  C   UNL     1      -3.083   3.245  23.980  0.00  0.00    +0.127 A 
ATOM     23  C   UNL     1      -4.471   3.943  25.639  0.00  0.00    +0.221 A 
ENDBRANCH  13  14
BRANCH   8   2
ATOM      2  O   UNL     1      -1.160  -1.387  25.809  0.00  0.00    -0.469 OA
BRANCH   2  15
ATOM      5  N   UNL     1      -3.221  -0.484  25.251  0.00  0.00    -0.218 NA
ATOM     15  C   UNL     1      -2.367  -1.529  25.180  0.00  0.00    +0.215 A 
ATOM     16  C   UNL     1      -2.645  -2.715  24.519  0.00  0.00    +0.067 A 
ATOM     19  C   UNL     1      -4.410  -0.637  24.626  0.00  0.00    +0.042 A 
ATOM     20  C   UNL     1      -3.878  -2.835  23.890  0.00  0.00    +0.007 A 
ATOM     21  C   UNL     1      -4.784  -1.781  23.939  0.00  0.00    +0.023 A 
ATOM     22  C   UNL     1      -5.359   0.513  24.703  0.00  0.00    +0.066 C 
ENDBRANCH   2  15
ENDBRANCH   8   2
TORSDOF 3
ENDMDL
MODEL 2
REMARK VINA RESULT:      -4.8      1.876      5.382
REMARK  Name = 75536943
REMARK  4 active torsions:
REMARK  status: ('A' for Active; 'I' for Inactive)
REMARK    1  A    between atoms: O_2  and  C_8
REMARK    2  A    between atoms: O_2  and  C_15
REMARK    3  A    between atoms: C_13  and  C_14
REMARK    4  A    between atoms: C_19  and  C_22
REMARK                            x       y       z     vdW  Elec       q    Type
REMARK                         _______ _______ _______ _____ _____    ______ ____
ROOT
ATOM      1  O   UNL     1      -2.314   4.743  24.387  0.00  0.00    -0.375 OA
ATOM      3  O   UNL     1      -5.786   1.409  24.751  0.00  0.00    -0.270 OA
ATOM      4  N   UNL     1      -3.659   2.114  25.437  0.00  0.00    -0.292 N 
ATOM      8  C   UNL     1      -1.243   2.920  25.603  0.00  0.00    +0.218 C 
ATOM      9  C   UNL     1      -2.258   1.779  25.715  0.00  0.00    +0.155 C 
ATOM     10  C   UNL     1      -4.076   3.511  25.557  0.00  0.00    +0.136 C 
ATOM     11  C   UNL     1      -1.352   3.697  24.293  0.00  0.00    +0.206 C 
ATOM     12  C   UNL     1      -3.670   4.313  24.327  0.00  0.00    +0.179 C 
ATOM     13  C   UNL     1      -4.610   1.167  25.024  0.00  0.00    +0.250 C 
ENDROOT
BRANCH  13  14
ATOM      6  N   UNL     1      -3.220  -2.214  25.878  0.00  0.00    -0.243 NA
ATOM      7  N   UNL     1      -3.972  -2.242  23.589  0.00  0.00    -0.243 NA
ATOM     14  C   UNL     1      -4.191  -0.237  24.904  0.00  0.00    +0.073 A 
ATOM     17  C   UNL     1      -3.616  -0.925  25.953  0.00  0.00    +0.127 A 
ATOM     18  C   UNL     1      -4.346  -0.954  23.734  0.00  0.00    +0.127 A 
ATOM     23  C   UNL     1      -3.425  -2.802  24.684  0.00  0.00    +0.221 A 
ENDBRANCH  13  14
BRANCH   8   2
ATOM      2  O   UNL     1       0.054   2.326  25.684  0.00  0.00    -0.469 OA
BRANCH   2  15
ATOM      5  N   UNL     1       1.554   1.534  24.103  0.00  0.00    -0.218 NA
ATOM     15  C   UNL     1       0.363   1.398  24.727  0.00  0.00    +0.215 A 
ATOM     16  C   UNL     1      -0.546   0.388  24.453  0.00  0.00    +0.067 A 
ATOM     19  C   UNL     1       1.846   0.611  23.159  0.00  0.00    +0.042 A 
ATOM     20  C   UNL     1      -0.210  -0.541  23.476  0.00  0.00    +0.007 A 
ATOM     21  C   UNL     1       1.007  -0.436  22.812  0.00  0.00    +0.023 A 
ATOM     22  C   UNL     1       3.159   0.758  22.464  0.00  0.00    +0.066 C 
ENDBRANCH   2  15
ENDBRANCH   8   2
TORSDOF 3
ENDMDL
MODEL 3
REMARK VINA RESULT:      -4.6      1.793      4.321
REMARK  Name = 75536943
REMARK  4 active torsions:
REMARK  status: ('A' for Active; 'I' for Inactive)
REMARK    1  A    between atoms: O_2  and  C_8
REMARK    2  A    between atoms: O_2  and  C_15
REMARK    3  A    between atoms: C_13  and  C_14
REMARK    4  A    between atoms: C_19  and  C_22
REMARK                            x       y       z     vdW  Elec       q    Type
REMARK                         _______ _______ _______ _____ _____    ______ ____
ROOT
ATOM      1  O   UNL     1      -3.745  -2.841  23.972  0.00  0.00    -0.375 OA
ATOM      3  O   UNL     1       0.614  -0.815  24.431  0.00  0.00    -0.270 OA
ATOM      4  N   UNL     1      -1.613  -0.874  25.160  0.00  0.00    -0.292 N 
ATOM      8  C   UNL     1      -4.156  -0.890  25.377  0.00  0.00    +0.218 C 
ATOM      9  C   UNL     1      -2.829  -0.141  25.531  0.00  0.00    +0.155 C 
ATOM     10  C   UNL     1      -1.659  -2.337  25.151  0.00  0.00    +0.136 C 
ATOM     11  C   UNL     1      -4.326  -1.541  24.007  0.00  0.00    +0.206 C 
ATOM     12  C   UNL     1      -2.324  -2.856  23.882  0.00  0.00    +0.179 C 
ATOM     13  C   UNL     1      -0.418  -0.242  24.779  0.00  0.00    +0.250 C 
ENDROOT
BRANCH  13  14
ATOM      6  N   UNL     1      -0.841   3.321  25.884  0.00  0.00    -0.243 NA
ATOM      7  N   UNL     1       0.228   3.302  23.724  0.00  0.00    -0.243 NA
ATOM     14  C   UNL     1      -0.372   1.228  24.789  0.00  0.00    +0.073 A 
ATOM     17  C   UNL     1      -0.868   1.972  25.841  0.00  0.00    +0.127 A 
ATOM     18  C   UNL     1       0.170   1.955  23.748  0.00  0.00    +0.127 A 
ATOM     23  C   UNL     1      -0.288   3.913  24.808  0.00  0.00    +0.221 A 
ENDBRANCH  13  14
BRANCH   8   2
ATOM      2  O   UNL     1      -5.195   0.072  25.567  0.00  0.00    -0.469 OA
BRANCH   2  15
ATOM      5  N   UNL     1      -4.170   1.503  24.058  0.00  0.00    -0.218 NA
ATOM     15  C   UNL     1      -4.922   1.353  25.172  0.00  0.00    +0.215 A 
ATOM     16  C   UNL     1      -5.419   2.408  25.920  0.00  0.00    +0.067 A 
ATOM     19  C   UNL     1      -3.907   2.774  23.678  0.00  0.00    +0.042 A 
ATOM     20  C   UNL     1      -5.126   3.700  25.498  0.00  0.00    +0.007 A 
ATOM     21  C   UNL     1      -4.356   3.895  24.357  0.00  0.00    +0.023 A 
ATOM     22  C   UNL     1      -3.075   2.945  22.451  0.00  0.00    +0.066 C 
ENDBRANCH   2  15
ENDBRANCH   8   2
TORSDOF 3
ENDMDL
MODEL 4
REMARK VINA RESULT:      -4.4      2.024      4.562
REMARK  Name = 75536943
REMARK  4 active torsions:
REMARK  status: ('A' for Active; 'I' for Inactive)
REMARK    1  A    between atoms: O_2  and  C_8
REMARK    2  A    between atoms: O_2  and  C_15
REMARK    3  A    between atoms: C_13  and  C_14
REMARK    4  A    between atoms: C_19  and  C_22
REMARK                            x       y       z     vdW  Elec       q    Type
REMARK                         _______ _______ _______ _____ _____    ______ ____
ROOT
ATOM      1  O   UNL     1      -5.682   3.067  26.278  0.00  0.00    -0.375 OA
ATOM      3  O   UNL     1      -1.338   4.472  24.711  0.00  0.00    -0.270 OA
ATOM      4  N   UNL     1      -3.203   3.097  24.361  0.00  0.00    -0.292 N 
ATOM      8  C   UNL     1      -5.138   1.442  24.541  0.00  0.00    +0.218 C 
ATOM      9  C   UNL     1      -3.736   1.773  24.021  0.00  0.00    +0.155 C 
ATOM     10  C   UNL     1      -4.148   4.157  24.713  0.00  0.00    +0.136 C 
ATOM     11  C   UNL     1      -5.306   1.715  26.034  0.00  0.00    +0.206 C 
ATOM     12  C   UNL     1      -4.624   4.011  26.152  0.00  0.00    +0.179 C 
ATOM     13  C   UNL     1      -1.829   3.387  24.401  0.00  0.00    +0.250 C 
ENDROOT
BRANCH  13  14
ATOM      6  N   UNL     1      -0.374   0.291  22.856  0.00  0.00    -0.243 NA
ATOM      7  N   UNL     1       1.308   1.333  24.232  0.00  0.00    -0.243 NA
ATOM     14  C   UNL     1      -0.880   2.322  24.046  0.00  0.00    +0.073 A 
ATOM     17  C   UNL     1      -1.220   1.284  23.203  0.00  0.00    +0.127 A 
ATOM     18  C   UNL     1       0.411   2.294  24.536  0.00  0.00    +0.127 A 
ATOM     23  C   UNL     1       0.856   0.376  23.399  0.00  0.00    +0.221 A 
ENDBRANCH  13  14
BRANCH   8   2
ATOM      2  O   UNL     1      -5.350   0.051  24.296  0.00  0.00    -0.469 OA
BRANCH   2  15
ATOM      5  N   UNL     1      -3.290  -0.325  25.292  0.00  0.00    -0.218 NA
ATOM     15  C   UNL     1      -4.273  -0.773  24.480  0.00  0.00    +0.215 A 
ATOM     16  C   UNL     1      -4.248  -2.000  23.835  0.00  0.00    +0.067 A 
ATOM     19  C   UNL     1      -2.232  -1.148  25.465  0.00  0.00    +0.042 A 
ATOM     20  C   UNL     1      -3.142  -2.818  24.037  0.00  0.00    +0.007 A 
ATOM     21  C   UNL     1      -2.111  -2.392  24.866  0.00  0.00    +0.023 A 
ATOM     22  C   UNL     1      -1.141  -0.657  26.358  0.00  0.00    +0.066 C 
ENDBRANCH   2  15
ENDBRANCH   8   2
TORSDOF 3
ENDMDL
MODEL 5
REMARK VINA RESULT:      -4.2      1.612      4.512
REMARK  Name = 75536943
REMARK  4 active torsions:
REMARK  status: ('A' for Active; 'I' for Inactive)
REMARK    1  A    between atoms: O_2  and  C_8
REMARK    2  A    between atoms: O_2  and  C_15
REMARK    3  A    between atoms: C_13  and  C_14
REMARK    4  A    between atoms: C_19  and  C_22
REMARK                            x       y       z     vdW  Elec       q    Type
REMARK                         _______ _______ _______ _____ _____    ______ ____
ROOT
ATOM      1  O   UNL     1      -0.872  -2.200  25.316  0.00  0.00    -0.375 OA
ATOM      3  O   UNL     1      -5.343  -0.718  24.259  0.00  0.00    -0.270 OA
ATOM      4  N   UNL     1      -3.045  -0.281  24.124  0.00  0.00    -0.292 N 
ATOM      8  C   UNL     1      -0.558   0.098  24.559  0.00  0.00    +0.218 C 
ATOM      9  C   UNL     1      -1.942   0.678  24.255  0.00  0.00    +0.155 C 
ATOM     10  C   UNL     1      -2.721  -1.671  23.801  0.00  0.00    +0.136 C 
ATOM     11  C   UNL     1      -0.558  -0.876  25.735  0.00  0.00    +0.206 C 
ATOM     12  C   UNL     1      -2.249  -2.426  25.038  0.00  0.00    +0.179 C 
ATOM     13  C   UNL     1      -4.391   0.060  24.329  0.00  0.00    +0.250 C 
ENDROOT
BRANCH  13  14
ATOM      6  N   UNL     1      -5.826   3.068  26.055  0.00  0.00    -0.243 NA
ATOM      7  N   UNL     1      -4.529   3.807  24.164  0.00  0.00    -0.243 NA
ATOM     14  C   UNL     1      -4.716   1.457  24.652  0.00  0.00    +0.073 A 
ATOM     17  C   UNL     1      -5.508   1.797  25.730  0.00  0.00    +0.127 A 
ATOM     18  C   UNL     1      -4.250   2.515  23.897  0.00  0.00    +0.127 A 
ATOM     23  C   UNL     1      -5.310   4.010  25.241  0.00  0.00    +0.221 A 
ENDBRANCH  13  14
BRANCH   8   2
ATOM      2  O   UNL     1       0.293   1.203  24.869  0.00  0.00    -0.469 OA
BRANCH   2  15
ATOM      5  N   UNL     1      -1.166   2.608  25.996  0.00  0.00    -0.218 NA
ATOM     15  C   UNL     1      -0.308   2.428  24.968  0.00  0.00    +0.215 A 
ATOM     16  C   UNL     1      -0.012   3.399  24.025  0.00  0.00    +0.067 A 
ATOM     19  C   UNL     1      -1.754   3.823  26.082  0.00  0.00    +0.042 A 
ATOM     20  C   UNL     1      -0.637   4.635  24.146  0.00  0.00    +0.007 A 
ATOM     21  C   UNL     1      -1.526   4.860  25.191  0.00  0.00    +0.023 A 
ATOM     22  C   UNL     1      -2.706   4.027  27.214  0.00  0.00    +0.066 C 
ENDBRANCH   2  15
ENDBRANCH   8   2
TORSDOF 3
ENDMDL
MODEL 6
REMARK VINA RESULT:      -3.9      1.675      2.552
REMARK  Name = 75536943
REMARK  4 active torsions:
REMARK  status: ('A' for Active; 'I' for Inactive)
REMARK    1  A    between atoms: O_2  and  C_8
REMARK    2  A    between atoms: O_2  and  C_15
REMARK    3  A    between atoms: C_13  and  C_14
REMARK    4  A    between atoms: C_19  and  C_22
REMARK                            x       y       z     vdW  Elec       q    Type
REMARK                         _______ _______ _______ _____ _____    ______ ____
ROOT
ATOM      1  O   UNL     1       0.780   2.496  23.990  0.00  0.00    -0.375 OA
ATOM      3  O   UNL     1      -3.336   5.018  24.067  0.00  0.00    -0.270 OA
ATOM      4  N   UNL     1      -1.946   3.490  25.174  0.00  0.00    -0.292 N 
ATOM      8  C   UNL     1      -0.453   1.539  25.865  0.00  0.00    +0.218 C 
ATOM      9  C   UNL     1      -1.812   2.240  25.932  0.00  0.00    +0.155 C 
ATOM     10  C   UNL     1      -0.731   4.229  24.832  0.00  0.00    +0.136 C 
ATOM     11  C   UNL     1       0.060   1.352  24.439  0.00  0.00    +0.206 C 
ATOM     12  C   UNL     1      -0.032   3.608  23.629  0.00  0.00    +0.179 C 
ATOM     13  C   UNL     1      -3.180   3.993  24.730  0.00  0.00    +0.250 C 
ENDROOT
BRANCH  13  14
ATOM      6  N   UNL     1      -6.222   2.822  26.591  0.00  0.00    -0.243 NA
ATOM      7  N   UNL     1      -6.044   1.574  24.538  0.00  0.00    -0.243 NA
ATOM     14  C   UNL     1      -4.402   3.250  25.075  0.00  0.00    +0.073 A 
ATOM     17  C   UNL     1      -5.098   3.484  26.243  0.00  0.00    +0.127 A 
ATOM     18  C   UNL     1      -4.927   2.274  24.252  0.00  0.00    +0.127 A 
ATOM     23  C   UNL     1      -6.633   1.894  25.705  0.00  0.00    +0.221 A 
ENDBRANCH  13  14
BRANCH   8   2
ATOM      2  O   UNL     1      -0.622   0.255  26.470  0.00  0.00    -0.469 OA
BRANCH   2  15
ATOM      5  N   UNL     1      -2.475  -0.549  25.333  0.00  0.00    -0.218 NA
ATOM     15  C   UNL     1      -1.182  -0.718  25.690  0.00  0.00    +0.215 A 
ATOM     16  C   UNL     1      -0.411  -1.807  25.315  0.00  0.00    +0.067 A 
ATOM     19  C   UNL     1      -3.017  -1.519  24.562  0.00  0.00    +0.042 A 
ATOM     20  C   UNL     1      -1.004  -2.783  24.524  0.00  0.00    +0.007 A 
ATOM     21  C   UNL     1      -2.332  -2.645  24.135  0.00  0.00    +0.023 A 
ATOM     22  C   UNL     1      -4.446  -1.338  24.168  0.00  0.00    +0.066 C 
ENDBRANCH   2  15
ENDBRANCH   8   2
TORSDOF 3
ENDMDL
MODEL 7
REMARK VINA RESULT:      -2.7      1.975      5.044
REMARK  Name = 75536943
REMARK  4 active torsions:
REMARK  status: ('A' for Active; 'I' for Inactive)
REMARK    1  A    between atoms: O_2  and  C_8
REMARK    2  A    between atoms: O_2  and  C_15
REMARK    3  A    between atoms: C_13  and  C_14
REMARK    4  A    between atoms: C_19  and  C_22
REMARK                            x       y       z     vdW  Elec       q    Type
REMARK                         _______ _______ _______ _____ _____    ______ ____
ROOT
ATOM      1  O   UNL     1      -1.812  -2.542  25.137  0.00  0.00    -0.375 OA
ATOM      3  O   UNL     1      -5.888  -0.001  24.644  0.00  0.00    -0.270 OA
ATOM      4  N   UNL     1      -3.603  -0.164  24.153  0.00  0.00    -0.292 N 
ATOM      8  C   UNL     1      -1.063  -0.416  24.202  0.00  0.00    +0.218 C 
ATOM      9  C   UNL     1      -2.291   0.488  24.065  0.00  0.00    +0.155 C 
ATOM     10  C   UNL     1      -3.686  -1.598  23.874  0.00  0.00    +0.136 C 
ATOM     11  C   UNL     1      -1.121  -1.330  25.424  0.00  0.00    +0.206 C 
ATOM     12  C   UNL     1      -3.229  -2.418  25.074  0.00  0.00    +0.179 C 
ATOM     13  C   UNL     1      -4.775   0.511  24.528  0.00  0.00    +0.250 C 
ENDROOT
BRANCH  13  14
ATOM      6  N   UNL     1      -5.500   3.901  25.968  0.00  0.00    -0.243 NA
ATOM      7  N   UNL     1      -3.648   4.091  24.438  0.00  0.00    -0.243 NA
ATOM     14  C   UNL     1      -4.692   1.953  24.807  0.00  0.00    +0.073 A 
ATOM     17  C   UNL     1      -5.548   2.581  25.688  0.00  0.00    +0.127 A 
ATOM     18  C   UNL     1      -3.752   2.766  24.205  0.00  0.00    +0.127 A 
ATOM     23  C   UNL     1      -4.539   4.586  25.317  0.00  0.00    +0.221 A 
ENDBRANCH  13  14
BRANCH   8   2
ATOM      2  O   UNL     1       0.071   0.444  24.318  0.00  0.00    -0.469 OA
BRANCH   2  15
ATOM      5  N   UNL     1       2.291   0.739  23.717  0.00  0.00    -0.218 NA
ATOM     15  C   UNL     1       1.063   0.277  23.391  0.00  0.00    +0.215 A 
ATOM     16  C   UNL     1       0.762  -0.344  22.190  0.00  0.00    +0.067 A 
ATOM     19  C   UNL     1       3.262   0.568  22.791  0.00  0.00    +0.042 A 
ATOM     20  C   UNL     1       1.786  -0.501  21.264  0.00  0.00    +0.007 A 
ATOM     21  C   UNL     1       3.063  -0.040  21.562  0.00  0.00    +0.023 A 
ATOM     22  C   UNL     1       4.619   1.080  23.145  0.00  0.00    +0.066 C 
ENDBRANCH   2  15
ENDBRANCH   8   2
TORSDOF 3
ENDMDL
MODEL 8
REMARK VINA RESULT:      -2.6      1.080      2.006
REMARK  Name = 75536943
REMARK  4 active torsions:
REMARK  status: ('A' for Active; 'I' for Inactive)
REMARK    1  A    between atoms: O_2  and  C_8
REMARK    2  A    between atoms: O_2  and  C_15
REMARK    3  A    between atoms: C_13  and  C_14
REMARK    4  A    between atoms: C_19  and  C_22
REMARK                            x       y       z     vdW  Elec       q    Type
REMARK                         _______ _______ _______ _____ _____    ______ ____
ROOT
ATOM      1  O   UNL     1       1.170   0.509  23.833  0.00  0.00    -0.375 OA
ATOM      3  O   UNL     1      -1.250   4.666  24.249  0.00  0.00    -0.270 OA
ATOM      4  N   UNL     1      -0.808   2.550  25.154  0.00  0.00    -0.292 N 
ATOM      8  C   UNL     1      -0.457   0.060  25.595  0.00  0.00    +0.218 C 
ATOM      9  C   UNL     1      -1.320   1.314  25.758  0.00  0.00    +0.155 C 
ATOM     10  C   UNL     1       0.627   2.650  24.888  0.00  0.00    +0.136 C 
ATOM     11  C   UNL     1      -0.028  -0.192  24.151  0.00  0.00    +0.206 C 
ATOM     12  C   UNL     1       1.002   1.905  23.613  0.00  0.00    +0.179 C 
ATOM     13  C   UNL     1      -1.632   3.626  24.785  0.00  0.00    +0.250 C 
ENDROOT
BRANCH  13  14
ATOM      6  N   UNL     1      -5.302   2.999  24.307  0.00  0.00    -0.243 NA
ATOM      7  N   UNL     1      -4.936   3.767  26.561  0.00  0.00    -0.243 NA
ATOM     14  C   UNL     1      -3.074   3.525  25.053  0.00  0.00    +0.073 A 
ATOM     17  C   UNL     1      -3.973   3.103  24.095  0.00  0.00    +0.127 A 
ATOM     18  C   UNL     1      -3.618   3.847  26.281  0.00  0.00    +0.127 A 
ATOM     23  C   UNL     1      -5.709   3.342  25.544  0.00  0.00    +0.221 A 
ENDBRANCH  13  14
BRANCH   8   2
ATOM      2  O   UNL     1      -1.244  -1.043  26.046  0.00  0.00    -0.469 OA
BRANCH   2  15
ATOM      5  N   UNL     1      -2.459  -2.511  24.725  0.00  0.00    -0.218 NA
ATOM     15  C   UNL     1      -2.385  -1.309  25.339  0.00  0.00    +0.215 A 
ATOM     16  C   UNL     1      -3.384  -0.350  25.290  0.00  0.00    +0.067 A 
ATOM     19  C   UNL     1      -3.591  -2.761  24.030  0.00  0.00    +0.042 A 
ATOM     20  C   UNL     1      -4.533  -0.644  24.564  0.00  0.00    +0.007 A 
ATOM     21  C   UNL     1      -4.647  -1.870  23.919  0.00  0.00    +0.023 A 
ATOM     22  C   UNL     1      -3.677  -4.086  23.347  0.00  0.00    +0.066 C 
ENDBRANCH   2  15
ENDBRANCH   8   2
TORSDOF 3
ENDMDL
