MODEL 1
REMARK VINA RESULT:      -6.6      0.000      0.000
REMARK  Name = 75536551
REMARK  7 active torsions:
REMARK  status: ('A' for Active; 'I' for Inactive)
REMARK    1  A    between atoms: O_3  and  C_11
REMARK    2  A    between atoms: N_5  and  C_14
REMARK    3  A    between atoms: N_6  and  C_12
REMARK    4  A    between atoms: N_6  and  C_16
REMARK    5  A    between atoms: C_7  and  C_15
REMARK    6  A    between atoms: C_10  and  C_14
REMARK    7  A    between atoms: C_16  and  C_17
REMARK                            x       y       z     vdW  Elec       q    Type
REMARK                         _______ _______ _______ _____ _____    ______ ____
ROOT
ATOM      2  O   UNL     1      -4.332   3.659  26.179  0.00  0.00    -0.371 OA
ATOM     10  C   UNL     1      -4.534   3.005  24.914  0.00  0.00    +0.165 C 
ATOM     11  C   UNL     1      -3.145   2.738  24.352  0.00  0.00    +0.164 C 
ATOM     12  C   UNL     1      -2.390   3.959  24.844  0.00  0.00    +0.111 C 
ATOM     13  C   UNL     1      -2.975   4.134  26.236  0.00  0.00    +0.181 C 
ENDROOT
BRANCH  11   3
ATOM      3  O   UNL     1      -3.158   2.637  22.941  0.00  0.00    -0.388 OA
ATOM     23  H   UNL     1      -2.263   2.829  22.612  0.00  0.00    +0.210 HD
ENDBRANCH  11   3
BRANCH  12   6
ATOM      6  N   UNL     1      -0.947   3.789  24.853  0.00  0.00    -0.304 NA
ATOM     22  H   UNL     1      -0.509   4.686  25.058  0.00  0.00    +0.123 HD
BRANCH   6  16
ATOM     16  C   UNL     1      -0.538   2.817  25.862  0.00  0.00    +0.124 C 
BRANCH  16  17
ATOM      1  S   UNL     1       0.371   1.237  23.762  0.00  0.00    -0.100 S 
ATOM     17  C   UNL     1      -0.393   1.436  25.282  0.00  0.00    +0.004 A 
ATOM     18  C   UNL     1      -0.807   0.234  25.814  0.00  0.00    +0.012 A 
ATOM     19  C   UNL     1      -0.492  -0.865  24.964  0.00  0.00    +0.008 A 
ATOM     20  C   UNL     1       0.150  -0.462  23.814  0.00  0.00    +0.045 A 
ENDBRANCH  16  17
ENDBRANCH   6  16
ENDBRANCH  12   6
BRANCH  10  14
ATOM     14  C   UNL     1      -5.353   1.743  25.115  0.00  0.00    +0.138 C 
BRANCH  14   5
ATOM      4  O   UNL     1      -4.033  -0.630  26.156  0.00  0.00    -0.276 OA
ATOM      5  N   UNL     1      -4.811   0.645  24.367  0.00  0.00    -0.313 N 
ATOM     15  C   UNL     1      -4.195  -0.451  24.954  0.00  0.00    +0.216 C 
ATOM     21  H   UNL     1      -4.889   0.681  23.355  0.00  0.00    +0.149 HD
BRANCH  15   7
ATOM      7  C   UNL     1      -3.708  -1.476  23.986  0.00  0.00    +0.075 C 
ATOM      8  C   UNL     1      -3.375  -2.839  24.499  0.00  0.00    +0.013 C 
ATOM      9  C   UNL     1      -4.600  -2.628  23.660  0.00  0.00    +0.013 C 
ENDBRANCH  15   7
ENDBRANCH  14   5
ENDBRANCH  10  14
TORSDOF 7
ENDMDL
MODEL 2
REMARK VINA RESULT:      -6.3      2.417      4.147
REMARK  Name = 75536551
REMARK  7 active torsions:
REMARK  status: ('A' for Active; 'I' for Inactive)
REMARK    1  A    between atoms: O_3  and  C_11
REMARK    2  A    between atoms: N_5  and  C_14
REMARK    3  A    between atoms: N_6  and  C_12
REMARK    4  A    between atoms: N_6  and  C_16
REMARK    5  A    between atoms: C_7  and  C_15
REMARK    6  A    between atoms: C_10  and  C_14
REMARK    7  A    between atoms: C_16  and  C_17
REMARK                            x       y       z     vdW  Elec       q    Type
REMARK                         _______ _______ _______ _____ _____    ______ ____
ROOT
ATOM      2  O   UNL     1      -0.878   1.045  22.897  0.00  0.00    -0.371 OA
ATOM     10  C   UNL     1       0.025   0.809  23.990  0.00  0.00    +0.165 C 
ATOM     11  C   UNL     1      -0.430   1.727  25.117  0.00  0.00    +0.164 C 
ATOM     12  C   UNL     1      -0.909   2.935  24.335  0.00  0.00    +0.111 C 
ATOM     13  C   UNL     1      -1.583   2.275  23.143  0.00  0.00    +0.181 C 
ENDROOT
BRANCH  11   3
ATOM      3  O   UNL     1       0.627   2.035  26.005  0.00  0.00    -0.388 OA
ATOM     23  H   UNL     1       0.811   1.250  26.548  0.00  0.00    +0.210 HD
ENDBRANCH  11   3
BRANCH  12   6
ATOM      6  N   UNL     1      -1.805   3.798  25.086  0.00  0.00    -0.304 NA
ATOM     22  H   UNL     1      -1.350   4.698  25.236  0.00  0.00    +0.123 HD
BRANCH   6  16
ATOM     16  C   UNL     1      -3.056   4.012  24.366  0.00  0.00    +0.124 C 
BRANCH  16  17
ATOM      1  S   UNL     1      -5.469   3.826  25.735  0.00  0.00    -0.100 S 
ATOM     17  C   UNL     1      -4.158   3.127  24.884  0.00  0.00    +0.004 A 
ATOM     18  C   UNL     1      -4.281   1.759  24.777  0.00  0.00    +0.012 A 
ATOM     19  C   UNL     1      -5.470   1.278  25.400  0.00  0.00    +0.008 A 
ATOM     20  C   UNL     1      -6.208   2.296  25.961  0.00  0.00    +0.045 A 
ENDBRANCH  16  17
ENDBRANCH   6  16
ENDBRANCH  12   6
BRANCH  10  14
ATOM     14  C   UNL     1       0.002  -0.661  24.367  0.00  0.00    +0.138 C 
BRANCH  14   5
ATOM      4  O   UNL     1      -1.842  -0.913  26.602  0.00  0.00    -0.276 OA
ATOM      5  N   UNL     1      -1.334  -1.185  24.344  0.00  0.00    -0.313 N 
ATOM     15  C   UNL     1      -2.144  -1.266  25.467  0.00  0.00    +0.216 C 
ATOM     21  H   UNL     1      -1.697  -1.509  23.452  0.00  0.00    +0.149 HD
BRANCH  15   7
ATOM      7  C   UNL     1      -3.497  -1.841  25.212  0.00  0.00    +0.075 C 
ATOM      8  C   UNL     1      -4.071  -1.729  23.838  0.00  0.00    +0.013 C 
ATOM      9  C   UNL     1      -3.602  -3.057  24.353  0.00  0.00    +0.013 C 
ENDBRANCH  15   7
ENDBRANCH  14   5
ENDBRANCH  10  14
TORSDOF 7
ENDMDL
MODEL 3
REMARK VINA RESULT:      -6.0      2.067      4.012
REMARK  Name = 75536551
REMARK  7 active torsions:
REMARK  status: ('A' for Active; 'I' for Inactive)
REMARK    1  A    between atoms: O_3  and  C_11
REMARK    2  A    between atoms: N_5  and  C_14
REMARK    3  A    between atoms: N_6  and  C_12
REMARK    4  A    between atoms: N_6  and  C_16
REMARK    5  A    between atoms: C_7  and  C_15
REMARK    6  A    between atoms: C_10  and  C_14
REMARK    7  A    between atoms: C_16  and  C_17
REMARK                            x       y       z     vdW  Elec       q    Type
REMARK                         _______ _______ _______ _____ _____    ______ ____
ROOT
ATOM      2  O   UNL     1      -0.128   3.708  25.812  0.00  0.00    -0.371 OA
ATOM     10  C   UNL     1      -0.936   3.740  24.623  0.00  0.00    +0.165 C 
ATOM     11  C   UNL     1      -1.409   2.310  24.398  0.00  0.00    +0.164 C 
ATOM     12  C   UNL     1      -0.204   1.524  24.881  0.00  0.00    +0.111 C 
ATOM     13  C   UNL     1       0.223   2.341  26.090  0.00  0.00    +0.181 C 
ENDROOT
BRANCH  11   3
ATOM      3  O   UNL     1      -1.711   2.063  23.038  0.00  0.00    -0.388 OA
ATOM     23  H   UNL     1      -1.587   1.115  22.864  0.00  0.00    +0.210 HD
ENDBRANCH  11   3
BRANCH  12   6
ATOM      6  N   UNL     1      -0.504   0.140  25.210  0.00  0.00    -0.304 NA
ATOM     22  H   UNL     1       0.171  -0.190  25.899  0.00  0.00    +0.123 HD
BRANCH   6  16
ATOM     16  C   UNL     1      -1.849   0.009  25.759  0.00  0.00    +0.124 C 
BRANCH  16  17
ATOM      1  S   UNL     1      -1.922  -2.533  24.635  0.00  0.00    -0.100 S 
ATOM     17  C   UNL     1      -2.651  -1.035  25.030  0.00  0.00    +0.004 A 
ATOM     18  C   UNL     1      -3.959  -0.968  24.602  0.00  0.00    +0.012 A 
ATOM     19  C   UNL     1      -4.369  -2.163  23.943  0.00  0.00    +0.008 A 
ATOM     20  C   UNL     1      -3.359  -3.098  23.891  0.00  0.00    +0.045 A 
ENDBRANCH  16  17
ENDBRANCH   6  16
ENDBRANCH  12   6
BRANCH  10  14
ATOM     14  C   UNL     1      -2.075   4.727  24.804  0.00  0.00    +0.138 C 
BRANCH  14   5
ATOM      4  O   UNL     1      -3.990   4.109  26.904  0.00  0.00    -0.276 OA
ATOM      5  N   UNL     1      -3.350   4.084  24.663  0.00  0.00    -0.313 N 
ATOM     15  C   UNL     1      -4.201   3.829  25.729  0.00  0.00    +0.216 C 
ATOM     21  H   UNL     1      -3.636   3.805  23.730  0.00  0.00    +0.149 HD
BRANCH  15   7
ATOM      7  C   UNL     1      -5.477   3.154  25.352  0.00  0.00    +0.075 C 
ATOM      8  C   UNL     1      -5.406   1.845  24.638  0.00  0.00    +0.013 C 
ATOM      9  C   UNL     1      -5.856   1.899  26.068  0.00  0.00    +0.013 C 
ENDBRANCH  15   7
ENDBRANCH  14   5
ENDBRANCH  10  14
TORSDOF 7
ENDMDL
MODEL 4
REMARK VINA RESULT:      -5.6      3.299      6.355
REMARK  Name = 75536551
REMARK  7 active torsions:
REMARK  status: ('A' for Active; 'I' for Inactive)
REMARK    1  A    between atoms: O_3  and  C_11
REMARK    2  A    between atoms: N_5  and  C_14
REMARK    3  A    between atoms: N_6  and  C_12
REMARK    4  A    between atoms: N_6  and  C_16
REMARK    5  A    between atoms: C_7  and  C_15
REMARK    6  A    between atoms: C_10  and  C_14
REMARK    7  A    between atoms: C_16  and  C_17
REMARK                            x       y       z     vdW  Elec       q    Type
REMARK                         _______ _______ _______ _____ _____    ______ ____
ROOT
ATOM      2  O   UNL     1      -0.023   0.789  24.995  0.00  0.00    -0.371 OA
ATOM     10  C   UNL     1       0.119  -0.428  24.243  0.00  0.00    +0.165 C 
ATOM     11  C   UNL     1      -1.270  -1.048  24.179  0.00  0.00    +0.164 C 
ATOM     12  C   UNL     1      -1.826  -0.659  25.536  0.00  0.00    +0.111 C 
ATOM     13  C   UNL     1      -1.280   0.751  25.693  0.00  0.00    +0.181 C 
ENDROOT
BRANCH  11   3
ATOM      3  O   UNL     1      -1.214  -2.448  23.993  0.00  0.00    -0.388 OA
ATOM     23  H   UNL     1      -0.346  -2.764  24.296  0.00  0.00    +0.210 HD
ENDBRANCH  11   3
BRANCH  12   6
ATOM      6  N   UNL     1      -3.277  -0.716  25.611  0.00  0.00    -0.304 NA
ATOM     22  H   UNL     1      -3.586  -0.214  26.442  0.00  0.00    +0.123 HD
BRANCH   6  16
ATOM     16  C   UNL     1      -3.889  -0.111  24.433  0.00  0.00    +0.124 C 
BRANCH  16  17
ATOM      1  S   UNL     1      -3.564   2.606  23.938  0.00  0.00    -0.100 S 
ATOM     17  C   UNL     1      -4.355   1.294  24.704  0.00  0.00    +0.004 A 
ATOM     18  C   UNL     1      -5.379   1.715  25.524  0.00  0.00    +0.012 A 
ATOM     19  C   UNL     1      -5.518   3.133  25.522  0.00  0.00    +0.008 A 
ATOM     20  C   UNL     1      -4.594   3.742  24.702  0.00  0.00    +0.045 A 
ENDBRANCH  16  17
ENDBRANCH   6  16
ENDBRANCH  12   6
BRANCH  10  14
ATOM     14  C   UNL     1       0.703  -0.120  22.876  0.00  0.00    +0.138 C 
BRANCH  14   5
ATOM      4  O   UNL     1       2.924   1.742  23.120  0.00  0.00    -0.276 OA
ATOM      5  N   UNL     1       2.105  -0.420  22.828  0.00  0.00    -0.313 N 
ATOM     15  C   UNL     1       3.099   0.540  22.954  0.00  0.00    +0.216 C 
ATOM     21  H   UNL     1       2.374  -1.390  22.695  0.00  0.00    +0.149 HD
BRANCH  15   7
ATOM      7  C   UNL     1       4.489   0.003  22.876  0.00  0.00    +0.075 C 
ATOM      8  C   UNL     1       5.493   0.479  23.874  0.00  0.00    +0.013 C 
ATOM      9  C   UNL     1       4.956  -0.919  23.953  0.00  0.00    +0.013 C 
ENDBRANCH  15   7
ENDBRANCH  14   5
ENDBRANCH  10  14
TORSDOF 7
ENDMDL
MODEL 5
REMARK VINA RESULT:      -5.5      2.321      4.940
REMARK  Name = 75536551
REMARK  7 active torsions:
REMARK  status: ('A' for Active; 'I' for Inactive)
REMARK    1  A    between atoms: O_3  and  C_11
REMARK    2  A    between atoms: N_5  and  C_14
REMARK    3  A    between atoms: N_6  and  C_12
REMARK    4  A    between atoms: N_6  and  C_16
REMARK    5  A    between atoms: C_7  and  C_15
REMARK    6  A    between atoms: C_10  and  C_14
REMARK    7  A    between atoms: C_16  and  C_17
REMARK                            x       y       z     vdW  Elec       q    Type
REMARK                         _______ _______ _______ _____ _____    ______ ____
ROOT
ATOM      2  O   UNL     1      -1.270   2.021  22.984  0.00  0.00    -0.371 OA
ATOM     10  C   UNL     1      -1.066   2.691  24.240  0.00  0.00    +0.165 C 
ATOM     11  C   UNL     1      -2.372   2.547  25.010  0.00  0.00    +0.164 C 
ATOM     12  C   UNL     1      -3.385   2.619  23.883  0.00  0.00    +0.111 C 
ATOM     13  C   UNL     1      -2.683   1.826  22.794  0.00  0.00    +0.181 C 
ENDROOT
BRANCH  11   3
ATOM      3  O   UNL     1      -2.539   3.580  25.962  0.00  0.00    -0.388 OA
ATOM     23  H   UNL     1      -3.229   3.309  26.590  0.00  0.00    +0.210 HD
ENDBRANCH  11   3
BRANCH  12   6
ATOM      6  N   UNL     1      -4.686   2.073  24.232  0.00  0.00    -0.304 NA
ATOM     22  H   UNL     1      -5.055   1.558  23.433  0.00  0.00    +0.123 HD
BRANCH   6  16
ATOM     16  C   UNL     1      -4.589   1.172  25.376  0.00  0.00    +0.124 C 
BRANCH  16  17
ATOM      1  S   UNL     1      -2.772  -0.901  25.745  0.00  0.00    -0.100 S 
ATOM     17  C   UNL     1      -4.129  -0.202  24.968  0.00  0.00    +0.004 A 
ATOM     18  C   UNL     1      -4.659  -1.034  24.006  0.00  0.00    +0.012 A 
ATOM     19  C   UNL     1      -3.944  -2.263  23.907  0.00  0.00    +0.008 A 
ATOM     20  C   UNL     1      -2.893  -2.322  24.796  0.00  0.00    +0.045 A 
ENDBRANCH  16  17
ENDBRANCH   6  16
ENDBRANCH  12   6
BRANCH  10  14
ATOM     14  C   UNL     1       0.125   2.083  24.958  0.00  0.00    +0.138 C 
BRANCH  14   5
ATOM      4  O   UNL     1       0.392  -0.559  23.769  0.00  0.00    -0.276 OA
ATOM      5  N   UNL     1       1.123   1.639  24.028  0.00  0.00    -0.313 N 
ATOM     15  C   UNL     1       1.171   0.352  23.512  0.00  0.00    +0.216 C 
ATOM     21  H   UNL     1       1.828   2.310  23.738  0.00  0.00    +0.149 HD
BRANCH  15   7
ATOM      7  C   UNL     1       2.294   0.111  22.560  0.00  0.00    +0.075 C 
ATOM      8  C   UNL     1       3.518   0.960  22.670  0.00  0.00    +0.013 C 
ATOM      9  C   UNL     1       3.560  -0.481  23.087  0.00  0.00    +0.013 C 
ENDBRANCH  15   7
ENDBRANCH  14   5
ENDBRANCH  10  14
TORSDOF 7
ENDMDL
MODEL 6
REMARK VINA RESULT:      -4.9      1.989      4.450
REMARK  Name = 75536551
REMARK  7 active torsions:
REMARK  status: ('A' for Active; 'I' for Inactive)
REMARK    1  A    between atoms: O_3  and  C_11
REMARK    2  A    between atoms: N_5  and  C_14
REMARK    3  A    between atoms: N_6  and  C_12
REMARK    4  A    between atoms: N_6  and  C_16
REMARK    5  A    between atoms: C_7  and  C_15
REMARK    6  A    between atoms: C_10  and  C_14
REMARK    7  A    between atoms: C_16  and  C_17
REMARK                            x       y       z     vdW  Elec       q    Type
REMARK                         _______ _______ _______ _____ _____    ______ ____
ROOT
ATOM      2  O   UNL     1      -1.178  -1.718  23.487  0.00  0.00    -0.371 OA
ATOM     10  C   UNL     1      -1.615  -1.836  24.852  0.00  0.00    +0.165 C 
ATOM     11  C   UNL     1      -1.214  -0.535  25.535  0.00  0.00    +0.164 C 
ATOM     12  C   UNL     1       0.091  -0.223  24.827  0.00  0.00    +0.111 C 
ATOM     13  C   UNL     1      -0.233  -0.637  23.401  0.00  0.00    +0.181 C 
ENDROOT
BRANCH  11   3
ATOM      3  O   UNL     1      -1.052  -0.700  26.930  0.00  0.00    -0.388 OA
ATOM     23  H   UNL     1      -1.656  -0.088  27.384  0.00  0.00    +0.210 HD
ENDBRANCH  11   3
BRANCH  12   6
ATOM      6  N   UNL     1       0.495   1.169  24.935  0.00  0.00    -0.304 NA
ATOM     22  H   UNL     1       1.500   1.236  24.776  0.00  0.00    +0.123 HD
BRANCH   6  16
ATOM     16  C   UNL     1      -0.199   1.996  23.953  0.00  0.00    +0.124 C 
BRANCH  16  17
ATOM      1  S   UNL     1      -0.559   4.747  24.139  0.00  0.00    -0.100 S 
ATOM     17  C   UNL     1      -0.930   3.141  24.602  0.00  0.00    +0.004 A 
ATOM     18  C   UNL     1      -1.908   3.095  25.572  0.00  0.00    +0.012 A 
ATOM     19  C   UNL     1      -2.360   4.395  25.938  0.00  0.00    +0.008 A 
ATOM     20  C   UNL     1      -1.710   5.386  25.236  0.00  0.00    +0.045 A 
ENDBRANCH  16  17
ENDBRANCH   6  16
ENDBRANCH  12   6
BRANCH  10  14
ATOM     14  C   UNL     1      -3.109  -2.099  24.891  0.00  0.00    +0.138 C 
BRANCH  14   5
ATOM      4  O   UNL     1      -3.850   0.322  23.457  0.00  0.00    -0.276 OA
ATOM      5  N   UNL     1      -3.826  -0.965  25.401  0.00  0.00    -0.313 N 
ATOM     15  C   UNL     1      -4.135   0.152  24.638  0.00  0.00    +0.216 C 
ATOM     21  H   UNL     1      -4.118  -0.991  26.373  0.00  0.00    +0.149 HD
BRANCH  15   7
ATOM      7  C   UNL     1      -4.888   1.211  25.371  0.00  0.00    +0.075 C 
ATOM      8  C   UNL     1      -5.173   2.498  24.670  0.00  0.00    +0.013 C 
ATOM      9  C   UNL     1      -6.282   1.524  24.936  0.00  0.00    +0.013 C 
ENDBRANCH  15   7
ENDBRANCH  14   5
ENDBRANCH  10  14
TORSDOF 7
ENDMDL
MODEL 7
REMARK VINA RESULT:      -4.8      2.520      4.277
REMARK  Name = 75536551
REMARK  7 active torsions:
REMARK  status: ('A' for Active; 'I' for Inactive)
REMARK    1  A    between atoms: O_3  and  C_11
REMARK    2  A    between atoms: N_5  and  C_14
REMARK    3  A    between atoms: N_6  and  C_12
REMARK    4  A    between atoms: N_6  and  C_16
REMARK    5  A    between atoms: C_7  and  C_15
REMARK    6  A    between atoms: C_10  and  C_14
REMARK    7  A    between atoms: C_16  and  C_17
REMARK                            x       y       z     vdW  Elec       q    Type
REMARK                         _______ _______ _______ _____ _____    ______ ____
ROOT
ATOM      2  O   UNL     1      -0.103   3.639  23.804  0.00  0.00    -0.371 OA
ATOM     10  C   UNL     1       0.396   2.768  24.833  0.00  0.00    +0.165 C 
ATOM     11  C   UNL     1      -0.697   2.696  25.890  0.00  0.00    +0.164 C 
ATOM     12  C   UNL     1      -1.259   4.104  25.826  0.00  0.00    +0.111 C 
ATOM     13  C   UNL     1      -1.221   4.376  24.331  0.00  0.00    +0.181 C 
ENDROOT
BRANCH  11   3
ATOM      3  O   UNL     1      -0.177   2.374  27.165  0.00  0.00    -0.388 OA
ATOM     23  H   UNL     1       0.470   3.055  27.413  0.00  0.00    +0.210 HD
ENDBRANCH  11   3
BRANCH  12   6
ATOM      6  N   UNL     1      -2.594   4.226  26.389  0.00  0.00    -0.304 NA
ATOM     22  H   UNL     1      -2.637   5.072  26.957  0.00  0.00    +0.123 HD
BRANCH   6  16
ATOM     16  C   UNL     1      -3.604   4.303  25.339  0.00  0.00    +0.124 C 
BRANCH  16  17
ATOM      1  S   UNL     1      -3.906   1.756  24.266  0.00  0.00    -0.100 S 
ATOM     17  C   UNL     1      -4.429   3.047  25.263  0.00  0.00    +0.004 A 
ATOM     18  C   UNL     1      -5.612   2.757  25.907  0.00  0.00    +0.012 A 
ATOM     19  C   UNL     1      -6.095   1.457  25.579  0.00  0.00    +0.008 A 
ATOM     20  C   UNL     1      -5.264   0.804  24.696  0.00  0.00    +0.045 A 
ENDBRANCH  16  17
ENDBRANCH   6  16
ENDBRANCH  12   6
BRANCH  10  14
ATOM     14  C   UNL     1       0.744   1.417  24.236  0.00  0.00    +0.138 C 
BRANCH  14   5
ATOM      4  O   UNL     1      -0.053  -1.112  23.039  0.00  0.00    -0.276 OA
ATOM      5  N   UNL     1      -0.024   0.366  24.841  0.00  0.00    -0.313 N 
ATOM     15  C   UNL     1      -0.357  -0.812  24.188  0.00  0.00    +0.216 C 
ATOM     21  H   UNL     1      -0.334   0.501  25.799  0.00  0.00    +0.149 HD
BRANCH  15   7
ATOM      7  C   UNL     1      -1.159  -1.766  25.009  0.00  0.00    +0.075 C 
ATOM      8  C   UNL     1      -2.336  -1.243  25.764  0.00  0.00    +0.013 C 
ATOM      9  C   UNL     1      -2.540  -2.108  24.556  0.00  0.00    +0.013 C 
ENDBRANCH  15   7
ENDBRANCH  14   5
ENDBRANCH  10  14
TORSDOF 7
ENDMDL
MODEL 8
REMARK VINA RESULT:      -4.7      1.971      4.521
REMARK  Name = 75536551
REMARK  7 active torsions:
REMARK  status: ('A' for Active; 'I' for Inactive)
REMARK    1  A    between atoms: O_3  and  C_11
REMARK    2  A    between atoms: N_5  and  C_14
REMARK    3  A    between atoms: N_6  and  C_12
REMARK    4  A    between atoms: N_6  and  C_16
REMARK    5  A    between atoms: C_7  and  C_15
REMARK    6  A    between atoms: C_10  and  C_14
REMARK    7  A    between atoms: C_16  and  C_17
REMARK                            x       y       z     vdW  Elec       q    Type
REMARK                         _______ _______ _______ _____ _____    ______ ____
ROOT
ATOM      2  O   UNL     1      -2.903  -2.687  23.974  0.00  0.00    -0.371 OA
ATOM     10  C   UNL     1      -3.377  -1.731  24.937  0.00  0.00    +0.165 C 
ATOM     11  C   UNL     1      -2.210  -0.790  25.206  0.00  0.00    +0.164 C 
ATOM     12  C   UNL     1      -1.035  -1.745  25.100  0.00  0.00    +0.111 C 
ATOM     13  C   UNL     1      -1.466  -2.624  23.937  0.00  0.00    +0.181 C 
ENDROOT
BRANCH  11   3
ATOM      3  O   UNL     1      -2.305  -0.183  26.480  0.00  0.00    -0.388 OA
ATOM     23  H   UNL     1      -2.893   0.588  26.408  0.00  0.00    +0.210 HD
ENDBRANCH  11   3
BRANCH  12   6
ATOM      6  N   UNL     1       0.237  -1.081  24.867  0.00  0.00    -0.304 NA
ATOM     22  H   UNL     1       0.943  -1.784  24.651  0.00  0.00    +0.123 HD
BRANCH   6  16
ATOM     16  C   UNL     1       0.145  -0.141  23.755  0.00  0.00    +0.124 C 
BRANCH  16  17
ATOM      1  S   UNL     1      -1.260   2.214  23.297  0.00  0.00    -0.100 S 
ATOM     17  C   UNL     1      -0.191   1.249  24.223  0.00  0.00    +0.004 A 
ATOM     18  C   UNL     1       0.258   1.907  25.347  0.00  0.00    +0.012 A 
ATOM     19  C   UNL     1      -0.284   3.221  25.451  0.00  0.00    +0.008 A 
ATOM     20  C   UNL     1      -1.126   3.517  24.402  0.00  0.00    +0.045 A 
ENDBRANCH  16  17
ENDBRANCH   6  16
ENDBRANCH  12   6
BRANCH  10  14
ATOM     14  C   UNL     1      -4.605  -1.023  24.394  0.00  0.00    +0.138 C 
BRANCH  14   5
ATOM      4  O   UNL     1      -5.913   1.088  25.908  0.00  0.00    -0.276 OA
ATOM      5  N   UNL     1      -4.388   0.392  24.289  0.00  0.00    -0.313 N 
ATOM     15  C   UNL     1      -5.063   1.329  25.058  0.00  0.00    +0.216 C 
ATOM     21  H   UNL     1      -3.701   0.714  23.614  0.00  0.00    +0.149 HD
BRANCH  15   7
ATOM      7  C   UNL     1      -4.678   2.744  24.785  0.00  0.00    +0.075 C 
ATOM      8  C   UNL     1      -5.491   3.835  25.401  0.00  0.00    +0.013 C 
ATOM      9  C   UNL     1      -4.105   3.554  25.902  0.00  0.00    +0.013 C 
ENDBRANCH  15   7
ENDBRANCH  14   5
ENDBRANCH  10  14
TORSDOF 7
ENDMDL
MODEL 9
REMARK VINA RESULT:      -4.4      3.192      5.904
REMARK  Name = 75536551
REMARK  7 active torsions:
REMARK  status: ('A' for Active; 'I' for Inactive)
REMARK    1  A    between atoms: O_3  and  C_11
REMARK    2  A    between atoms: N_5  and  C_14
REMARK    3  A    between atoms: N_6  and  C_12
REMARK    4  A    between atoms: N_6  and  C_16
REMARK    5  A    between atoms: C_7  and  C_15
REMARK    6  A    between atoms: C_10  and  C_14
REMARK    7  A    between atoms: C_16  and  C_17
REMARK                            x       y       z     vdW  Elec       q    Type
REMARK                         _______ _______ _______ _____ _____    ______ ____
ROOT
ATOM      2  O   UNL     1       0.157   3.596  23.670  0.00  0.00    -0.371 OA
ATOM     10  C   UNL     1       0.557   2.514  24.529  0.00  0.00    +0.165 C 
ATOM     11  C   UNL     1      -0.576   2.332  25.530  0.00  0.00    +0.164 C 
ATOM     12  C   UNL     1      -1.033   3.767  25.718  0.00  0.00    +0.111 C 
ATOM     13  C   UNL     1      -0.922   4.307  24.302  0.00  0.00    +0.181 C 
ENDROOT
BRANCH  11   3
ATOM      3  O   UNL     1      -0.126   1.741  26.733  0.00  0.00    -0.388 OA
ATOM     23  H   UNL     1       0.811   1.502  26.626  0.00  0.00    +0.210 HD
ENDBRANCH  11   3
BRANCH  12   6
ATOM      6  N   UNL     1      -2.374   3.885  26.266  0.00  0.00    -0.304 NA
ATOM     22  H   UNL     1      -2.409   4.692  26.887  0.00  0.00    +0.123 HD
BRANCH   6  16
ATOM     16  C   UNL     1      -3.363   4.055  25.206  0.00  0.00    +0.124 C 
BRANCH  16  17
ATOM      1  S   UNL     1      -3.742   1.394  24.496  0.00  0.00    -0.100 S 
ATOM     17  C   UNL     1      -4.304   2.884  25.125  0.00  0.00    +0.004 A 
ATOM     18  C   UNL     1      -5.629   2.821  25.498  0.00  0.00    +0.012 A 
ATOM     19  C   UNL     1      -6.190   1.532  25.266  0.00  0.00    +0.008 A 
ATOM     20  C   UNL     1      -5.273   0.659  24.723  0.00  0.00    +0.045 A 
ENDBRANCH  16  17
ENDBRANCH   6  16
ENDBRANCH  12   6
BRANCH  10  14
ATOM     14  C   UNL     1       0.828   1.274  23.697  0.00  0.00    +0.138 C 
BRANCH  14   5
ATOM      4  O   UNL     1       2.180  -0.193  21.580  0.00  0.00    -0.276 OA
ATOM      5  N   UNL     1       2.237   1.036  23.560  0.00  0.00    -0.313 N 
ATOM     15  C   UNL     1       2.793   0.320  22.510  0.00  0.00    +0.216 C 
ATOM     21  H   UNL     1       2.850   1.417  24.274  0.00  0.00    +0.149 HD
BRANCH  15   7
ATOM      7  C   UNL     1       4.280   0.198  22.566  0.00  0.00    +0.075 C 
ATOM      8  C   UNL     1       5.002   0.815  23.718  0.00  0.00    +0.013 C 
ATOM      9  C   UNL     1       4.882  -0.677  23.615  0.00  0.00    +0.013 C 
ENDBRANCH  15   7
ENDBRANCH  14   5
ENDBRANCH  10  14
TORSDOF 7
ENDMDL
MODEL 10
REMARK VINA RESULT:      -4.0      2.805      4.777
REMARK  Name = 75536551
REMARK  7 active torsions:
REMARK  status: ('A' for Active; 'I' for Inactive)
REMARK    1  A    between atoms: O_3  and  C_11
REMARK    2  A    between atoms: N_5  and  C_14
REMARK    3  A    between atoms: N_6  and  C_12
REMARK    4  A    between atoms: N_6  and  C_16
REMARK    5  A    between atoms: C_7  and  C_15
REMARK    6  A    between atoms: C_10  and  C_14
REMARK    7  A    between atoms: C_16  and  C_17
REMARK                            x       y       z     vdW  Elec       q    Type
REMARK                         _______ _______ _______ _____ _____    ______ ____
ROOT
ATOM      2  O   UNL     1      -2.565   0.898  23.381  0.00  0.00    -0.371 OA
ATOM     10  C   UNL     1      -2.855  -0.321  24.085  0.00  0.00    +0.165 C 
ATOM     11  C   UNL     1      -1.519  -0.835  24.604  0.00  0.00    +0.164 C 
ATOM     12  C   UNL     1      -0.589  -0.415  23.482  0.00  0.00    +0.111 C 
ATOM     13  C   UNL     1      -1.152   0.949  23.118  0.00  0.00    +0.181 C 
ENDROOT
BRANCH  11   3
ATOM      3  O   UNL     1      -1.535  -2.235  24.805  0.00  0.00    -0.388 OA
ATOM     23  H   UNL     1      -1.030  -2.653  24.087  0.00  0.00    +0.210 HD
ENDBRANCH  11   3
BRANCH  12   6
ATOM      6  N   UNL     1       0.811  -0.364  23.873  0.00  0.00    -0.304 NA
ATOM     22  H   UNL     1       1.034  -1.199  24.413  0.00  0.00    +0.123 HD
BRANCH   6  16
ATOM     16  C   UNL     1       1.682  -0.305  22.704  0.00  0.00    +0.124 C 
BRANCH  16  17
ATOM      1  S   UNL     1       4.126   1.020  22.696  0.00  0.00    -0.100 S 
ATOM     17  C   UNL     1       3.137  -0.321  23.089  0.00  0.00    +0.004 A 
ATOM     18  C   UNL     1       3.839  -1.308  23.746  0.00  0.00    +0.012 A 
ATOM     19  C   UNL     1       5.208  -0.958  23.930  0.00  0.00    +0.008 A 
ATOM     20  C   UNL     1       5.500   0.283  23.407  0.00  0.00    +0.045 A 
ENDBRANCH  16  17
ENDBRANCH   6  16
ENDBRANCH  12   6
BRANCH  10  14
ATOM     14  C   UNL     1      -3.863  -0.049  25.187  0.00  0.00    +0.138 C 
BRANCH  14   5
ATOM      4  O   UNL     1      -6.169   1.681  24.797  0.00  0.00    -0.276 OA
ATOM      5  N   UNL     1      -3.962   1.355  25.469  0.00  0.00    -0.313 N 
ATOM     15  C   UNL     1      -5.110   2.101  25.249  0.00  0.00    +0.216 C 
ATOM     21  H   UNL     1      -3.141   1.816  25.851  0.00  0.00    +0.149 HD
BRANCH  15   7
ATOM      7  C   UNL     1      -4.988   3.542  25.617  0.00  0.00    +0.075 C 
ATOM      8  C   UNL     1      -3.690   4.029  26.172  0.00  0.00    +0.013 C 
ATOM      9  C   UNL     1      -4.110   4.418  24.786  0.00  0.00    +0.013 C 
ENDBRANCH  15   7
ENDBRANCH  14   5
ENDBRANCH  10  14
TORSDOF 7
ENDMDL
