MODEL 1
REMARK VINA RESULT:      -3.1      0.000      0.000
REMARK  Name = 71693885
REMARK  9 active torsions:
REMARK  status: ('A' for Active; 'I' for Inactive)
REMARK    1  A    between atoms: O_1  and  C_9
REMARK    2  A    between atoms: O_2  and  C_11
REMARK    3  A    between atoms: O_4  and  C_18
REMARK    4  A    between atoms: O_4  and  C_25
REMARK    5  A    between atoms: O_5  and  C_22
REMARK    6  A    between atoms: O_5  and  C_26
REMARK    7  A    between atoms: N_6  and  C_8
REMARK    8  A    between atoms: C_7  and  C_12
REMARK    9  A    between atoms: C_15  and  C_19
REMARK                            x       y       z     vdW  Elec       q    Type
REMARK                         _______ _______ _______ _____ _____    ______ ____
ROOT
ATOM      7  C   UNL     1      13.304  -9.340  31.631  0.00  0.00    +0.044 C 
ATOM      8  C   UNL     1      13.827  -8.417  30.507  0.00  0.00    +0.112 C 
ATOM      9  C   UNL     1      14.939  -9.240  29.859  0.00  0.00    +0.164 C 
ATOM     10  C   UNL     1      13.690 -10.781  31.208  0.00  0.00    +0.044 C 
ATOM     11  C   UNL     1      14.361 -10.649  29.842  0.00  0.00    +0.145 C 
ENDROOT
BRANCH   7  12
ATOM     12  C   UNL     1      11.829  -9.148  31.918  0.00  0.00    -0.042 A 
ATOM     13  C   UNL     1      11.016 -10.255  32.159  0.00  0.00    +0.007 A 
ATOM     14  C   UNL     1      11.286  -7.864  31.940  0.00  0.00    +0.007 A 
ATOM     16  C   UNL     1       9.658 -10.077  32.423  0.00  0.00    +0.046 A 
ATOM     17  C   UNL     1       9.928  -7.686  32.204  0.00  0.00    +0.046 A 
ATOM     18  C   UNL     1       9.114  -8.793  32.446  0.00  0.00    +0.120 A 
BRANCH  18   4
ATOM      4  O   UNL     1       7.788  -8.620  32.702  0.00  0.00    -0.495 OA
ATOM     25  C   UNL     1       6.978  -8.131  31.634  0.00  0.00    +0.277 C 
ENDBRANCH  18   4
ENDBRANCH   7  12
BRANCH   8   6
ATOM      3  O   UNL     1      14.472  -6.072  28.981  0.00  0.00    -0.270 OA
ATOM      6  N   UNL     1      14.315  -7.162  31.022  0.00  0.00    -0.305 N 
ATOM     15  C   UNL     1      14.602  -6.079  30.202  0.00  0.00    +0.244 C 
ATOM     27  H   UNL     1      14.346  -7.060  32.030  0.00  0.00    +0.149 HD
BRANCH  15  19
ATOM     19  C   UNL     1      15.122  -4.866  30.884  0.00  0.00    +0.040 A 
ATOM     20  C   UNL     1      15.899  -3.948  30.180  0.00  0.00    +0.058 A 
ATOM     21  C   UNL     1      14.832  -4.647  32.231  0.00  0.00    +0.013 A 
ATOM     22  C   UNL     1      16.387  -2.809  30.821  0.00  0.00    +0.121 A 
ATOM     23  C   UNL     1      15.321  -3.508  32.873  0.00  0.00    +0.004 A 
ATOM     24  C   UNL     1      16.098  -2.589  32.167  0.00  0.00    +0.045 A 
BRANCH  22   5
ATOM      5  O   UNL     1      17.145  -1.912  30.132  0.00  0.00    -0.495 OA
ATOM     26  C   UNL     1      17.405  -2.200  28.760  0.00  0.00    +0.277 C 
ENDBRANCH  22   5
ENDBRANCH  15  19
ENDBRANCH   8   6
BRANCH   9   1
ATOM      1  O   UNL     1      15.242  -8.795  28.550  0.00  0.00    -0.387 OA
ATOM     28  H   UNL     1      15.976  -8.162  28.620  0.00  0.00    +0.210 HD
ENDBRANCH   9   1
BRANCH  11   2
ATOM      2  O   UNL     1      13.366 -10.780  28.831  0.00  0.00    -0.389 OA
ATOM     29  H   UNL     1      12.932  -9.915  28.734  0.00  0.00    +0.210 HD
ENDBRANCH  11   2
TORSDOF 7
ENDMDL
MODEL 2
REMARK VINA RESULT:      -2.8     25.214     28.763
REMARK  Name = 71693885
REMARK  9 active torsions:
REMARK  status: ('A' for Active; 'I' for Inactive)
REMARK    1  A    between atoms: O_1  and  C_9
REMARK    2  A    between atoms: O_2  and  C_11
REMARK    3  A    between atoms: O_4  and  C_18
REMARK    4  A    between atoms: O_4  and  C_25
REMARK    5  A    between atoms: O_5  and  C_22
REMARK    6  A    between atoms: O_5  and  C_26
REMARK    7  A    between atoms: N_6  and  C_8
REMARK    8  A    between atoms: C_7  and  C_12
REMARK    9  A    between atoms: C_15  and  C_19
REMARK                            x       y       z     vdW  Elec       q    Type
REMARK                         _______ _______ _______ _____ _____    ______ ____
ROOT
ATOM      7  C   UNL     1      -6.547 -10.102   9.384  0.00  0.00    +0.044 C 
ATOM      8  C   UNL     1      -5.574  -9.739  10.528  0.00  0.00    +0.112 C 
ATOM      9  C   UNL     1      -4.303 -10.510  10.172  0.00  0.00    +0.164 C 
ATOM     10  C   UNL     1      -5.655 -10.532   8.190  0.00  0.00    +0.044 C 
ATOM     11  C   UNL     1      -4.213 -10.348   8.660  0.00  0.00    +0.145 C 
ENDROOT
BRANCH   7  12
ATOM     12  C   UNL     1      -7.525  -8.991   9.064  0.00  0.00    -0.042 A 
ATOM     13  C   UNL     1      -7.052  -7.733   8.688  0.00  0.00    +0.007 A 
ATOM     14  C   UNL     1      -8.897  -9.225   9.144  0.00  0.00    +0.007 A 
ATOM     16  C   UNL     1      -7.953  -6.710   8.394  0.00  0.00    +0.046 A 
ATOM     17  C   UNL     1      -9.798  -8.202   8.850  0.00  0.00    +0.046 A 
ATOM     18  C   UNL     1      -9.326  -6.944   8.474  0.00  0.00    +0.120 A 
BRANCH  18   4
ATOM      4  O   UNL     1     -10.205  -5.945   8.188  0.00  0.00    -0.495 OA
ATOM     25  C   UNL     1     -10.088  -4.741   8.944  0.00  0.00    +0.277 C 
ENDBRANCH  18   4
ENDBRANCH   7  12
BRANCH   8   6
ATOM      3  O   UNL     1      -6.659  -7.987  12.527  0.00  0.00    -0.270 OA
ATOM      6  N   UNL     1      -6.090 -10.121  11.819  0.00  0.00    -0.305 N 
ATOM     15  C   UNL     1      -6.596  -9.197  12.724  0.00  0.00    +0.244 C 
ATOM     27  H   UNL     1      -6.168 -11.114  12.007  0.00  0.00    +0.149 HD
BRANCH  15  19
ATOM     19  C   UNL     1      -7.066  -9.748  14.021  0.00  0.00    +0.040 A 
ATOM     20  C   UNL     1      -6.152 -10.005  15.042  0.00  0.00    +0.058 A 
ATOM     21  C   UNL     1      -8.423 -10.007  14.217  0.00  0.00    +0.013 A 
ATOM     22  C   UNL     1      -6.594 -10.522  16.260  0.00  0.00    +0.121 A 
ATOM     23  C   UNL     1      -8.864 -10.524  15.436  0.00  0.00    +0.004 A 
ATOM     24  C   UNL     1      -7.949 -10.781  16.458  0.00  0.00    +0.045 A 
BRANCH  22   5
ATOM      5  O   UNL     1      -5.701 -10.772  17.257  0.00  0.00    -0.495 OA
ATOM     26  C   UNL     1      -4.323 -10.543  16.968  0.00  0.00    +0.277 C 
ENDBRANCH  22   5
ENDBRANCH  15  19
ENDBRANCH   8   6
BRANCH   9   1
ATOM      1  O   UNL     1      -3.157  -9.980  10.812  0.00  0.00    -0.387 OA
ATOM     28  H   UNL     1      -2.874  -9.200  10.304  0.00  0.00    +0.210 HD
ENDBRANCH   9   1
BRANCH  11   2
ATOM      2  O   UNL     1      -3.784  -9.035   8.312  0.00  0.00    -0.389 OA
ATOM     29  H   UNL     1      -3.663  -9.013   7.346  0.00  0.00    +0.210 HD
ENDBRANCH  11   2
TORSDOF 7
ENDMDL
MODEL 3
REMARK VINA RESULT:      -2.3     25.453     28.183
REMARK  Name = 71693885
REMARK  9 active torsions:
REMARK  status: ('A' for Active; 'I' for Inactive)
REMARK    1  A    between atoms: O_1  and  C_9
REMARK    2  A    between atoms: O_2  and  C_11
REMARK    3  A    between atoms: O_4  and  C_18
REMARK    4  A    between atoms: O_4  and  C_25
REMARK    5  A    between atoms: O_5  and  C_22
REMARK    6  A    between atoms: O_5  and  C_26
REMARK    7  A    between atoms: N_6  and  C_8
REMARK    8  A    between atoms: C_7  and  C_12
REMARK    9  A    between atoms: C_15  and  C_19
REMARK                            x       y       z     vdW  Elec       q    Type
REMARK                         _______ _______ _______ _____ _____    ______ ____
ROOT
ATOM      7  C   UNL     1      -5.470 -10.298  10.748  0.00  0.00    +0.044 C 
ATOM      8  C   UNL     1      -5.038  -9.939  12.188  0.00  0.00    +0.112 C 
ATOM      9  C   UNL     1      -3.762 -10.755  12.390  0.00  0.00    +0.164 C 
ATOM     10  C   UNL     1      -4.184 -10.781  10.029  0.00  0.00    +0.044 C 
ATOM     11  C   UNL     1      -3.055 -10.630  11.047  0.00  0.00    +0.145 C 
ENDROOT
BRANCH   7  12
ATOM     12  C   UNL     1      -6.189  -9.164  10.046  0.00  0.00    -0.042 A 
ATOM     13  C   UNL     1      -5.465  -8.080   9.551  0.00  0.00    +0.007 A 
ATOM     14  C   UNL     1      -7.575  -9.206   9.895  0.00  0.00    +0.007 A 
ATOM     16  C   UNL     1      -6.128  -7.036   8.905  0.00  0.00    +0.046 A 
ATOM     17  C   UNL     1      -8.237  -8.163   9.248  0.00  0.00    +0.046 A 
ATOM     18  C   UNL     1      -7.513  -7.078   8.753  0.00  0.00    +0.120 A 
BRANCH  18   4
ATOM      4  O   UNL     1      -8.160  -6.059   8.124  0.00  0.00    -0.495 OA
ATOM     25  C   UNL     1      -9.563  -5.936   8.359  0.00  0.00    +0.277 C 
ENDBRANCH  18   4
ENDBRANCH   7  12
BRANCH   8   6
ATOM      3  O   UNL     1      -7.008  -8.167  13.295  0.00  0.00    -0.270 OA
ATOM      6  N   UNL     1      -6.051 -10.275  13.156  0.00  0.00    -0.305 N 
ATOM     15  C   UNL     1      -6.964  -9.346  13.636  0.00  0.00    +0.244 C 
ATOM     27  H   UNL     1      -6.143 -11.255  13.403  0.00  0.00    +0.149 HD
BRANCH  15  19
ATOM     19  C   UNL     1      -7.928  -9.845  14.650  0.00  0.00    +0.040 A 
ATOM     20  C   UNL     1      -7.581  -9.851  16.000  0.00  0.00    +0.058 A 
ATOM     21  C   UNL     1      -9.183 -10.308  14.250  0.00  0.00    +0.013 A 
ATOM     22  C   UNL     1      -8.487 -10.319  16.952  0.00  0.00    +0.121 A 
ATOM     23  C   UNL     1     -10.089 -10.776  15.202  0.00  0.00    +0.004 A 
ATOM     24  C   UNL     1      -9.741 -10.781  16.553  0.00  0.00    +0.045 A 
BRANCH  22   5
ATOM      5  O   UNL     1      -8.147 -10.324  18.270  0.00  0.00    -0.495 OA
ATOM     26  C   UNL     1      -9.190 -10.580  19.209  0.00  0.00    +0.277 C 
ENDBRANCH  22   5
ENDBRANCH  15  19
ENDBRANCH   8   6
BRANCH   9   1
ATOM      1  O   UNL     1      -2.960 -10.246  13.439  0.00  0.00    -0.387 OA
ATOM     28  H   UNL     1      -3.284  -9.353  13.647  0.00  0.00    +0.210 HD
ENDBRANCH   9   1
BRANCH  11   2
ATOM      2  O   UNL     1      -2.473  -9.338  10.895  0.00  0.00    -0.389 OA
ATOM     29  H   UNL     1      -1.873  -9.376  10.129  0.00  0.00    +0.210 HD
ENDBRANCH  11   2
TORSDOF 7
ENDMDL
MODEL 4
REMARK VINA RESULT:      -1.2     14.566     17.769
REMARK  Name = 71693885
REMARK  9 active torsions:
REMARK  status: ('A' for Active; 'I' for Inactive)
REMARK    1  A    between atoms: O_1  and  C_9
REMARK    2  A    between atoms: O_2  and  C_11
REMARK    3  A    between atoms: O_4  and  C_18
REMARK    4  A    between atoms: O_4  and  C_25
REMARK    5  A    between atoms: O_5  and  C_22
REMARK    6  A    between atoms: O_5  and  C_26
REMARK    7  A    between atoms: N_6  and  C_8
REMARK    8  A    between atoms: C_7  and  C_12
REMARK    9  A    between atoms: C_15  and  C_19
REMARK                            x       y       z     vdW  Elec       q    Type
REMARK                         _______ _______ _______ _____ _____    ______ ____
ROOT
ATOM      7  C   UNL     1      -2.225  -0.694  25.583  0.00  0.00    +0.044 C 
ATOM      8  C   UNL     1      -1.604  -1.310  24.309  0.00  0.00    +0.112 C 
ATOM      9  C   UNL     1      -1.813  -2.812  24.503  0.00  0.00    +0.164 C 
ATOM     10  C   UNL     1      -3.237  -1.744  26.111  0.00  0.00    +0.044 C 
ATOM     11  C   UNL     1      -3.211  -2.892  25.103  0.00  0.00    +0.145 C 
ENDROOT
BRANCH   7  12
ATOM     12  C   UNL     1      -2.817   0.680  25.347  0.00  0.00    -0.042 A 
ATOM     13  C   UNL     1      -2.005   1.812  25.421  0.00  0.00    +0.007 A 
ATOM     14  C   UNL     1      -4.175   0.814  25.056  0.00  0.00    +0.007 A 
ATOM     16  C   UNL     1      -2.550   3.077  25.204  0.00  0.00    +0.046 A 
ATOM     17  C   UNL     1      -4.720   2.079  24.839  0.00  0.00    +0.046 A 
ATOM     18  C   UNL     1      -3.907   3.210  24.913  0.00  0.00    +0.120 A 
BRANCH  18   4
ATOM      4  O   UNL     1      -4.440   4.445  24.702  0.00  0.00    -0.495 OA
ATOM     25  C   UNL     1      -5.640   4.764  25.407  0.00  0.00    +0.277 C 
ENDBRANCH  18   4
ENDBRANCH   7  12
BRANCH   8   6
ATOM      3  O   UNL     1      -0.471   0.596  22.485  0.00  0.00    -0.270 OA
ATOM      6  N   UNL     1      -0.209  -0.974  24.171  0.00  0.00    -0.305 N 
ATOM     15  C   UNL     1       0.247  -0.035  23.256  0.00  0.00    +0.244 C 
ATOM     27  H   UNL     1       0.430  -1.378  24.848  0.00  0.00    +0.149 HD
BRANCH  15  19
ATOM     19  C   UNL     1       1.716   0.178  23.219  0.00  0.00    +0.040 A 
ATOM     20  C   UNL     1       2.581  -0.861  23.561  0.00  0.00    +0.058 A 
ATOM     21  C   UNL     1       2.231   1.418  22.842  0.00  0.00    +0.013 A 
ATOM     22  C   UNL     1       3.961  -0.661  23.526  0.00  0.00    +0.121 A 
ATOM     23  C   UNL     1       3.612   1.619  22.807  0.00  0.00    +0.004 A 
ATOM     24  C   UNL     1       4.477   0.579  23.149  0.00  0.00    +0.045 A 
BRANCH  22   5
ATOM      5  O   UNL     1       4.805  -1.676  23.859  0.00  0.00    -0.495 OA
ATOM     26  C   UNL     1       6.119  -1.317  24.282  0.00  0.00    +0.277 C 
ENDBRANCH  22   5
ENDBRANCH  15  19
ENDBRANCH   8   6
BRANCH   9   1
ATOM      1  O   UNL     1      -1.739  -3.525  23.282  0.00  0.00    -0.387 OA
ATOM     28  H   UNL     1      -2.236  -3.018  22.618  0.00  0.00    +0.210 HD
ENDBRANCH   9   1
BRANCH  11   2
ATOM      2  O   UNL     1      -4.206  -2.652  24.112  0.00  0.00    -0.389 OA
ATOM     29  H   UNL     1      -4.180  -1.703  23.896  0.00  0.00    +0.210 HD
ENDBRANCH  11   2
TORSDOF 7
ENDMDL
