MODEL 1
REMARK VINA RESULT:      14.1      0.000      0.000
REMARK  Name = 11882972
REMARK  8 active torsions:
REMARK  status: ('A' for Active; 'I' for Inactive)
REMARK    1  A    between atoms: O_3  and  C_16
REMARK    2  A    between atoms: O_4  and  C_21
REMARK    3  A    between atoms: C_11  and  C_19
REMARK    4  A    between atoms: C_13  and  C_21
REMARK    5  A    between atoms: C_13  and  C_22
REMARK    6  A    between atoms: C_14  and  C_24
REMARK    7  A    between atoms: C_24  and  C_25
REMARK    8  A    between atoms: C_27  and  C_28
REMARK                            x       y       z     vdW  Elec       q    Type
REMARK                         _______ _______ _______ _____ _____    ______ ____
ROOT
ATOM      1  S   UNL     1      -0.963  -0.715  23.021  0.00  0.00    -0.057 S 
ATOM      6  O   UNL     1       3.050   1.611  23.550  0.00  0.00    -0.275 OA
ATOM      7  N   UNL     1       0.118   1.415  24.015  0.00  0.00    -0.229 NA
ATOM      8  N   UNL     1       1.583  -0.110  22.860  0.00  0.00    -0.264 N 
ATOM     11  C   UNL     1      -3.426   2.628  24.932  0.00  0.00    -0.019 C 
ATOM     12  C   UNL     1      -3.965   1.145  25.140  0.00  0.00    +0.011 C 
ATOM     13  C   UNL     1      -5.504   0.978  25.439  0.00  0.00    +0.021 C 
ATOM     14  C   UNL     1      -1.835   2.600  25.086  0.00  0.00    +0.054 C 
ATOM     15  C   UNL     1      -4.007   3.547  26.038  0.00  0.00    +0.010 C 
ATOM     16  C   UNL     1      -5.928   2.000  26.531  0.00  0.00    +0.123 C 
ATOM     17  C   UNL     1      -3.433   0.187  24.034  0.00  0.00    +0.049 C 
ATOM     18  C   UNL     1      -5.515   3.431  26.207  0.00  0.00    +0.032 C 
ATOM     19  C   UNL     1      -3.799   3.217  23.550  0.00  0.00    +0.012 C 
ATOM     20  C   UNL     1      -1.235   1.464  24.297  0.00  0.00    +0.058 A 
ATOM     22  C   UNL     1      -5.759  -0.445  26.014  0.00  0.00    +0.016 C 
ATOM     23  C   UNL     1      -1.967   0.383  23.852  0.00  0.00    +0.015 A 
ATOM     26  C   UNL     1       0.374   0.316  23.340  0.00  0.00    +0.165 A 
ATOM     28  C   UNL     1       2.820   0.544  22.989  0.00  0.00    +0.222 C 
ATOM     39  H   UNL     1       1.556  -1.000  22.369  0.00  0.00    +0.157 HD
ENDROOT
BRANCH  28  27
ATOM     27  C   UNL     1       3.929  -0.228  22.336  0.00  0.00    +0.075 C 
ATOM     29  C   UNL     1       5.266   0.502  22.479  0.00  0.00    +0.013 C 
ATOM     30  C   UNL     1       3.972  -1.655  22.886  0.00  0.00    +0.013 C 
ATOM     32  C   UNL     1       5.878   0.383  23.875  0.00  0.00    +0.001 C 
ATOM     33  C   UNL     1       4.584  -1.740  24.284  0.00  0.00    +0.001 C 
ATOM     34  C   UNL     1       5.950  -1.066  24.342  0.00  0.00    +0.000 C 
ENDBRANCH  28  27
BRANCH  16   3
ATOM      3  O   UNL     1      -7.341   1.964  26.733  0.00  0.00    -0.391 OA
ATOM     37  H   UNL     1      -7.727   2.717  26.253  0.00  0.00    +0.210 HD
ENDBRANCH  16   3
BRANCH  13  21
ATOM     21  C   UNL     1      -6.414   1.091  24.195  0.00  0.00    +0.165 C 
BRANCH  21   4
ATOM      4  O   UNL     1      -7.465   1.978  24.509  0.00  0.00    -0.394 OA
ATOM     38  H   UNL     1      -7.504   2.050  25.478  0.00  0.00    +0.209 HD
ENDBRANCH  21   4
ENDBRANCH  13  21
BRANCH  14  24
ATOM     24  C   UNL     1      -1.141   3.931  24.769  0.00  0.00    +0.106 C 
BRANCH  24  25
ATOM      2  S   UNL     1       0.886   1.833  28.774  0.00  0.00    -0.061 S 
ATOM      5  O   UNL     1       0.885   5.060  25.414  0.00  0.00    -0.275 OA
ATOM      9  N   UNL     1       0.122   3.210  26.651  0.00  0.00    -0.265 N 
ATOM     10  N   UNL     1       2.162   3.862  27.808  0.00  0.00    -0.233 NA
ATOM     25  C   UNL     1       0.085   4.158  25.634  0.00  0.00    +0.219 C 
ATOM     31  C   UNL     1       1.101   3.104  27.642  0.00  0.00    +0.164 A 
ATOM     35  C   UNL     1       2.328   2.322  29.561  0.00  0.00    +0.068 A 
ATOM     36  C   UNL     1       2.865   3.412  28.908  0.00  0.00    +0.120 A 
ATOM     40  H   UNL     1      -0.613   2.509  26.710  0.00  0.00    +0.157 HD
ENDBRANCH  24  25
ENDBRANCH  14  24
TORSDOF 6
ENDMDL
MODEL 2
REMARK VINA RESULT:      16.9      2.711      4.125
REMARK  Name = 11882972
REMARK  8 active torsions:
REMARK  status: ('A' for Active; 'I' for Inactive)
REMARK    1  A    between atoms: O_3  and  C_16
REMARK    2  A    between atoms: O_4  and  C_21
REMARK    3  A    between atoms: C_11  and  C_19
REMARK    4  A    between atoms: C_13  and  C_21
REMARK    5  A    between atoms: C_13  and  C_22
REMARK    6  A    between atoms: C_14  and  C_24
REMARK    7  A    between atoms: C_24  and  C_25
REMARK    8  A    between atoms: C_27  and  C_28
REMARK                            x       y       z     vdW  Elec       q    Type
REMARK                         _______ _______ _______ _____ _____    ______ ____
ROOT
ATOM      1  S   UNL     1       0.772   2.153  25.009  0.00  0.00    -0.057 S 
ATOM      6  O   UNL     1       1.628  -0.213  21.078  0.00  0.00    -0.275 OA
ATOM      7  N   UNL     1      -0.304   1.154  22.879  0.00  0.00    -0.229 NA
ATOM      8  N   UNL     1       2.074   0.858  23.137  0.00  0.00    -0.264 N 
ATOM     11  C   UNL     1      -3.746   2.133  24.316  0.00  0.00    -0.019 C 
ATOM     12  C   UNL     1      -3.154   3.394  25.086  0.00  0.00    +0.011 C 
ATOM     13  C   UNL     1      -4.143   4.192  26.020  0.00  0.00    +0.021 C 
ATOM     14  C   UNL     1      -2.740   1.761  23.131  0.00  0.00    +0.054 C 
ATOM     15  C   UNL     1      -5.116   2.505  23.694  0.00  0.00    +0.010 C 
ATOM     16  C   UNL     1      -5.477   4.440  25.261  0.00  0.00    +0.123 C 
ATOM     17  C   UNL     1      -1.789   3.061  25.756  0.00  0.00    +0.049 C 
ATOM     18  C   UNL     1      -6.077   3.169  24.670  0.00  0.00    +0.032 C 
ATOM     19  C   UNL     1      -3.936   0.901  25.235  0.00  0.00    +0.012 C 
ATOM     20  C   UNL     1      -1.313   1.744  23.617  0.00  0.00    +0.058 A 
ATOM     22  C   UNL     1      -3.528   5.584  26.340  0.00  0.00    +0.016 C 
ATOM     23  C   UNL     1      -0.906   2.350  24.789  0.00  0.00    +0.015 A 
ATOM     26  C   UNL     1       0.836   1.302  23.519  0.00  0.00    +0.165 A 
ATOM     28  C   UNL     1       2.391   0.145  21.970  0.00  0.00    +0.222 C 
ATOM     39  H   UNL     1       2.825   1.090  23.783  0.00  0.00    +0.157 HD
ENDROOT
BRANCH  28  27
ATOM     27  C   UNL     1       3.858  -0.168  21.890  0.00  0.00    +0.075 C 
ATOM     29  C   UNL     1       4.695   0.975  22.466  0.00  0.00    +0.013 C 
ATOM     30  C   UNL     1       4.147  -1.511  22.563  0.00  0.00    +0.013 C 
ATOM     32  C   UNL     1       4.692   1.022  23.995  0.00  0.00    +0.001 C 
ATOM     33  C   UNL     1       4.131  -1.432  24.089  0.00  0.00    +0.001 C 
ATOM     34  C   UNL     1       5.047  -0.328  24.605  0.00  0.00    +0.000 C 
ENDBRANCH  28  27
BRANCH  16   3
ATOM      3  O   UNL     1      -6.441   5.046  26.121  0.00  0.00    -0.391 OA
ATOM     37  H   UNL     1      -6.218   4.797  27.035  0.00  0.00    +0.210 HD
ENDBRANCH  16   3
BRANCH  13  21
ATOM     21  C   UNL     1      -4.405   3.529  27.391  0.00  0.00    +0.165 C 
BRANCH  21   4
ATOM      4  O   UNL     1      -5.559   2.728  27.269  0.00  0.00    -0.394 OA
ATOM     38  H   UNL     1      -5.992   2.969  26.433  0.00  0.00    +0.209 HD
ENDBRANCH  21   4
ENDBRANCH  13  21
BRANCH  14  24
ATOM     24  C   UNL     1      -3.091   0.472  22.377  0.00  0.00    +0.106 C 
BRANCH  24  25
ATOM      2  S   UNL     1       0.456  -1.831  24.958  0.00  0.00    -0.061 S 
ATOM      5  O   UNL     1      -3.954  -1.474  23.500  0.00  0.00    -0.275 OA
ATOM      9  N   UNL     1      -1.684  -0.897  23.721  0.00  0.00    -0.265 N 
ATOM     10  N   UNL     1      -1.889  -2.912  25.070  0.00  0.00    -0.233 NA
ATOM     25  C   UNL     1      -2.990  -0.755  23.263  0.00  0.00    +0.219 C 
ATOM     31  C   UNL     1      -1.210  -1.909  24.558  0.00  0.00    +0.164 A 
ATOM     35  C   UNL     1       0.272  -3.252  25.900  0.00  0.00    +0.068 A 
ATOM     36  C   UNL     1      -1.038  -3.680  25.840  0.00  0.00    +0.120 A 
ATOM     40  H   UNL     1      -0.980  -0.215  23.446  0.00  0.00    +0.157 HD
ENDBRANCH  24  25
ENDBRANCH  14  24
TORSDOF 6
ENDMDL
