MODEL 1
REMARK VINA RESULT:      19.3      0.000      0.000
REMARK  Name = 11879864
REMARK  6 active torsions:
REMARK  status: ('A' for Active; 'I' for Inactive)
REMARK    1  A    between atoms: S_1  and  N_9
REMARK    2  A    between atoms: S_1  and  C_29
REMARK    3  A    between atoms: N_9  and  C_21
REMARK    4  A    between atoms: N_10  and  C_38
REMARK    5  A    between atoms: C_20  and  C_23
REMARK    6  A    between atoms: C_39  and  C_40
REMARK                            x       y       z     vdW  Elec       q    Type
REMARK                         _______ _______ _______ _____ _____    ______ ____
ROOT
ATOM      2  O   UNL     1      -4.085   2.926  22.401  0.00  0.00    -0.266 OA
ATOM      3  O   UNL     1      -0.806   1.238  26.571  0.00  0.00    -0.270 OA
ATOM      7  N   UNL     1      -0.401   3.391  25.746  0.00  0.00    -0.297 N 
ATOM      8  N   UNL     1      -3.100   4.042  24.211  0.00  0.00    -0.310 N 
ATOM     11  C   UNL     1      -0.812   5.182  24.068  0.00  0.00    +0.027 C 
ATOM     12  C   UNL     1      -2.053   5.191  26.195  0.00  0.00    +0.054 C 
ATOM     13  C   UNL     1      -1.350   6.084  25.174  0.00  0.00    +0.018 C 
ATOM     14  C   UNL     1       0.181   4.158  24.646  0.00  0.00    +0.113 C 
ATOM     15  C   UNL     1      -1.994   4.507  23.363  0.00  0.00    +0.130 C 
ATOM     16  C   UNL     1      -1.036   4.200  26.799  0.00  0.00    +0.117 C 
ATOM     17  C   UNL     1      -3.195   4.424  25.556  0.00  0.00    +0.027 A 
ATOM     18  C   UNL     1      -4.273   4.083  26.287  0.00  0.00    +0.024 A 
ATOM     19  C   UNL     1      -4.106   3.279  23.581  0.00  0.00    +0.274 A 
ATOM     20  C   UNL     1      -0.340   1.996  25.722  0.00  0.00    +0.247 C 
ATOM     21  C   UNL     1      -5.256   2.913  24.444  0.00  0.00    +0.112 A 
ATOM     22  C   UNL     1      -5.338   3.303  25.717  0.00  0.00    +0.031 A 
ENDROOT
BRANCH  20  23
ATOM     23  C   UNL     1       0.356   1.359  24.598  0.00  0.00    +0.037 A 
ATOM     24  C   UNL     1       1.719   1.576  24.414  0.00  0.00    +0.021 A 
ATOM     25  C   UNL     1      -0.350   0.542  23.724  0.00  0.00    +0.013 A 
ATOM     26  C   UNL     1       2.400   0.973  23.344  0.00  0.00    -0.017 A 
ATOM     27  C   UNL     1       0.310  -0.066  22.655  0.00  0.00    +0.009 A 
ATOM     28  C   UNL     1       1.685   0.140  22.451  0.00  0.00    -0.018 A 
ATOM     30  C   UNL     1       3.774   1.178  23.140  0.00  0.00    +0.008 A 
ATOM     31  C   UNL     1       2.365  -0.463  21.380  0.00  0.00    +0.008 A 
ATOM     34  C   UNL     1       4.433   0.571  22.071  0.00  0.00    +0.001 A 
ATOM     35  C   UNL     1       3.730  -0.248  21.193  0.00  0.00    +0.001 A 
ENDBRANCH  20  23
BRANCH  21   9
ATOM      9  N   UNL     1      -6.311   2.141  23.928  0.00  0.00    -0.211 N 
ATOM     41  H   UNL     1      -6.318   2.075  22.902  0.00  0.00    +0.174 HD
BRANCH   9   1
ATOM      1  S   UNL     1      -6.618   0.675  24.742  0.00  0.00    +0.072 S 
ATOM      4  O   UNL     1      -6.874   0.932  26.146  0.00  0.00    -0.150 OA
ATOM      5  O   UNL     1      -7.519  -0.130  23.939  0.00  0.00    -0.150 OA
BRANCH   1  29
ATOM     29  C   UNL     1      -5.077  -0.242  24.763  0.00  0.00    +0.109 A 
ATOM     32  C   UNL     1      -4.216  -0.045  25.812  0.00  0.00    +0.030 A 
ATOM     33  C   UNL     1      -4.820  -1.104  23.728  0.00  0.00    +0.030 A 
ATOM     36  C   UNL     1      -3.017  -0.758  25.827  0.00  0.00    +0.025 A 
ATOM     37  C   UNL     1      -3.623  -1.819  23.743  0.00  0.00    +0.025 A 
ATOM     38  C   UNL     1      -2.721  -1.645  24.792  0.00  0.00    +0.033 A 
BRANCH  38  10
ATOM      6  O   UNL     1      -0.306  -1.372  26.570  0.00  0.00    -0.276 OA
ATOM     10  N   UNL     1      -1.523  -2.360  24.809  0.00  0.00    -0.286 N 
ATOM     39  C   UNL     1      -0.424  -2.189  25.662  0.00  0.00    +0.214 C 
ATOM     40  C   UNL     1       0.681  -3.167  25.354  0.00  0.00    +0.109 C 
ATOM     42  H   UNL     1      -1.448  -3.097  24.111  0.00  0.00    +0.155 HD
ENDBRANCH  38  10
ENDBRANCH   1  29
ENDBRANCH   9   1
ENDBRANCH  21   9
TORSDOF 5
ENDMDL
MODEL 2
REMARK VINA RESULT:      20.0      2.697      4.495
REMARK  Name = 11879864
REMARK  6 active torsions:
REMARK  status: ('A' for Active; 'I' for Inactive)
REMARK    1  A    between atoms: S_1  and  N_9
REMARK    2  A    between atoms: S_1  and  C_29
REMARK    3  A    between atoms: N_9  and  C_21
REMARK    4  A    between atoms: N_10  and  C_38
REMARK    5  A    between atoms: C_20  and  C_23
REMARK    6  A    between atoms: C_39  and  C_40
REMARK                            x       y       z     vdW  Elec       q    Type
REMARK                         _______ _______ _______ _____ _____    ______ ____
ROOT
ATOM      2  O   UNL     1      -2.513   0.112  23.495  0.00  0.00    -0.266 OA
ATOM      3  O   UNL     1      -3.449   3.059  28.124  0.00  0.00    -0.270 OA
ATOM      7  N   UNL     1      -3.165   4.292  26.155  0.00  0.00    -0.297 N 
ATOM      8  N   UNL     1      -3.671   2.106  23.913  0.00  0.00    -0.310 N 
ATOM     11  C   UNL     1      -2.579   4.415  23.739  0.00  0.00    +0.027 C 
ATOM     12  C   UNL     1      -4.939   4.225  24.418  0.00  0.00    +0.054 C 
ATOM     13  C   UNL     1      -3.991   4.903  23.430  0.00  0.00    +0.018 C 
ATOM     14  C   UNL     1      -2.189   4.782  25.183  0.00  0.00    +0.113 C 
ATOM     15  C   UNL     1      -2.513   2.904  23.488  0.00  0.00    +0.130 C 
ATOM     16  C   UNL     1      -4.565   4.636  25.857  0.00  0.00    +0.117 C 
ATOM     17  C   UNL     1      -4.877   2.714  24.286  0.00  0.00    +0.027 A 
ATOM     18  C   UNL     1      -5.961   1.966  24.562  0.00  0.00    +0.024 A 
ATOM     19  C   UNL     1      -3.540   0.703  23.830  0.00  0.00    +0.274 A 
ATOM     20  C   UNL     1      -2.731   3.542  27.250  0.00  0.00    +0.247 C 
ATOM     21  C   UNL     1      -4.761  -0.067  24.171  0.00  0.00    +0.112 A 
ATOM     22  C   UNL     1      -5.906   0.531  24.505  0.00  0.00    +0.031 A 
ENDROOT
BRANCH  20  23
ATOM     23  C   UNL     1      -1.289   3.316  27.398  0.00  0.00    +0.037 A 
ATOM     24  C   UNL     1      -0.760   3.009  28.650  0.00  0.00    +0.021 A 
ATOM     25  C   UNL     1      -0.458   3.409  26.289  0.00  0.00    +0.013 A 
ATOM     26  C   UNL     1       0.617   2.788  28.808  0.00  0.00    -0.017 A 
ATOM     27  C   UNL     1       0.913   3.193  26.427  0.00  0.00    +0.009 A 
ATOM     28  C   UNL     1       1.467   2.882  27.680  0.00  0.00    -0.018 A 
ATOM     30  C   UNL     1       1.171   2.476  30.060  0.00  0.00    +0.008 A 
ATOM     31  C   UNL     1       2.845   2.662  27.838  0.00  0.00    +0.008 A 
ATOM     34  C   UNL     1       2.542   2.261  30.199  0.00  0.00    +0.001 A 
ATOM     35  C   UNL     1       3.377   2.353  29.090  0.00  0.00    +0.001 A 
ENDBRANCH  20  23
BRANCH  21   9
ATOM      9  N   UNL     1      -4.744  -1.473  24.138  0.00  0.00    -0.211 N 
ATOM     41  H   UNL     1      -4.765  -1.869  23.189  0.00  0.00    +0.174 HD
BRANCH   9   1
ATOM      1  S   UNL     1      -3.644  -2.220  25.204  0.00  0.00    +0.072 S 
ATOM      4  O   UNL     1      -3.845  -1.725  26.551  0.00  0.00    -0.150 OA
ATOM      5  O   UNL     1      -3.599  -3.641  24.914  0.00  0.00    -0.150 OA
BRANCH   1  29
ATOM     29  C   UNL     1      -2.011  -1.613  24.778  0.00  0.00    +0.109 A 
ATOM     32  C   UNL     1      -1.351  -2.201  23.729  0.00  0.00    +0.030 A 
ATOM     33  C   UNL     1      -1.486  -0.586  25.520  0.00  0.00    +0.030 A 
ATOM     36  C   UNL     1      -0.081  -1.729  23.399  0.00  0.00    +0.025 A 
ATOM     37  C   UNL     1      -0.217  -0.113  25.190  0.00  0.00    +0.025 A 
ATOM     38  C   UNL     1       0.486  -0.685  24.130  0.00  0.00    +0.033 A 
BRANCH  38  10
ATOM      6  O   UNL     1       1.751  -0.199  21.441  0.00  0.00    -0.276 OA
ATOM     10  N   UNL     1       1.756  -0.212  23.798  0.00  0.00    -0.286 N 
ATOM     39  C   UNL     1       2.297  -0.005  22.522  0.00  0.00    +0.214 C 
ATOM     40  C   UNL     1       3.710   0.519  22.592  0.00  0.00    +0.109 C 
ATOM     42  H   UNL     1       2.357   0.010  24.589  0.00  0.00    +0.155 HD
ENDBRANCH  38  10
ENDBRANCH   1  29
ENDBRANCH   9   1
ENDBRANCH  21   9
TORSDOF 5
ENDMDL
MODEL 3
REMARK VINA RESULT:      20.4      2.118      5.253
REMARK  Name = 11879864
REMARK  6 active torsions:
REMARK  status: ('A' for Active; 'I' for Inactive)
REMARK    1  A    between atoms: S_1  and  N_9
REMARK    2  A    between atoms: S_1  and  C_29
REMARK    3  A    between atoms: N_9  and  C_21
REMARK    4  A    between atoms: N_10  and  C_38
REMARK    5  A    between atoms: C_20  and  C_23
REMARK    6  A    between atoms: C_39  and  C_40
REMARK                            x       y       z     vdW  Elec       q    Type
REMARK                         _______ _______ _______ _____ _____    ______ ____
ROOT
ATOM      2  O   UNL     1      -2.407   1.726  25.889  0.00  0.00    -0.266 OA
ATOM      3  O   UNL     1      -0.679  -1.243  21.509  0.00  0.00    -0.270 OA
ATOM      7  N   UNL     1      -0.661  -2.344  23.575  0.00  0.00    -0.297 N 
ATOM      8  N   UNL     1      -2.601  -0.538  25.317  0.00  0.00    -0.310 N 
ATOM     11  C   UNL     1      -0.907  -2.312  26.051  0.00  0.00    +0.027 C 
ATOM     12  C   UNL     1      -2.820  -2.956  24.640  0.00  0.00    +0.054 C 
ATOM     13  C   UNL     1      -2.082  -3.277  25.939  0.00  0.00    +0.018 C 
ATOM     14  C   UNL     1       0.042  -2.479  24.850  0.00  0.00    +0.113 C 
ATOM     15  C   UNL     1      -1.451  -0.882  26.164  0.00  0.00    +0.130 C 
ATOM     16  C   UNL     1      -1.872  -3.171  23.443  0.00  0.00    +0.117 C 
ATOM     17  C   UNL     1      -3.327  -1.526  24.639  0.00  0.00    +0.027 A 
ATOM     18  C   UNL     1      -4.445  -1.206  23.961  0.00  0.00    +0.024 A 
ATOM     19  C   UNL     1      -2.994   0.817  25.302  0.00  0.00    +0.274 A 
ATOM     20  C   UNL     1      -0.173  -1.462  22.609  0.00  0.00    +0.247 C 
ATOM     21  C   UNL     1      -4.219   1.111  24.518  0.00  0.00    +0.112 A 
ATOM     22  C   UNL     1      -4.908   0.154  23.895  0.00  0.00    +0.031 A 
ENDROOT
BRANCH  20  23
ATOM     23  C   UNL     1       1.065  -0.734  22.907  0.00  0.00    +0.037 A 
ATOM     24  C   UNL     1       2.228  -1.439  23.209  0.00  0.00    +0.021 A 
ATOM     25  C   UNL     1       1.071   0.655  22.887  0.00  0.00    +0.013 A 
ATOM     26  C   UNL     1       3.422  -0.757  23.496  0.00  0.00    -0.017 A 
ATOM     27  C   UNL     1       2.248   1.349  23.170  0.00  0.00    +0.009 A 
ATOM     28  C   UNL     1       3.432   0.658  23.476  0.00  0.00    -0.018 A 
ATOM     30  C   UNL     1       4.606  -1.448  23.802  0.00  0.00    +0.008 A 
ATOM     31  C   UNL     1       4.625   1.340  23.764  0.00  0.00    +0.008 A 
ATOM     34  C   UNL     1       5.782  -0.754  24.086  0.00  0.00    +0.001 A 
ATOM     35  C   UNL     1       5.792   0.637  24.066  0.00  0.00    +0.001 A 
ENDBRANCH  20  23
BRANCH  21   9
ATOM      9  N   UNL     1      -4.697   2.430  24.419  0.00  0.00    -0.211 N 
ATOM     41  H   UNL     1      -5.221   2.747  25.245  0.00  0.00    +0.174 HD
BRANCH   9   1
ATOM      1  S   UNL     1      -3.596   3.567  23.788  0.00  0.00    +0.072 S 
ATOM      4  O   UNL     1      -3.166   3.159  22.465  0.00  0.00    -0.150 OA
ATOM      5  O   UNL     1      -4.098   4.903  24.047  0.00  0.00    -0.150 OA
BRANCH   1  29
ATOM     29  C   UNL     1      -2.099   3.442  24.768  0.00  0.00    +0.109 A 
ATOM     32  C   UNL     1      -0.974   2.926  24.176  0.00  0.00    +0.030 A 
ATOM     33  C   UNL     1      -2.138   3.866  26.071  0.00  0.00    +0.030 A 
ATOM     36  C   UNL     1       0.190   2.829  24.938  0.00  0.00    +0.025 A 
ATOM     37  C   UNL     1      -0.975   3.770  26.834  0.00  0.00    +0.025 A 
ATOM     38  C   UNL     1       0.189   3.251  26.267  0.00  0.00    +0.033 A 
BRANCH  38  10
ATOM      6  O   UNL     1       0.592   2.382  29.122  0.00  0.00    -0.276 OA
ATOM     10  N   UNL     1       1.354   3.155  27.029  0.00  0.00    -0.286 N 
ATOM     39  C   UNL     1       1.485   2.744  28.363  0.00  0.00    +0.214 C 
ATOM     40  C   UNL     1       2.921   2.780  28.820  0.00  0.00    +0.109 C 
ATOM     42  H   UNL     1       2.211   3.417  26.547  0.00  0.00    +0.155 HD
ENDBRANCH  38  10
ENDBRANCH   1  29
ENDBRANCH   9   1
ENDBRANCH  21   9
TORSDOF 5
ENDMDL
MODEL 4
REMARK VINA RESULT:      22.9      2.376      4.037
REMARK  Name = 11879864
REMARK  6 active torsions:
REMARK  status: ('A' for Active; 'I' for Inactive)
REMARK    1  A    between atoms: S_1  and  N_9
REMARK    2  A    between atoms: S_1  and  C_29
REMARK    3  A    between atoms: N_9  and  C_21
REMARK    4  A    between atoms: N_10  and  C_38
REMARK    5  A    between atoms: C_20  and  C_23
REMARK    6  A    between atoms: C_39  and  C_40
REMARK                            x       y       z     vdW  Elec       q    Type
REMARK                         _______ _______ _______ _____ _____    ______ ____
ROOT
ATOM      2  O   UNL     1      -3.876   0.699  22.441  0.00  0.00    -0.266 OA
ATOM      3  O   UNL     1      -1.057   2.823  26.745  0.00  0.00    -0.270 OA
ATOM      7  N   UNL     1      -2.635   4.235  25.747  0.00  0.00    -0.297 N 
ATOM      8  N   UNL     1      -4.459   2.185  24.156  0.00  0.00    -0.310 N 
ATOM     11  C   UNL     1      -4.258   4.728  23.926  0.00  0.00    +0.027 C 
ATOM     12  C   UNL     1      -5.053   3.748  26.041  0.00  0.00    +0.054 C 
ATOM     13  C   UNL     1      -5.385   4.767  24.953  0.00  0.00    +0.018 C 
ATOM     14  C   UNL     1      -2.915   5.082  24.589  0.00  0.00    +0.113 C 
ATOM     15  C   UNL     1      -4.232   3.339  23.275  0.00  0.00    +0.130 C 
ATOM     16  C   UNL     1      -3.729   4.141  26.728  0.00  0.00    +0.117 C 
ATOM     17  C   UNL     1      -4.933   2.350  25.464  0.00  0.00    +0.027 A 
ATOM     18  C   UNL     1      -5.244   1.279  26.217  0.00  0.00    +0.024 A 
ATOM     19  C   UNL     1      -4.274   0.907  23.587  0.00  0.00    +0.274 A 
ATOM     20  C   UNL     1      -1.407   3.576  25.838  0.00  0.00    +0.247 C 
ATOM     21  C   UNL     1      -4.610  -0.234  24.474  0.00  0.00    +0.112 A 
ATOM     22  C   UNL     1      -5.078  -0.056  25.710  0.00  0.00    +0.031 A 
ENDROOT
BRANCH  20  23
ATOM     23  C   UNL     1      -0.424   3.806  24.772  0.00  0.00    +0.037 A 
ATOM     24  C   UNL     1      -0.504   4.957  23.992  0.00  0.00    +0.021 A 
ATOM     25  C   UNL     1       0.580   2.873  24.547  0.00  0.00    +0.013 A 
ATOM     26  C   UNL     1       0.428   5.192  22.969  0.00  0.00    -0.017 A 
ATOM     27  C   UNL     1       1.516   3.090  23.535  0.00  0.00    +0.009 A 
ATOM     28  C   UNL     1       1.454   4.245  22.737  0.00  0.00    -0.018 A 
ATOM     30  C   UNL     1       0.367   6.346  22.172  0.00  0.00    +0.008 A 
ATOM     31  C   UNL     1       2.387   4.479  21.714  0.00  0.00    +0.008 A 
ATOM     34  C   UNL     1       1.301   6.563  21.159  0.00  0.00    +0.001 A 
ATOM     35  C   UNL     1       2.309   5.631  20.931  0.00  0.00    +0.001 A 
ENDBRANCH  20  23
BRANCH  21   9
ATOM      9  N   UNL     1      -4.450  -1.555  24.019  0.00  0.00    -0.211 N 
ATOM     41  H   UNL     1      -4.419  -1.644  22.995  0.00  0.00    +0.174 HD
BRANCH   9   1
ATOM      1  S   UNL     1      -3.292  -2.486  24.855  0.00  0.00    +0.072 S 
ATOM      4  O   UNL     1      -3.426  -2.278  26.284  0.00  0.00    -0.150 OA
ATOM      5  O   UNL     1      -3.255  -3.817  24.281  0.00  0.00    -0.150 OA
BRANCH   1  29
ATOM     29  C   UNL     1      -1.687  -1.779  24.482  0.00  0.00    +0.109 A 
ATOM     32  C   UNL     1      -0.571  -2.391  24.995  0.00  0.00    +0.030 A 
ATOM     33  C   UNL     1      -1.638  -0.654  23.700  0.00  0.00    +0.030 A 
ATOM     36  C   UNL     1       0.678  -1.841  24.704  0.00  0.00    +0.025 A 
ATOM     37  C   UNL     1      -0.390  -0.104  23.408  0.00  0.00    +0.025 A 
ATOM     38  C   UNL     1       0.767  -0.697  23.911  0.00  0.00    +0.033 A 
BRANCH  38  10
ATOM      6  O   UNL     1       2.138  -0.249  21.268  0.00  0.00    -0.276 OA
ATOM     10  N   UNL     1       2.016  -0.148  23.620  0.00  0.00    -0.286 N 
ATOM     39  C   UNL     1       2.610   0.036  22.363  0.00  0.00    +0.214 C 
ATOM     40  C   UNL     1       3.975   0.666  22.477  0.00  0.00    +0.109 C 
ATOM     42  H   UNL     1       2.556   0.155  24.427  0.00  0.00    +0.155 HD
ENDBRANCH  38  10
ENDBRANCH   1  29
ENDBRANCH   9   1
ENDBRANCH  21   9
TORSDOF 5
ENDMDL
