MODEL 1
REMARK VINA RESULT:      -3.4      0.000      0.000
REMARK  Name = 40587841
REMARK  7 active torsions:
REMARK  status: ('A' for Active; 'I' for Inactive)
REMARK    1  A    between atoms: N_5  and  C_17
REMARK    2  A    between atoms: N_6  and  C_18
REMARK    3  A    between atoms: C_7  and  C_13
REMARK    4  A    between atoms: C_8  and  C_12
REMARK    5  A    between atoms: C_12  and  C_14
REMARK    6  A    between atoms: C_13  and  C_16
REMARK    7  A    between atoms: C_17  and  C_19
REMARK                            x       y       z     vdW  Elec       q    Type
REMARK                         _______ _______ _______ _____ _____    ______ ____
ROOT
ATOM      1  O   UNL     1      -0.509  -1.098  25.659  0.00  0.00    -0.252 OA
ATOM      4  N   UNL     1      -2.512  -0.943  24.516  0.00  0.00    -0.285 N 
ATOM      6  N   UNL     1      -0.462  -0.715  23.371  0.00  0.00    -0.269 N 
ATOM      7  C   UNL     1      -5.126   0.285  24.700  0.00  0.00    +0.004 C 
ATOM      8  C   UNL     1      -4.266   0.417  23.414  0.00  0.00    +0.010 C 
ATOM      9  C   UNL     1      -4.257   0.033  25.945  0.00  0.00    +0.023 C 
ATOM     10  C   UNL     1      -3.323  -0.792  23.299  0.00  0.00    +0.113 C 
ATOM     11  C   UNL     1      -3.300  -1.138  25.734  0.00  0.00    +0.109 C 
ATOM     15  C   UNL     1      -1.102  -0.941  24.590  0.00  0.00    +0.306 C 
ATOM     29  H   UNL     1      -0.925  -1.012  22.520  0.00  0.00    +0.156 HD
ENDROOT
BRANCH   6  18
ATOM     18  C   UNL     1       0.793  -0.091  23.163  0.00  0.00    +0.035 A 
ATOM     20  C   UNL     1       1.107   1.085  23.843  0.00  0.00    +0.023 A 
ATOM     21  C   UNL     1       1.713  -0.652  22.278  0.00  0.00    +0.023 A 
ATOM     23  C   UNL     1       2.344   1.700  23.638  0.00  0.00    +0.002 A 
ATOM     24  C   UNL     1       2.948  -0.037  22.073  0.00  0.00    +0.002 A 
ATOM     25  C   UNL     1       3.264   1.138  22.753  0.00  0.00    +0.000 A 
ENDBRANCH   6  18
BRANCH   8  12
ATOM     12  C   UNL     1      -3.473   1.726  23.325  0.00  0.00    +0.002 C 
ATOM     14  C   UNL     1      -2.568   1.736  22.111  0.00  0.00    +0.004 C 
ENDBRANCH   8  12
BRANCH   7  13
ATOM     13  C   UNL     1      -6.058   1.475  24.923  0.00  0.00    +0.099 C 
BRANCH  13  16
ATOM      2  O   UNL     1      -5.931   2.563  27.081  0.00  0.00    -0.276 OA
ATOM      5  N   UNL     1      -4.469   3.204  25.392  0.00  0.00    -0.308 N 
ATOM     16  C   UNL     1      -5.504   2.456  25.934  0.00  0.00    +0.214 C 
ATOM     28  H   UNL     1      -4.178   3.027  24.434  0.00  0.00    +0.149 HD
BRANCH   5  17
ATOM     17  C   UNL     1      -3.757   4.219  26.133  0.00  0.00    +0.178 C 
BRANCH  17  19
ATOM      3  O   UNL     1      -1.533   3.270  25.881  0.00  0.00    -0.466 OA
ATOM     19  C   UNL     1      -2.332   4.351  25.678  0.00  0.00    +0.122 A 
ATOM     22  C   UNL     1      -1.627   5.367  25.075  0.00  0.00    +0.046 A 
ATOM     26  C   UNL     1      -0.311   4.879  24.896  0.00  0.00    +0.041 A 
ATOM     27  C   UNL     1      -0.305   3.601  25.402  0.00  0.00    +0.195 A 
ENDBRANCH  17  19
ENDBRANCH   5  17
ENDBRANCH  13  16
ENDBRANCH   7  13
TORSDOF 6
ENDMDL
MODEL 2
REMARK VINA RESULT:      -0.4      1.949      5.076
REMARK  Name = 40587841
REMARK  7 active torsions:
REMARK  status: ('A' for Active; 'I' for Inactive)
REMARK    1  A    between atoms: N_5  and  C_17
REMARK    2  A    between atoms: N_6  and  C_18
REMARK    3  A    between atoms: C_7  and  C_13
REMARK    4  A    between atoms: C_8  and  C_12
REMARK    5  A    between atoms: C_12  and  C_14
REMARK    6  A    between atoms: C_13  and  C_16
REMARK    7  A    between atoms: C_17  and  C_19
REMARK                            x       y       z     vdW  Elec       q    Type
REMARK                         _______ _______ _______ _____ _____    ______ ____
ROOT
ATOM      1  O   UNL     1      -5.046   0.549  26.606  0.00  0.00    -0.252 OA
ATOM      4  N   UNL     1      -4.869   2.296  25.102  0.00  0.00    -0.285 N 
ATOM      6  N   UNL     1      -4.904   0.063  24.341  0.00  0.00    -0.269 N 
ATOM      7  C   UNL     1      -3.449   4.783  24.689  0.00  0.00    +0.004 C 
ATOM      8  C   UNL     1      -3.510   3.701  23.579  0.00  0.00    +0.010 C 
ATOM      9  C   UNL     1      -3.631   4.174  26.091  0.00  0.00    +0.023 C 
ATOM     10  C   UNL     1      -4.788   2.862  23.748  0.00  0.00    +0.113 C 
ATOM     11  C   UNL     1      -4.882   3.302  26.166  0.00  0.00    +0.109 C 
ATOM     15  C   UNL     1      -4.958   0.927  25.435  0.00  0.00    +0.306 C 
ATOM     29  H   UNL     1      -5.254   0.392  23.449  0.00  0.00    +0.156 HD
ENDROOT
BRANCH   6  18
ATOM     18  C   UNL     1      -4.394  -1.258  24.315  0.00  0.00    +0.035 A 
ATOM     20  C   UNL     1      -3.553  -1.701  25.335  0.00  0.00    +0.023 A 
ATOM     21  C   UNL     1      -4.733  -2.116  23.268  0.00  0.00    +0.023 A 
ATOM     23  C   UNL     1      -3.051  -3.003  25.309  0.00  0.00    +0.002 A 
ATOM     24  C   UNL     1      -4.230  -3.417  23.243  0.00  0.00    +0.002 A 
ATOM     25  C   UNL     1      -3.390  -3.861  24.263  0.00  0.00    +0.000 A 
ENDBRANCH   6  18
BRANCH   8  12
ATOM     12  C   UNL     1      -2.276   2.793  23.523  0.00  0.00    +0.002 C 
ATOM     14  C   UNL     1      -2.381   1.798  22.386  0.00  0.00    +0.004 C 
ENDBRANCH   8  12
BRANCH   7  13
ATOM     13  C   UNL     1      -2.180   5.632  24.630  0.00  0.00    +0.099 C 
BRANCH  13  16
ATOM      2  O   UNL     1       0.095   4.960  24.154  0.00  0.00    -0.276 OA
ATOM      5  N   UNL     1      -1.092   3.866  25.826  0.00  0.00    -0.308 N 
ATOM     16  C   UNL     1      -0.927   4.805  24.819  0.00  0.00    +0.214 C 
ATOM     28  H   UNL     1      -1.974   3.829  26.330  0.00  0.00    +0.149 HD
BRANCH   5  17
ATOM     17  C   UNL     1      -0.056   2.938  26.218  0.00  0.00    +0.178 C 
BRANCH  17  19
ATOM      3  O   UNL     1       0.667   1.609  24.315  0.00  0.00    -0.466 OA
ATOM     19  C   UNL     1      -0.114   1.664  25.426  0.00  0.00    +0.122 A 
ATOM     22  C   UNL     1      -0.813   0.489  25.584  0.00  0.00    +0.046 A 
ATOM     26  C   UNL     1      -0.437  -0.340  24.500  0.00  0.00    +0.041 A 
ATOM     27  C   UNL     1       0.464   0.386  23.758  0.00  0.00    +0.195 A 
ENDBRANCH  17  19
ENDBRANCH   5  17
ENDBRANCH  13  16
ENDBRANCH   7  13
TORSDOF 6
ENDMDL
MODEL 3
REMARK VINA RESULT:      -0.2      2.704      5.115
REMARK  Name = 40587841
REMARK  7 active torsions:
REMARK  status: ('A' for Active; 'I' for Inactive)
REMARK    1  A    between atoms: N_5  and  C_17
REMARK    2  A    between atoms: N_6  and  C_18
REMARK    3  A    between atoms: C_7  and  C_13
REMARK    4  A    between atoms: C_8  and  C_12
REMARK    5  A    between atoms: C_12  and  C_14
REMARK    6  A    between atoms: C_13  and  C_16
REMARK    7  A    between atoms: C_17  and  C_19
REMARK                            x       y       z     vdW  Elec       q    Type
REMARK                         _______ _______ _______ _____ _____    ______ ____
ROOT
ATOM      1  O   UNL     1       0.750   1.441  25.043  0.00  0.00    -0.252 OA
ATOM      4  N   UNL     1      -0.853   3.012  24.489  0.00  0.00    -0.285 N 
ATOM      6  N   UNL     1       0.559   3.350  26.348  0.00  0.00    -0.269 N 
ATOM      7  C   UNL     1      -3.635   3.222  23.719  0.00  0.00    +0.004 C 
ATOM      8  C   UNL     1      -3.058   4.074  24.881  0.00  0.00    +0.010 C 
ATOM      9  C   UNL     1      -2.826   1.931  23.501  0.00  0.00    +0.023 C 
ATOM     10  C   UNL     1      -1.552   4.294  24.659  0.00  0.00    +0.113 C 
ATOM     11  C   UNL     1      -1.334   2.220  23.355  0.00  0.00    +0.109 C 
ATOM     15  C   UNL     1       0.209   2.524  25.280  0.00  0.00    +0.306 C 
ATOM     29  H   UNL     1       0.413   4.349  26.254  0.00  0.00    +0.156 HD
ENDROOT
BRANCH   6  18
ATOM     18  C   UNL     1       1.101   2.957  27.596  0.00  0.00    +0.035 A 
ATOM     20  C   UNL     1       2.468   3.092  27.836  0.00  0.00    +0.023 A 
ATOM     21  C   UNL     1       0.267   2.435  28.586  0.00  0.00    +0.023 A 
ATOM     23  C   UNL     1       3.002   2.704  29.066  0.00  0.00    +0.002 A 
ATOM     24  C   UNL     1       0.802   2.047  29.814  0.00  0.00    +0.002 A 
ATOM     25  C   UNL     1       2.169   2.182  30.055  0.00  0.00    +0.000 A 
ENDBRANCH   6  18
BRANCH   8  12
ATOM     12  C   UNL     1      -3.314   3.486  26.273  0.00  0.00    +0.002 C 
ATOM     14  C   UNL     1      -3.316   4.567  27.333  0.00  0.00    +0.004 C 
ENDBRANCH   8  12
BRANCH   7  13
ATOM     13  C   UNL     1      -5.121   2.908  23.885  0.00  0.00    +0.099 C 
BRANCH  13  16
ATOM      2  O   UNL     1      -6.273   1.725  25.654  0.00  0.00    -0.276 OA
ATOM      5  N   UNL     1      -4.421   0.747  24.646  0.00  0.00    -0.308 N 
ATOM     16  C   UNL     1      -5.360   1.751  24.832  0.00  0.00    +0.214 C 
ATOM     28  H   UNL     1      -3.713   0.859  23.925  0.00  0.00    +0.149 HD
BRANCH   5  17
ATOM     17  C   UNL     1      -4.409  -0.475  25.416  0.00  0.00    +0.178 C 
BRANCH  17  19
ATOM      3  O   UNL     1      -1.999  -0.783  25.515  0.00  0.00    -0.466 OA
ATOM     19  C   UNL     1      -3.193  -1.307  25.129  0.00  0.00    +0.122 A 
ATOM     22  C   UNL     1      -3.012  -2.535  24.536  0.00  0.00    +0.046 A 
ATOM     26  C   UNL     1      -1.618  -2.781  24.559  0.00  0.00    +0.041 A 
ATOM     27  C   UNL     1      -1.046  -1.686  25.164  0.00  0.00    +0.195 A 
ENDBRANCH  17  19
ENDBRANCH   5  17
ENDBRANCH  13  16
ENDBRANCH   7  13
TORSDOF 6
ENDMDL
