MODEL 1
REMARK VINA RESULT:      -3.1      0.000      0.000
REMARK  Name = 25388994
REMARK  7 active torsions:
REMARK  status: ('A' for Active; 'I' for Inactive)
REMARK    1  A    between atoms: N_3  and  C_23
REMARK    2  A    between atoms: N_4  and  C_15
REMARK    3  A    between atoms: N_6  and  C_26
REMARK    4  A    between atoms: C_8  and  C_14
REMARK    5  A    between atoms: C_9  and  C_15
REMARK    6  A    between atoms: C_17  and  C_18
REMARK    7  A    between atoms: C_26  and  C_27
REMARK                            x       y       z     vdW  Elec       q    Type
REMARK                         _______ _______ _______ _____ _____    ______ ____
ROOT
ATOM      2  N   UNL     1      -3.493  -8.634  10.450  0.00  0.00    -0.297 NA
ATOM      7  C   UNL     1      -5.652  -9.708   9.466  0.00  0.00    +0.002 C 
ATOM      8  C   UNL     1      -5.996  -8.833  10.702  0.00  0.00    +0.055 C 
ATOM      9  C   UNL     1      -3.292 -10.094  10.256  0.00  0.00    +0.074 C 
ATOM     10  C   UNL     1      -4.620 -10.781   9.871  0.00  0.00    +0.024 C 
ATOM     11  C   UNL     1      -4.650  -8.395  11.349  0.00  0.00    +0.094 C 
ATOM     12  C   UNL     1      -4.964  -8.781   8.440  0.00  0.00    +0.019 C 
ATOM     13  C   UNL     1      -3.804  -8.039   9.128  0.00  0.00    +0.085 C 
ENDROOT
BRANCH   8  14
ATOM      3  N   UNL     1      -8.101 -10.076  11.383  0.00  0.00    -0.271 N 
ATOM      5  N   UNL     1      -8.831 -10.483  12.435  0.00  0.00    -0.176 NA
ATOM     14  C   UNL     1      -6.974  -9.389  11.727  0.00  0.00    +0.044 A 
ATOM     16  C   UNL     1      -6.968  -9.343  13.099  0.00  0.00    +0.048 A 
ATOM     18  C   UNL     1      -8.134 -10.031  13.481  0.00  0.00    +0.066 A 
ATOM     23  C   UNL     1      -8.554 -10.387  10.047  0.00  0.00    +0.172 C 
BRANCH  18  17
ATOM     17  C   UNL     1      -8.636 -10.291  14.889  0.00  0.00    +0.040 C 
ATOM     19  C   UNL     1     -10.173 -10.334  14.950  0.00  0.00    +0.010 C 
ATOM     20  C   UNL     1      -8.074  -9.272  15.896  0.00  0.00    +0.010 C 
ATOM     21  C   UNL     1     -10.668 -10.605  16.370  0.00  0.00    +0.001 C 
ATOM     22  C   UNL     1      -8.578  -9.548  17.312  0.00  0.00    +0.001 C 
ATOM     24  C   UNL     1     -10.102  -9.599  17.367  0.00  0.00    +0.000 C 
ENDBRANCH  18  17
ENDBRANCH   8  14
BRANCH   9  15
ATOM     15  C   UNL     1      -2.638 -10.759  11.469  0.00  0.00    +0.124 C 
BRANCH  15   4
ATOM      1  O   UNL     1      -1.739 -10.768  14.211  0.00  0.00    -0.253 OA
ATOM      4  N   UNL     1      -3.442 -10.590  12.640  0.00  0.00    -0.298 N 
ATOM      6  N   UNL     1      -3.929 -10.419  14.893  0.00  0.00    -0.300 N 
ATOM     25  C   UNL     1      -2.929 -10.607  13.942  0.00  0.00    +0.300 C 
ATOM     28  H   UNL     1      -4.447 -10.497  12.522  0.00  0.00    +0.150 HD
ATOM     29  H   UNL     1      -4.884 -10.282  14.576  0.00  0.00    +0.150 HD
BRANCH   6  26
ATOM     26  C   UNL     1      -3.665 -10.394  16.312  0.00  0.00    +0.102 C 
ATOM     27  C   UNL     1      -4.948 -10.391  17.116  0.00  0.00    +0.024 C 
ENDBRANCH   6  26
ENDBRANCH  15   4
ENDBRANCH   9  15
TORSDOF 5
ENDMDL
MODEL 2
REMARK VINA RESULT:      -0.0     15.229     18.101
REMARK  Name = 25388994
REMARK  7 active torsions:
REMARK  status: ('A' for Active; 'I' for Inactive)
REMARK    1  A    between atoms: N_3  and  C_23
REMARK    2  A    between atoms: N_4  and  C_15
REMARK    3  A    between atoms: N_6  and  C_26
REMARK    4  A    between atoms: C_8  and  C_14
REMARK    5  A    between atoms: C_9  and  C_15
REMARK    6  A    between atoms: C_17  and  C_18
REMARK    7  A    between atoms: C_26  and  C_27
REMARK                            x       y       z     vdW  Elec       q    Type
REMARK                         _______ _______ _______ _____ _____    ______ ____
ROOT
ATOM      2  N   UNL     1      -3.726   2.439  25.629  0.00  0.00    -0.297 NA
ATOM      7  C   UNL     1      -3.539   1.186  23.353  0.00  0.00    +0.002 C 
ATOM      8  C   UNL     1      -2.745   0.432  24.456  0.00  0.00    +0.055 C 
ATOM      9  C   UNL     1      -3.332   3.389  24.556  0.00  0.00    +0.074 C 
ATOM     10  C   UNL     1      -3.015   2.634  23.247  0.00  0.00    +0.024 C 
ATOM     11  C   UNL     1      -2.736   1.338  25.721  0.00  0.00    +0.094 C 
ATOM     12  C   UNL     1      -5.004   1.268  23.835  0.00  0.00    +0.019 C 
ATOM     13  C   UNL     1      -5.036   1.853  25.258  0.00  0.00    +0.085 C 
ENDROOT
BRANCH   8  14
ATOM      3  N   UNL     1      -1.012  -1.407  24.230  0.00  0.00    -0.271 N 
ATOM      5  N   UNL     1       0.259  -1.666  23.876  0.00  0.00    -0.176 NA
ATOM     14  C   UNL     1      -1.359  -0.094  24.111  0.00  0.00    +0.044 A 
ATOM     16  C   UNL     1      -0.239   0.551  23.648  0.00  0.00    +0.048 A 
ATOM     18  C   UNL     1       0.725  -0.466  23.521  0.00  0.00    +0.066 A 
ATOM     23  C   UNL     1      -1.852  -2.491  24.684  0.00  0.00    +0.172 C 
BRANCH  18  17
ATOM     17  C   UNL     1       2.160  -0.326  23.045  0.00  0.00    +0.040 C 
ATOM     19  C   UNL     1       3.123  -1.203  23.864  0.00  0.00    +0.010 C 
ATOM     20  C   UNL     1       2.622   1.141  23.039  0.00  0.00    +0.010 C 
ATOM     21  C   UNL     1       4.562  -1.063  23.371  0.00  0.00    +0.001 C 
ATOM     22  C   UNL     1       4.064   1.271  22.549  0.00  0.00    +0.001 C 
ATOM     24  C   UNL     1       5.014   0.394  23.358  0.00  0.00    +0.000 C 
ENDBRANCH  18  17
ENDBRANCH   8  14
BRANCH   9  15
ATOM     15  C   UNL     1      -2.179   4.302  24.980  0.00  0.00    +0.124 C 
BRANCH  15   4
ATOM      1  O   UNL     1       0.396   3.044  25.316  0.00  0.00    -0.253 OA
ATOM      4  N   UNL     1      -1.594   3.851  26.205  0.00  0.00    -0.298 N 
ATOM      6  N   UNL     1      -0.010   2.905  27.597  0.00  0.00    -0.300 N 
ATOM     25  C   UNL     1      -0.334   3.247  26.287  0.00  0.00    +0.300 C 
ATOM     28  H   UNL     1      -2.142   3.933  27.056  0.00  0.00    +0.150 HD
ATOM     29  H   UNL     1      -0.672   3.124  28.336  0.00  0.00    +0.150 HD
BRANCH   6  26
ATOM     26  C   UNL     1       1.236   2.269  27.955  0.00  0.00    +0.102 C 
ATOM     27  C   UNL     1       1.487   2.340  29.446  0.00  0.00    +0.024 C 
ENDBRANCH   6  26
ENDBRANCH  15   4
ENDBRANCH   9  15
TORSDOF 5
ENDMDL
MODEL 3
REMARK VINA RESULT:       0.3     14.998     17.291
REMARK  Name = 25388994
REMARK  7 active torsions:
REMARK  status: ('A' for Active; 'I' for Inactive)
REMARK    1  A    between atoms: N_3  and  C_23
REMARK    2  A    between atoms: N_4  and  C_15
REMARK    3  A    between atoms: N_6  and  C_26
REMARK    4  A    between atoms: C_8  and  C_14
REMARK    5  A    between atoms: C_9  and  C_15
REMARK    6  A    between atoms: C_17  and  C_18
REMARK    7  A    between atoms: C_26  and  C_27
REMARK                            x       y       z     vdW  Elec       q    Type
REMARK                         _______ _______ _______ _____ _____    ______ ____
ROOT
ATOM      2  N   UNL     1      -1.388   5.111  25.744  0.00  0.00    -0.297 NA
ATOM      7  C   UNL     1      -2.748   4.357  23.655  0.00  0.00    +0.002 C 
ATOM      8  C   UNL     1      -3.478   3.935  24.960  0.00  0.00    +0.055 C 
ATOM      9  C   UNL     1      -0.501   4.393  24.791  0.00  0.00    +0.074 C 
ATOM     10  C   UNL     1      -1.325   3.760  23.649  0.00  0.00    +0.024 C 
ATOM     11  C   UNL     1      -2.517   4.236  26.146  0.00  0.00    +0.094 C 
ATOM     12  C   UNL     1      -2.596   5.893  23.706  0.00  0.00    +0.019 C 
ATOM     13  C   UNL     1      -1.946   6.292  25.042  0.00  0.00    +0.085 C 
ENDROOT
BRANCH   8  14
ATOM      3  N   UNL     1      -5.356   2.285  25.395  0.00  0.00    -0.271 N 
ATOM      5  N   UNL     1      -5.678   0.980  25.397  0.00  0.00    -0.176 NA
ATOM     14  C   UNL     1      -4.065   2.532  25.034  0.00  0.00    +0.044 A 
ATOM     16  C   UNL     1      -3.503   1.304  24.784  0.00  0.00    +0.048 A 
ATOM     18  C   UNL     1      -4.541   0.386  25.024  0.00  0.00    +0.066 A 
ATOM     23  C   UNL     1      -6.359   3.259  25.758  0.00  0.00    +0.172 C 
BRANCH  18  17
ATOM     17  C   UNL     1      -4.486  -1.125  24.901  0.00  0.00    +0.040 C 
ATOM     19  C   UNL     1      -3.375  -1.731  25.775  0.00  0.00    +0.010 C 
ATOM     20  C   UNL     1      -4.342  -1.577  23.437  0.00  0.00    +0.010 C 
ATOM     21  C   UNL     1      -3.333  -3.253  25.652  0.00  0.00    +0.001 C 
ATOM     22  C   UNL     1      -4.296  -3.100  23.324  0.00  0.00    +0.001 C 
ATOM     24  C   UNL     1      -3.199  -3.698  24.199  0.00  0.00    +0.000 C 
ENDBRANCH  18  17
ENDBRANCH   8  14
BRANCH   9  15
ATOM     15  C   UNL     1       0.391   3.364  25.488  0.00  0.00    +0.124 C 
BRANCH  15   4
ATOM      1  O   UNL     1      -0.925   0.834  25.929  0.00  0.00    -0.253 OA
ATOM      4  N   UNL     1       0.516   2.178  24.698  0.00  0.00    -0.298 N 
ATOM      6  N   UNL     1       0.145  -0.010  24.050  0.00  0.00    -0.300 N 
ATOM     25  C   UNL     1      -0.158   0.984  24.978  0.00  0.00    +0.300 C 
ATOM     28  H   UNL     1       1.165   2.189  23.916  0.00  0.00    +0.150 HD
ATOM     29  H   UNL     1       0.781   0.210  23.290  0.00  0.00    +0.150 HD
BRANCH   6  26
ATOM     26  C   UNL     1      -0.421  -1.337  24.113  0.00  0.00    +0.102 C 
ATOM     27  C   UNL     1       0.147  -2.129  25.273  0.00  0.00    +0.024 C 
ENDBRANCH   6  26
ENDBRANCH  15   4
ENDBRANCH   9  15
TORSDOF 5
ENDMDL
MODEL 4
REMARK VINA RESULT:       0.4     15.104     17.947
REMARK  Name = 25388994
REMARK  7 active torsions:
REMARK  status: ('A' for Active; 'I' for Inactive)
REMARK    1  A    between atoms: N_3  and  C_23
REMARK    2  A    between atoms: N_4  and  C_15
REMARK    3  A    between atoms: N_6  and  C_26
REMARK    4  A    between atoms: C_8  and  C_14
REMARK    5  A    between atoms: C_9  and  C_15
REMARK    6  A    between atoms: C_17  and  C_18
REMARK    7  A    between atoms: C_26  and  C_27
REMARK                            x       y       z     vdW  Elec       q    Type
REMARK                         _______ _______ _______ _____ _____    ______ ____
ROOT
ATOM      2  N   UNL     1      -5.729   2.866  24.426  0.00  0.00    -0.297 NA
ATOM      7  C   UNL     1      -3.952   3.767  26.104  0.00  0.00    +0.002 C 
ATOM      8  C   UNL     1      -3.389   3.781  24.656  0.00  0.00    +0.055 C 
ATOM      9  C   UNL     1      -5.586   1.927  25.570  0.00  0.00    +0.074 C 
ATOM     10  C   UNL     1      -4.397   2.334  26.465  0.00  0.00    +0.024 C 
ATOM     11  C   UNL     1      -4.420   3.048  23.751  0.00  0.00    +0.094 C 
ATOM     12  C   UNL     1      -5.220   4.648  26.097  0.00  0.00    +0.019 C 
ATOM     13  C   UNL     1      -6.155   4.179  24.968  0.00  0.00    +0.085 C 
ENDROOT
BRANCH   8  14
ATOM      3  N   UNL     1      -0.868   4.072  24.602  0.00  0.00    -0.271 N 
ATOM      5  N   UNL     1       0.294   3.443  24.355  0.00  0.00    -0.176 NA
ATOM     14  C   UNL     1      -1.967   3.282  24.433  0.00  0.00    +0.044 A 
ATOM     16  C   UNL     1      -1.492   2.053  24.050  0.00  0.00    +0.048 A 
ATOM     18  C   UNL     1      -0.094   2.210  24.018  0.00  0.00    +0.066 A 
ATOM     23  C   UNL     1      -0.848   5.460  25.002  0.00  0.00    +0.172 C 
BRANCH  18  17
ATOM     17  C   UNL     1       0.946   1.165  23.659  0.00  0.00    +0.040 C 
ATOM     19  C   UNL     1       2.291   1.805  23.272  0.00  0.00    +0.010 C 
ATOM     20  C   UNL     1       0.450   0.218  22.552  0.00  0.00    +0.010 C 
ATOM     21  C   UNL     1       3.334   0.745  22.922  0.00  0.00    +0.001 C 
ATOM     22  C   UNL     1       1.501  -0.835  22.205  0.00  0.00    +0.001 C 
ATOM     24  C   UNL     1       2.835  -0.197  21.831  0.00  0.00    +0.000 C 
ENDBRANCH  18  17
ENDBRANCH   8  14
BRANCH   9  15
ATOM     15  C   UNL     1      -5.484   0.469  25.116  0.00  0.00    +0.124 C 
BRANCH  15   4
ATOM      1  O   UNL     1      -3.947  -1.448  23.603  0.00  0.00    -0.253 OA
ATOM      4  N   UNL     1      -4.214  -0.089  25.469  0.00  0.00    -0.298 N 
ATOM      6  N   UNL     1      -2.319  -1.394  25.256  0.00  0.00    -0.300 N 
ATOM     25  C   UNL     1      -3.528  -1.018  24.678  0.00  0.00    +0.300 C 
ATOM     28  H   UNL     1      -3.809   0.170  26.363  0.00  0.00    +0.150 HD
ATOM     29  H   UNL     1      -2.050  -0.976  26.142  0.00  0.00    +0.150 HD
BRANCH   6  26
ATOM     26  C   UNL     1      -1.419  -2.341  24.641  0.00  0.00    +0.102 C 
ATOM     27  C   UNL     1      -0.037  -2.274  25.257  0.00  0.00    +0.024 C 
ENDBRANCH   6  26
ENDBRANCH  15   4
ENDBRANCH   9  15
TORSDOF 5
ENDMDL
MODEL 5
REMARK VINA RESULT:       0.5     14.610     17.646
REMARK  Name = 25388994
REMARK  7 active torsions:
REMARK  status: ('A' for Active; 'I' for Inactive)
REMARK    1  A    between atoms: N_3  and  C_23
REMARK    2  A    between atoms: N_4  and  C_15
REMARK    3  A    between atoms: N_6  and  C_26
REMARK    4  A    between atoms: C_8  and  C_14
REMARK    5  A    between atoms: C_9  and  C_15
REMARK    6  A    between atoms: C_17  and  C_18
REMARK    7  A    between atoms: C_26  and  C_27
REMARK                            x       y       z     vdW  Elec       q    Type
REMARK                         _______ _______ _______ _____ _____    ______ ____
ROOT
ATOM      2  N   UNL     1      -3.880   3.690  24.303  0.00  0.00    -0.297 NA
ATOM      7  C   UNL     1      -1.699   3.373  25.691  0.00  0.00    +0.002 C 
ATOM      8  C   UNL     1      -1.395   3.275  24.171  0.00  0.00    +0.055 C 
ATOM      9  C   UNL     1      -4.098   2.677  25.369  0.00  0.00    +0.074 C 
ATOM     10  C   UNL     1      -2.768   2.325  26.067  0.00  0.00    +0.024 C 
ATOM     11  C   UNL     1      -2.760   3.271  23.425  0.00  0.00    +0.094 C 
ATOM     12  C   UNL     1      -2.325   4.764  25.931  0.00  0.00    +0.019 C 
ATOM     13  C   UNL     1      -3.501   4.965  24.959  0.00  0.00    +0.085 C 
ENDROOT
BRANCH   8  14
ATOM      3  N   UNL     1      -0.920   1.062  23.023  0.00  0.00    -0.271 N 
ATOM      5  N   UNL     1       0.053   0.197  22.689  0.00  0.00    -0.176 NA
ATOM     14  C   UNL     1      -0.473   2.162  23.693  0.00  0.00    +0.044 A 
ATOM     16  C   UNL     1       0.887   2.007  23.804  0.00  0.00    +0.048 A 
ATOM     18  C   UNL     1       1.155   0.781  23.169  0.00  0.00    +0.066 A 
ATOM     23  C   UNL     1      -2.286   0.760  22.662  0.00  0.00    +0.172 C 
BRANCH  18  17
ATOM     17  C   UNL     1       2.502   0.106  22.992  0.00  0.00    +0.040 C 
ATOM     19  C   UNL     1       2.698  -1.053  23.985  0.00  0.00    +0.010 C 
ATOM     20  C   UNL     1       3.664   1.111  23.084  0.00  0.00    +0.010 C 
ATOM     21  C   UNL     1       4.053  -1.732  23.792  0.00  0.00    +0.001 C 
ATOM     22  C   UNL     1       5.015   0.422  22.894  0.00  0.00    +0.001 C 
ATOM     24  C   UNL     1       5.202  -0.731  23.875  0.00  0.00    +0.000 C 
ENDBRANCH  18  17
ENDBRANCH   8  14
BRANCH   9  15
ATOM     15  C   UNL     1      -4.817   1.430  24.850  0.00  0.00    +0.124 C 
BRANCH  15   4
ATOM      1  O   UNL     1      -4.340  -1.075  23.500  0.00  0.00    -0.253 OA
ATOM      4  N   UNL     1      -4.251   0.243  25.412  0.00  0.00    -0.298 N 
ATOM      6  N   UNL     1      -3.485  -1.937  25.478  0.00  0.00    -0.300 N 
ATOM     25  C   UNL     1      -4.051  -0.938  24.689  0.00  0.00    +0.300 C 
ATOM     28  H   UNL     1      -4.023   0.243  26.402  0.00  0.00    +0.150 HD
ATOM     29  H   UNL     1      -3.268  -1.728  26.447  0.00  0.00    +0.150 HD
BRANCH   6  26
ATOM     26  C   UNL     1      -3.176  -3.253  24.971  0.00  0.00    +0.102 C 
ATOM     27  C   UNL     1      -1.932  -3.238  24.108  0.00  0.00    +0.024 C 
ENDBRANCH   6  26
ENDBRANCH  15   4
ENDBRANCH   9  15
TORSDOF 5
ENDMDL
