MODEL 1
REMARK VINA RESULT:       4.4      0.000      0.000
REMARK  Name = 11884204
REMARK  1 active torsions:
REMARK  status: ('A' for Active; 'I' for Inactive)
REMARK    1  A    between atoms: C_8  and  C_15
REMARK                            x       y       z     vdW  Elec       q    Type
REMARK                         _______ _______ _______ _____ _____    ______ ____
ROOT
ATOM      1 BR   UNL     1      -6.981   1.618  26.289  0.00  0.00    -0.050 Br
ATOM      2  O   UNL     1       2.518   0.416  20.717  0.00  0.00    -0.275 OA
ATOM      3  O   UNL     1       0.683   2.727  23.380  0.00  0.00    -0.273 OA
ATOM      4  O   UNL     1      -2.187  -0.689  26.215  0.00  0.00    -0.270 OA
ATOM      5  N   UNL     1       1.389  -0.099  22.688  0.00  0.00    -0.298 N 
ATOM      6  N   UNL     1      -0.937   0.051  24.415  0.00  0.00    -0.283 N 
ATOM      7  N   UNL     1      -1.337   2.982  24.400  0.00  0.00    -0.283 N 
ATOM     11  C   UNL     1      -0.855   0.873  23.216  0.00  0.00    +0.180 C 
ATOM     12  C   UNL     1       0.079   0.280  22.155  0.00  0.00    +0.139 C 
ATOM     15  C   UNL     1       2.522   0.009  21.876  0.00  0.00    +0.219 C 
ATOM     17  C   UNL     1       1.428  -0.589  24.068  0.00  0.00    +0.127 C 
ATOM     18  C   UNL     1       0.056  -1.015  24.569  0.00  0.00    +0.128 C 
ATOM     19  C   UNL     1      -0.412   2.249  23.687  0.00  0.00    +0.239 C 
ATOM     20  C   UNL     1      -2.003   0.123  25.307  0.00  0.00    +0.249 C 
ATOM     21  C   UNL     1      -2.964   1.252  25.190  0.00  0.00    +0.059 A 
ATOM     22  C   UNL     1      -2.601   2.570  24.868  0.00  0.00    +0.046 A 
ATOM     23  C   UNL     1      -4.280   0.982  25.608  0.00  0.00    +0.030 A 
ATOM     24  C   UNL     1      -3.546   3.597  25.042  0.00  0.00    +0.025 A 
ATOM     25  C   UNL     1      -5.218   2.006  25.728  0.00  0.00    +0.019 A 
ATOM     26  C   UNL     1      -4.847   3.316  25.458  0.00  0.00    +0.017 A 
ATOM     27  H   UNL     1      -1.117   3.968  24.515  0.00  0.00    +0.155 HD
ENDROOT
BRANCH  15   8
ATOM      8  C   UNL     1       3.831  -0.420  22.469  0.00  0.00    +0.075 C 
ATOM      9  C   UNL     1       4.585   0.797  23.008  0.00  0.00    +0.013 C 
ATOM     10  C   UNL     1       3.590  -1.460  23.566  0.00  0.00    +0.013 C 
ATOM     13  C   UNL     1       5.883   0.395  23.704  0.00  0.00    +0.001 C 
ATOM     14  C   UNL     1       4.890  -1.857  24.263  0.00  0.00    +0.001 C 
ATOM     16  C   UNL     1       5.636  -0.640  24.799  0.00  0.00    +0.000 C 
ENDBRANCH  15   8
TORSDOF 1
ENDMDL
MODEL 2
REMARK VINA RESULT:       7.4      3.171      7.754
REMARK  Name = 11884204
REMARK  1 active torsions:
REMARK  status: ('A' for Active; 'I' for Inactive)
REMARK    1  A    between atoms: C_8  and  C_15
REMARK                            x       y       z     vdW  Elec       q    Type
REMARK                         _______ _______ _______ _____ _____    ______ ____
ROOT
ATOM      1 BR   UNL     1       5.594  -2.066  23.502  0.00  0.00    -0.050 Br
ATOM      2  O   UNL     1      -2.778   4.426  26.739  0.00  0.00    -0.275 OA
ATOM      3  O   UNL     1      -0.438   3.592  23.636  0.00  0.00    -0.273 OA
ATOM      4  O   UNL     1       0.318  -1.625  24.022  0.00  0.00    -0.270 OA
ATOM      5  N   UNL     1      -2.219   2.404  25.730  0.00  0.00    -0.298 N 
ATOM      6  N   UNL     1      -0.272   0.493  24.742  0.00  0.00    -0.283 N 
ATOM      7  N   UNL     1       1.360   2.313  23.076  0.00  0.00    -0.283 N 
ATOM     11  C   UNL     1       0.148   1.820  25.167  0.00  0.00    +0.180 C 
ATOM     12  C   UNL     1      -0.823   2.456  26.169  0.00  0.00    +0.139 C 
ATOM     15  C   UNL     1      -3.091   3.439  26.080  0.00  0.00    +0.219 C 
ATOM     17  C   UNL     1      -2.623   1.237  24.941  0.00  0.00    +0.127 C 
ATOM     18  C   UNL     1      -1.640   0.083  25.068  0.00  0.00    +0.128 C 
ATOM     19  C   UNL     1       0.297   2.635  23.893  0.00  0.00    +0.239 C 
ATOM     20  C   UNL     1       0.610  -0.443  24.208  0.00  0.00    +0.249 C 
ATOM     21  C   UNL     1       1.972  -0.001  23.808  0.00  0.00    +0.059 A 
ATOM     22  C   UNL     1       2.258   1.233  23.200  0.00  0.00    +0.046 A 
ATOM     23  C   UNL     1       2.983  -0.976  23.896  0.00  0.00    +0.030 A 
ATOM     24  C   UNL     1       3.528   1.433  22.632  0.00  0.00    +0.025 A 
ATOM     25  C   UNL     1       4.253  -0.741  23.370  0.00  0.00    +0.019 A 
ATOM     26  C   UNL     1       4.521   0.458  22.725  0.00  0.00    +0.017 A 
ATOM     27  H   UNL     1       1.579   2.995  22.355  0.00  0.00    +0.155 HD
ENDROOT
BRANCH  15   8
ATOM      8  C   UNL     1      -4.515   3.315  25.624  0.00  0.00    +0.075 C 
ATOM      9  C   UNL     1      -4.561   2.745  24.205  0.00  0.00    +0.013 C 
ATOM     10  C   UNL     1      -5.301   2.442  26.604  0.00  0.00    +0.013 C 
ATOM     13  C   UNL     1      -5.996   2.515  23.736  0.00  0.00    +0.001 C 
ATOM     14  C   UNL     1      -6.734   2.211  26.129  0.00  0.00    +0.001 C 
ATOM     16  C   UNL     1      -6.775   1.641  24.715  0.00  0.00    +0.000 C 
ENDBRANCH  15   8
TORSDOF 1
ENDMDL
