MODEL 1
REMARK VINA RESULT:      -5.7      0.000      0.000
REMARK  Name = 45783345
REMARK  9 active torsions:
REMARK  status: ('A' for Active; 'I' for Inactive)
REMARK    1  A    between atoms: O_4  and  C_26
REMARK    2  A    between atoms: O_4  and  C_28
REMARK    3  A    between atoms: O_5  and  C_29
REMARK    4  A    between atoms: O_5  and  C_30
REMARK    5  A    between atoms: N_6  and  C_14
REMARK    6  A    between atoms: C_10  and  C_15
REMARK    7  A    between atoms: C_14  and  C_16
REMARK    8  A    between atoms: C_19  and  C_22
REMARK    9  A    between atoms: C_28  and  C_29
REMARK                            x       y       z     vdW  Elec       q    Type
REMARK                         _______ _______ _______ _____ _____    ______ ____
ROOT
ATOM      3  O   UNL     1      -1.928 -10.450  14.791  0.00  0.00    -0.336 OA
ATOM      7  N   UNL     1      -4.115 -10.625  14.343  0.00  0.00    -0.190 NA
ATOM      8  N   UNL     1      -2.583 -10.422  16.029  0.00  0.00    -0.056 NA
ATOM     15  C   UNL     1      -2.904 -10.571  13.852  0.00  0.00    +0.245 A 
ATOM     19  C   UNL     1      -3.869 -10.530  15.682  0.00  0.00    +0.202 A 
ENDROOT
BRANCH  19  22
ATOM      9  N   UNL     1      -6.997 -10.575  18.528  0.00  0.00    -0.221 NA
ATOM     22  C   UNL     1      -4.929 -10.546  16.646  0.00  0.00    +0.029 A 
ATOM     24  C   UNL     1      -6.243 -10.332  16.244  0.00  0.00    +0.079 A 
ATOM     25  C   UNL     1      -4.648 -10.774  17.990  0.00  0.00    +0.031 A 
ATOM     26  C   UNL     1      -7.232 -10.357  17.215  0.00  0.00    +0.215 A 
ATOM     27  C   UNL     1      -5.708 -10.779  18.882  0.00  0.00    +0.115 A 
BRANCH  26   4
ATOM      4  O   UNL     1      -8.533 -10.149  16.843  0.00  0.00    -0.474 OA
BRANCH   4  28
ATOM     28  C   UNL     1      -9.439  -9.767  17.871  0.00  0.00    +0.258 C 
BRANCH  28  29
ATOM     29  C   UNL     1      -9.823  -8.312  17.678  0.00  0.00    +0.200 C 
BRANCH  29   5
ATOM      5  O   UNL     1      -9.538  -7.931  16.338  0.00  0.00    -0.380 OA
ATOM     30  C   UNL     1     -10.386  -6.876  15.906  0.00  0.00    +0.194 C 
ENDBRANCH  29   5
ENDBRANCH  28  29
ENDBRANCH   4  28
ENDBRANCH  26   4
ENDBRANCH  19  22
BRANCH  15  10
ATOM      6  N   UNL     1      -3.379  -9.934  11.494  0.00  0.00    -0.287 NA
ATOM     10  C   UNL     1      -2.449 -10.624  12.408  0.00  0.00    +0.146 C 
ATOM     11  C   UNL     1      -1.093  -9.928  12.187  0.00  0.00    +0.030 C 
ATOM     12  C   UNL     1      -1.347  -8.905  11.088  0.00  0.00    +0.017 C 
ATOM     13  C   UNL     1      -2.572  -9.442  10.377  0.00  0.00    +0.085 C 
BRANCH   6  14
ATOM     14  C   UNL     1      -4.477 -10.781  11.046  0.00  0.00    +0.120 C 
BRANCH  14  16
ATOM      1  F   UNL     1      -9.059  -9.140  11.408  0.00  0.00    -0.202 F 
ATOM      2  F   UNL     1      -8.795  -7.749   9.069  0.00  0.00    -0.202 F 
ATOM     16  C   UNL     1      -5.630  -9.971  10.517  0.00  0.00    -0.030 A 
ATOM     17  C   UNL     1      -6.834  -9.930  11.221  0.00  0.00    +0.046 A 
ATOM     18  C   UNL     1      -5.496  -9.261   9.324  0.00  0.00    +0.008 A 
ATOM     20  C   UNL     1      -7.903  -9.179  10.732  0.00  0.00    +0.159 A 
ATOM     21  C   UNL     1      -6.565  -8.510   8.835  0.00  0.00    +0.041 A 
ATOM     23  C   UNL     1      -7.768  -8.469   9.540  0.00  0.00    +0.158 A 
ENDBRANCH  14  16
ENDBRANCH   6  14
ENDBRANCH  15  10
TORSDOF 8
ENDMDL
MODEL 2
REMARK VINA RESULT:      -4.9     14.255     17.186
REMARK  Name = 45783345
REMARK  9 active torsions:
REMARK  status: ('A' for Active; 'I' for Inactive)
REMARK    1  A    between atoms: O_4  and  C_26
REMARK    2  A    between atoms: O_4  and  C_28
REMARK    3  A    between atoms: O_5  and  C_29
REMARK    4  A    between atoms: O_5  and  C_30
REMARK    5  A    between atoms: N_6  and  C_14
REMARK    6  A    between atoms: C_10  and  C_15
REMARK    7  A    between atoms: C_14  and  C_16
REMARK    8  A    between atoms: C_19  and  C_22
REMARK    9  A    between atoms: C_28  and  C_29
REMARK                            x       y       z     vdW  Elec       q    Type
REMARK                         _______ _______ _______ _____ _____    ______ ____
ROOT
ATOM      3  O   UNL     1      -2.042   2.858  25.320  0.00  0.00    -0.336 OA
ATOM      7  N   UNL     1      -2.082   1.608  23.463  0.00  0.00    -0.190 NA
ATOM      8  N   UNL     1      -0.723   2.440  25.103  0.00  0.00    -0.056 NA
ATOM     15  C   UNL     1      -2.777   2.324  24.309  0.00  0.00    +0.245 A 
ATOM     19  C   UNL     1      -0.828   1.708  23.990  0.00  0.00    +0.202 A 
ENDROOT
BRANCH  19  22
ATOM      9  N   UNL     1       2.496  -0.191  22.191  0.00  0.00    -0.221 NA
ATOM     22  C   UNL     1       0.299   1.064  23.381  0.00  0.00    +0.029 A 
ATOM     24  C   UNL     1       1.575   1.593  23.538  0.00  0.00    +0.079 A 
ATOM     25  C   UNL     1       0.120  -0.093  22.629  0.00  0.00    +0.031 A 
ATOM     26  C   UNL     1       2.631   0.934  22.929  0.00  0.00    +0.215 A 
ATOM     27  C   UNL     1       1.240  -0.677  22.061  0.00  0.00    +0.115 A 
BRANCH  26   4
ATOM      4  O   UNL     1       3.898   1.435  23.069  0.00  0.00    -0.474 OA
BRANCH   4  28
ATOM     28  C   UNL     1       4.971   0.512  22.925  0.00  0.00    +0.258 C 
BRANCH  28  29
ATOM     29  C   UNL     1       5.714   0.408  24.243  0.00  0.00    +0.200 C 
BRANCH  29   5
ATOM      5  O   UNL     1       5.665  -0.939  24.698  0.00  0.00    -0.380 OA
ATOM     30  C   UNL     1       4.781  -1.723  23.909  0.00  0.00    +0.194 C 
ENDBRANCH  29   5
ENDBRANCH  28  29
ENDBRANCH   4  28
ENDBRANCH  26   4
ENDBRANCH  19  22
BRANCH  15  10
ATOM      6  N   UNL     1      -4.997   1.856  25.330  0.00  0.00    -0.287 NA
ATOM     10  C   UNL     1      -4.260   2.634  24.316  0.00  0.00    +0.146 C 
ATOM     11  C   UNL     1      -4.557   4.106  24.659  0.00  0.00    +0.030 C 
ATOM     12  C   UNL     1      -5.517   4.052  25.839  0.00  0.00    +0.017 C 
ATOM     13  C   UNL     1      -6.141   2.676  25.729  0.00  0.00    +0.085 C 
BRANCH   6  14
ATOM     14  C   UNL     1      -5.405   0.538  24.858  0.00  0.00    +0.120 C 
BRANCH  14  16
ATOM      1  F   UNL     1      -1.161  -1.034  26.686  0.00  0.00    -0.202 F 
ATOM      2  F   UNL     1      -1.128  -3.130  24.931  0.00  0.00    -0.202 F 
ATOM     16  C   UNL     1      -4.263  -0.442  24.877  0.00  0.00    -0.030 A 
ATOM     17  C   UNL     1      -3.221  -0.281  25.791  0.00  0.00    +0.046 A 
ATOM     18  C   UNL     1      -4.245  -1.511  23.982  0.00  0.00    +0.008 A 
ATOM     20  C   UNL     1      -2.162  -1.189  25.809  0.00  0.00    +0.159 A 
ATOM     21  C   UNL     1      -3.186  -2.420  24.000  0.00  0.00    +0.041 A 
ATOM     23  C   UNL     1      -2.146  -2.259  24.914  0.00  0.00    +0.158 A 
ENDBRANCH  14  16
ENDBRANCH   6  14
ENDBRANCH  15  10
TORSDOF 8
ENDMDL
