MODEL 1
REMARK VINA RESULT:       9.7      0.000      0.000
REMARK  Name = 11882086
REMARK  10 active torsions:
REMARK  status: ('A' for Active; 'I' for Inactive)
REMARK    1  A    between atoms: O_5  and  C_36
REMARK    2  A    between atoms: O_5  and  C_39
REMARK    3  A    between atoms: N_7  and  C_13
REMARK    4  A    between atoms: N_8  and  C_19
REMARK    5  A    between atoms: N_9  and  C_26
REMARK    6  A    between atoms: C_14  and  C_17
REMARK    7  A    between atoms: C_18  and  C_21
REMARK    8  A    between atoms: C_19  and  C_22
REMARK    9  A    between atoms: C_19  and  C_23
REMARK   10  A    between atoms: C_22  and  C_24
REMARK                            x       y       z     vdW  Elec       q    Type
REMARK                         _______ _______ _______ _____ _____    ______ ____
ROOT
ATOM      2  O   UNL     1      -1.662  -0.400  26.486  0.00  0.00    -0.268 OA
ATOM      6  N   UNL     1      -1.749   0.682  24.425  0.00  0.00    -0.283 N 
ATOM     13  C   UNL     1      -0.379   2.305  23.372  0.00  0.00    +0.105 C 
ATOM     14  C   UNL     1      -0.760   1.710  24.728  0.00  0.00    +0.182 C 
ATOM     15  C   UNL     1      -1.633   2.088  22.523  0.00  0.00    +0.043 C 
ATOM     16  C   UNL     1      -2.195   0.769  23.035  0.00  0.00    +0.111 C 
ATOM     18  C   UNL     1      -2.044  -0.340  25.320  0.00  0.00    +0.267 C 
ENDROOT
BRANCH  13   7
ATOM      3  O   UNL     1       1.822   1.154  24.799  0.00  0.00    -0.252 OA
ATOM      7  N   UNL     1       0.756   1.619  22.801  0.00  0.00    -0.294 N 
ATOM      9  N   UNL     1       2.750   0.481  22.750  0.00  0.00    -0.269 N 
ATOM     20  C   UNL     1       1.793   1.083  23.573  0.00  0.00    +0.304 C 
ATOM     40  H   UNL     1       0.771   1.460  21.798  0.00  0.00    +0.151 HD
ATOM     42  H   UNL     1       2.574   0.512  21.749  0.00  0.00    +0.156 HD
BRANCH   9  26
ATOM     26  C   UNL     1       3.942  -0.171  23.139  0.00  0.00    +0.038 A 
ATOM     30  C   UNL     1       5.161   0.506  23.068  0.00  0.00    +0.069 A 
ATOM     32  C   UNL     1       3.902  -1.489  23.591  0.00  0.00    +0.023 A 
ATOM     36  C   UNL     1       6.338  -0.137  23.451  0.00  0.00    +0.122 A 
ATOM     37  C   UNL     1       5.080  -2.132  23.974  0.00  0.00    +0.005 A 
ATOM     38  C   UNL     1       6.297  -1.456  23.903  0.00  0.00    +0.046 A 
BRANCH  36   5
ATOM      5  O   UNL     1       7.528   0.521  23.381  0.00  0.00    -0.495 OA
ATOM     39  C   UNL     1       8.673  -0.246  23.014  0.00  0.00    +0.277 C 
ENDBRANCH  36   5
ENDBRANCH   9  26
ENDBRANCH  13   7
BRANCH  18  21
ATOM     10  N   UNL     1      -2.480  -2.690  25.144  0.00  0.00    -0.247 NA
ATOM     12  N   UNL     1      -4.782  -2.211  23.616  0.00  0.00    -0.259 NA
ATOM     21  C   UNL     1      -2.877  -1.443  24.826  0.00  0.00    +0.144 A 
ATOM     25  C   UNL     1      -4.009  -1.208  24.076  0.00  0.00    +0.143 A 
ATOM     29  C   UNL     1      -3.253  -3.694  24.685  0.00  0.00    +0.131 A 
ATOM     31  C   UNL     1      -4.384  -3.459  23.934  0.00  0.00    +0.130 A 
ENDBRANCH  18  21
BRANCH  14  17
ATOM      1  O   UNL     1      -1.534   2.569  26.817  0.00  0.00    -0.274 OA
ATOM      8  N   UNL     1      -1.970   3.772  24.872  0.00  0.00    -0.302 N 
ATOM     17  C   UNL     1      -1.449   2.716  25.601  0.00  0.00    +0.236 C 
ATOM     41  H   UNL     1      -1.769   3.828  23.877  0.00  0.00    +0.150 HD
BRANCH   8  19
ATOM     19  C   UNL     1      -2.701   4.864  25.474  0.00  0.00    +0.163 C 
BRANCH  19  23
ATOM      4  O   UNL     1      -2.462   7.266  25.201  0.00  0.00    -0.274 OA
ATOM     11  N   UNL     1      -0.658   5.923  24.734  0.00  0.00    -0.328 N 
ATOM     23  C   UNL     1      -1.964   6.147  25.116  0.00  0.00    +0.231 C 
ATOM     43  H   UNL     1      -0.254   4.994  24.690  0.00  0.00    +0.145 HD
ATOM     44  H   UNL     1      -0.050   6.695  24.482  0.00  0.00    +0.145 HD
ENDBRANCH  19  23
BRANCH  19  22
ATOM     22  C   UNL     1      -4.152   4.928  24.987  0.00  0.00    +0.067 C 
BRANCH  22  24
ATOM     24  C   UNL     1      -4.887   3.621  25.167  0.00  0.00    -0.045 A 
ATOM     27  C   UNL     1      -4.884   2.672  24.144  0.00  0.00    +0.004 A 
ATOM     28  C   UNL     1      -5.569   3.362  26.356  0.00  0.00    +0.004 A 
ATOM     33  C   UNL     1      -5.562   1.465  24.310  0.00  0.00    +0.000 A 
ATOM     34  C   UNL     1      -6.246   2.154  26.522  0.00  0.00    +0.000 A 
ATOM     35  C   UNL     1      -6.244   1.206  25.500  0.00  0.00    +0.000 A 
ENDBRANCH  22  24
ENDBRANCH  19  22
ENDBRANCH   8  19
ENDBRANCH  14  17
TORSDOF 9
ENDMDL
MODEL 2
REMARK VINA RESULT:      10.4      2.318      4.288
REMARK  Name = 11882086
REMARK  10 active torsions:
REMARK  status: ('A' for Active; 'I' for Inactive)
REMARK    1  A    between atoms: O_5  and  C_36
REMARK    2  A    between atoms: O_5  and  C_39
REMARK    3  A    between atoms: N_7  and  C_13
REMARK    4  A    between atoms: N_8  and  C_19
REMARK    5  A    between atoms: N_9  and  C_26
REMARK    6  A    between atoms: C_14  and  C_17
REMARK    7  A    between atoms: C_18  and  C_21
REMARK    8  A    between atoms: C_19  and  C_22
REMARK    9  A    between atoms: C_19  and  C_23
REMARK   10  A    between atoms: C_22  and  C_24
REMARK                            x       y       z     vdW  Elec       q    Type
REMARK                         _______ _______ _______ _____ _____    ______ ____
ROOT
ATOM      2  O   UNL     1      -0.638   4.153  25.822  0.00  0.00    -0.268 OA
ATOM      6  N   UNL     1      -0.623   1.854  25.451  0.00  0.00    -0.283 N 
ATOM     13  C   UNL     1      -0.725   0.513  23.498  0.00  0.00    +0.105 C 
ATOM     14  C   UNL     1      -1.040   1.902  24.054  0.00  0.00    +0.182 C 
ATOM     15  C   UNL     1      -0.820  -0.393  24.727  0.00  0.00    +0.043 C 
ATOM     16  C   UNL     1      -0.318   0.485  25.866  0.00  0.00    +0.111 C 
ATOM     18  C   UNL     1      -0.377   3.009  26.183  0.00  0.00    +0.267 C 
ENDROOT
BRANCH  13   7
ATOM      3  O   UNL     1       1.598  -0.710  24.647  0.00  0.00    -0.252 OA
ATOM      7  N   UNL     1       0.601   0.468  22.925  0.00  0.00    -0.294 N 
ATOM      9  N   UNL     1       2.835  -0.037  22.769  0.00  0.00    -0.269 N 
ATOM     20  C   UNL     1       1.685  -0.153  23.555  0.00  0.00    +0.304 C 
ATOM     40  H   UNL     1       0.739   0.847  21.993  0.00  0.00    +0.151 HD
ATOM     42  H   UNL     1       2.735   0.460  21.886  0.00  0.00    +0.156 HD
BRANCH   9  26
ATOM     26  C   UNL     1       4.131  -0.528  23.048  0.00  0.00    +0.038 A 
ATOM     30  C   UNL     1       5.248   0.264  22.781  0.00  0.00    +0.069 A 
ATOM     32  C   UNL     1       4.293  -1.803  23.588  0.00  0.00    +0.023 A 
ATOM     36  C   UNL     1       6.527  -0.220  23.056  0.00  0.00    +0.122 A 
ATOM     37  C   UNL     1       5.572  -2.287  23.863  0.00  0.00    +0.005 A 
ATOM     38  C   UNL     1       6.689  -1.495  23.597  0.00  0.00    +0.046 A 
BRANCH  36   5
ATOM      5  O   UNL     1       7.618   0.552  22.795  0.00  0.00    -0.495 OA
ATOM     39  C   UNL     1       8.893   0.009  23.136  0.00  0.00    +0.277 C 
ENDBRANCH  36   5
ENDBRANCH   9  26
ENDBRANCH  13   7
BRANCH  18  21
ATOM     10  N   UNL     1       1.602   2.786  27.518  0.00  0.00    -0.247 NA
ATOM     12  N   UNL     1       0.075   2.607  29.862  0.00  0.00    -0.259 NA
ATOM     21  C   UNL     1       0.256   2.845  27.498  0.00  0.00    +0.144 A 
ATOM     25  C   UNL     1      -0.494   2.758  28.650  0.00  0.00    +0.143 A 
ATOM     29  C   UNL     1       2.172   2.636  28.730  0.00  0.00    +0.131 A 
ATOM     31  C   UNL     1       1.421   2.548  29.882  0.00  0.00    +0.130 A 
ENDBRANCH  18  21
BRANCH  14  17
ATOM      1  O   UNL     1      -3.136   2.409  23.029  0.00  0.00    -0.274 OA
ATOM      8  N   UNL     1      -3.046   2.144  25.340  0.00  0.00    -0.302 N 
ATOM     17  C   UNL     1      -2.515   2.173  24.062  0.00  0.00    +0.236 C 
ATOM     41  H   UNL     1      -2.450   1.859  26.113  0.00  0.00    +0.150 HD
BRANCH   8  19
ATOM     19  C   UNL     1      -4.441   2.395  25.623  0.00  0.00    +0.163 C 
BRANCH  19  23
ATOM      4  O   UNL     1      -4.020   4.411  24.333  0.00  0.00    -0.274 OA
ATOM     11  N   UNL     1      -6.015   4.221  25.455  0.00  0.00    -0.328 N 
ATOM     23  C   UNL     1      -4.767   3.777  25.074  0.00  0.00    +0.231 C 
ATOM     43  H   UNL     1      -6.631   3.675  26.050  0.00  0.00    +0.145 HD
ATOM     44  H   UNL     1      -6.364   5.123  25.146  0.00  0.00    +0.145 HD
ENDBRANCH  19  23
BRANCH  19  22
ATOM     22  C   UNL     1      -5.358   1.341  24.996  0.00  0.00    +0.067 C 
BRANCH  22  24
ATOM     24  C   UNL     1      -4.718  -0.025  24.928  0.00  0.00    -0.045 A 
ATOM     27  C   UNL     1      -4.086  -0.556  26.053  0.00  0.00    +0.004 A 
ATOM     28  C   UNL     1      -4.759  -0.756  23.741  0.00  0.00    +0.004 A 
ATOM     33  C   UNL     1      -3.495  -1.818  25.991  0.00  0.00    +0.000 A 
ATOM     34  C   UNL     1      -4.168  -2.019  23.680  0.00  0.00    +0.000 A 
ATOM     35  C   UNL     1      -3.536  -2.549  24.804  0.00  0.00    +0.000 A 
ENDBRANCH  22  24
ENDBRANCH  19  22
ENDBRANCH   8  19
ENDBRANCH  14  17
TORSDOF 9
ENDMDL
MODEL 3
REMARK VINA RESULT:      10.7      3.185      6.349
REMARK  Name = 11882086
REMARK  10 active torsions:
REMARK  status: ('A' for Active; 'I' for Inactive)
REMARK    1  A    between atoms: O_5  and  C_36
REMARK    2  A    between atoms: O_5  and  C_39
REMARK    3  A    between atoms: N_7  and  C_13
REMARK    4  A    between atoms: N_8  and  C_19
REMARK    5  A    between atoms: N_9  and  C_26
REMARK    6  A    between atoms: C_14  and  C_17
REMARK    7  A    between atoms: C_18  and  C_21
REMARK    8  A    between atoms: C_19  and  C_22
REMARK    9  A    between atoms: C_19  and  C_23
REMARK   10  A    between atoms: C_22  and  C_24
REMARK                            x       y       z     vdW  Elec       q    Type
REMARK                         _______ _______ _______ _____ _____    ______ ____
ROOT
ATOM      2  O   UNL     1       0.118  -0.827  23.998  0.00  0.00    -0.268 OA
ATOM      6  N   UNL     1      -0.221   1.454  23.670  0.00  0.00    -0.283 N 
ATOM     13  C   UNL     1      -1.592   3.071  24.730  0.00  0.00    +0.105 C 
ATOM     14  C   UNL     1      -1.418   1.570  24.495  0.00  0.00    +0.182 C 
ATOM     15  C   UNL     1      -0.943   3.703  23.498  0.00  0.00    +0.043 C 
ATOM     16  C   UNL     1       0.206   2.760  23.169  0.00  0.00    +0.111 C 
ATOM     18  C   UNL     1       0.489   0.263  23.571  0.00  0.00    +0.267 C 
ENDROOT
BRANCH  13   7
ATOM      3  O   UNL     1      -0.034   1.428  26.485  0.00  0.00    -0.252 OA
ATOM      7  N   UNL     1      -0.923   3.491  25.940  0.00  0.00    -0.294 N 
ATOM      9  N   UNL     1       0.351   3.306  27.841  0.00  0.00    -0.269 N 
ATOM     20  C   UNL     1      -0.178   2.621  26.742  0.00  0.00    +0.304 C 
ATOM     40  H   UNL     1      -0.938   4.477  26.184  0.00  0.00    +0.151 HD
ATOM     42  H   UNL     1       0.134   4.297  27.907  0.00  0.00    +0.156 HD
BRANCH   9  26
ATOM     26  C   UNL     1       1.156   2.788  28.881  0.00  0.00    +0.038 A 
ATOM     30  C   UNL     1       0.603   2.555  30.140  0.00  0.00    +0.069 A 
ATOM     32  C   UNL     1       2.504   2.513  28.649  0.00  0.00    +0.023 A 
ATOM     36  C   UNL     1       1.398   2.045  31.167  0.00  0.00    +0.122 A 
ATOM     37  C   UNL     1       3.298   2.003  29.677  0.00  0.00    +0.005 A 
ATOM     38  C   UNL     1       2.745   1.770  30.935  0.00  0.00    +0.046 A 
BRANCH  36   5
ATOM      5  O   UNL     1       0.859   1.818  32.396  0.00  0.00    -0.495 OA
ATOM     39  C   UNL     1      -0.093   2.768  32.873  0.00  0.00    +0.277 C 
ENDBRANCH  36   5
ENDBRANCH   9  26
ENDBRANCH  13   7
BRANCH  18  21
ATOM     10  N   UNL     1       2.800   0.901  23.590  0.00  0.00    -0.247 NA
ATOM     12  N   UNL     1       3.177  -0.162  21.023  0.00  0.00    -0.259 NA
ATOM     21  C   UNL     1       1.797   0.317  22.905  0.00  0.00    +0.144 A 
ATOM     25  C   UNL     1       1.983  -0.206  21.645  0.00  0.00    +0.143 A 
ATOM     29  C   UNL     1       3.995   0.944  22.969  0.00  0.00    +0.131 A 
ATOM     31  C   UNL     1       4.181   0.422  21.708  0.00  0.00    +0.130 A 
ENDBRANCH  18  21
BRANCH  14  17
ATOM      1  O   UNL     1      -2.817   1.426  22.566  0.00  0.00    -0.274 OA
ATOM      8  N   UNL     1      -3.219  -0.003  24.360  0.00  0.00    -0.302 N 
ATOM     17  C   UNL     1      -2.546   1.002  23.686  0.00  0.00    +0.236 C 
ATOM     41  H   UNL     1      -2.855  -0.324  25.253  0.00  0.00    +0.150 HD
BRANCH   8  19
ATOM     19  C   UNL     1      -4.360  -0.698  23.808  0.00  0.00    +0.163 C 
BRANCH  19  23
ATOM      4  O   UNL     1      -4.598  -3.087  23.434  0.00  0.00    -0.274 OA
ATOM     11  N   UNL     1      -3.489  -2.375  25.315  0.00  0.00    -0.328 N 
ATOM     23  C   UNL     1      -4.192  -2.172  24.146  0.00  0.00    +0.231 C 
ATOM     43  H   UNL     1      -3.140  -1.609  25.881  0.00  0.00    +0.145 HD
ATOM     44  H   UNL     1      -3.294  -3.313  25.649  0.00  0.00    +0.145 HD
ENDBRANCH  19  23
BRANCH  19  22
ATOM     22  C   UNL     1      -5.686  -0.169  24.365  0.00  0.00    +0.067 C 
BRANCH  22  24
ATOM     24  C   UNL     1      -5.581   1.246  24.879  0.00  0.00    -0.045 A 
ATOM     27  C   UNL     1      -5.088   2.255  24.051  0.00  0.00    +0.004 A 
ATOM     28  C   UNL     1      -5.977   1.545  26.183  0.00  0.00    +0.004 A 
ATOM     33  C   UNL     1      -4.991   3.563  24.526  0.00  0.00    +0.000 A 
ATOM     34  C   UNL     1      -5.881   2.854  26.657  0.00  0.00    +0.000 A 
ATOM     35  C   UNL     1      -5.388   3.862  25.830  0.00  0.00    +0.000 A 
ENDBRANCH  22  24
ENDBRANCH  19  22
ENDBRANCH   8  19
ENDBRANCH  14  17
TORSDOF 9
ENDMDL
MODEL 4
REMARK VINA RESULT:      12.6      1.180      1.634
REMARK  Name = 11882086
REMARK  10 active torsions:
REMARK  status: ('A' for Active; 'I' for Inactive)
REMARK    1  A    between atoms: O_5  and  C_36
REMARK    2  A    between atoms: O_5  and  C_39
REMARK    3  A    between atoms: N_7  and  C_13
REMARK    4  A    between atoms: N_8  and  C_19
REMARK    5  A    between atoms: N_9  and  C_26
REMARK    6  A    between atoms: C_14  and  C_17
REMARK    7  A    between atoms: C_18  and  C_21
REMARK    8  A    between atoms: C_19  and  C_22
REMARK    9  A    between atoms: C_19  and  C_23
REMARK   10  A    between atoms: C_22  and  C_24
REMARK                            x       y       z     vdW  Elec       q    Type
REMARK                         _______ _______ _______ _____ _____    ______ ____
ROOT
ATOM      2  O   UNL     1      -1.681  -0.474  26.714  0.00  0.00    -0.268 OA
ATOM      6  N   UNL     1      -0.874   0.273  24.661  0.00  0.00    -0.283 N 
ATOM     13  C   UNL     1       1.109   1.387  23.990  0.00  0.00    +0.105 C 
ATOM     14  C   UNL     1       0.204   1.101  25.190  0.00  0.00    +0.182 C 
ATOM     15  C   UNL     1       0.153   1.314  22.798  0.00  0.00    +0.043 C 
ATOM     16  C   UNL     1      -0.848   0.239  23.199  0.00  0.00    +0.111 C 
ATOM     18  C   UNL     1      -1.669  -0.513  25.486  0.00  0.00    +0.267 C 
ENDROOT
BRANCH  13   7
ATOM      3  O   UNL     1       3.847   1.854  23.287  0.00  0.00    -0.252 OA
ATOM      7  N   UNL     1       2.153   0.395  23.876  0.00  0.00    -0.294 N 
ATOM      9  N   UNL     1       4.254  -0.448  23.495  0.00  0.00    -0.269 N 
ATOM     20  C   UNL     1       3.471   0.709  23.527  0.00  0.00    +0.304 C 
ATOM     40  H   UNL     1       1.937  -0.566  24.125  0.00  0.00    +0.151 HD
ATOM     42  H   UNL     1       3.784  -1.323  23.719  0.00  0.00    +0.156 HD
BRANCH   9  26
ATOM     26  C   UNL     1       5.629  -0.558  23.188  0.00  0.00    +0.038 A 
ATOM     30  C   UNL     1       6.537   0.359  23.719  0.00  0.00    +0.069 A 
ATOM     32  C   UNL     1       6.079  -1.581  22.353  0.00  0.00    +0.023 A 
ATOM     36  C   UNL     1       7.894   0.252  23.416  0.00  0.00    +0.122 A 
ATOM     37  C   UNL     1       7.437  -1.687  22.050  0.00  0.00    +0.005 A 
ATOM     38  C   UNL     1       8.344  -0.771  22.581  0.00  0.00    +0.046 A 
BRANCH  36   5
ATOM      5  O   UNL     1       8.781   1.147  23.933  0.00  0.00    -0.495 OA
ATOM     39  C   UNL     1      10.068   0.650  24.294  0.00  0.00    +0.277 C 
ENDBRANCH  36   5
ENDBRANCH   9  26
ENDBRANCH  13   7
BRANCH  18  21
ATOM     10  N   UNL     1      -2.073  -2.711  24.620  0.00  0.00    -0.247 NA
ATOM     12  N   UNL     1      -4.677  -2.001  23.862  0.00  0.00    -0.259 NA
ATOM     21  C   UNL     1      -2.565  -1.475  24.834  0.00  0.00    +0.144 A 
ATOM     25  C   UNL     1      -3.846  -1.127  24.462  0.00  0.00    +0.143 A 
ATOM     29  C   UNL     1      -2.905  -3.586  24.021  0.00  0.00    +0.131 A 
ATOM     31  C   UNL     1      -4.185  -3.237  23.649  0.00  0.00    +0.130 A 
ENDBRANCH  18  21
BRANCH  14  17
ATOM      1  O   UNL     1      -0.150   2.822  26.805  0.00  0.00    -0.274 OA
ATOM      8  N   UNL     1      -1.375   2.864  24.826  0.00  0.00    -0.302 N 
ATOM     17  C   UNL     1      -0.439   2.352  25.709  0.00  0.00    +0.236 C 
ATOM     41  H   UNL     1      -1.474   2.434  23.911  0.00  0.00    +0.150 HD
BRANCH   8  19
ATOM     19  C   UNL     1      -2.152   4.053  25.099  0.00  0.00    +0.163 C 
BRANCH  19  23
ATOM      4  O   UNL     1      -1.543   6.405  25.087  0.00  0.00    -0.274 OA
ATOM     11  N   UNL     1      -0.098   4.891  24.140  0.00  0.00    -0.328 N 
ATOM     23  C   UNL     1      -1.268   5.249  24.776  0.00  0.00    +0.231 C 
ATOM     43  H   UNL     1       0.126   3.928  23.910  0.00  0.00    +0.145 HD
ATOM     44  H   UNL     1       0.589   5.592  23.880  0.00  0.00    +0.145 HD
ENDBRANCH  19  23
BRANCH  19  22
ATOM     22  C   UNL     1      -3.442   4.104  24.275  0.00  0.00    +0.067 C 
BRANCH  22  24
ATOM     24  C   UNL     1      -4.518   3.194  24.817  0.00  0.00    -0.045 A 
ATOM     27  C   UNL     1      -5.079   3.446  26.070  0.00  0.00    +0.004 A 
ATOM     28  C   UNL     1      -4.952   2.102  24.066  0.00  0.00    +0.004 A 
ATOM     33  C   UNL     1      -6.073   2.606  26.570  0.00  0.00    +0.000 A 
ATOM     34  C   UNL     1      -5.947   1.262  24.567  0.00  0.00    +0.000 A 
ATOM     35  C   UNL     1      -6.507   1.513  25.819  0.00  0.00    +0.000 A 
ENDBRANCH  22  24
ENDBRANCH  19  22
ENDBRANCH   8  19
ENDBRANCH  14  17
TORSDOF 9
ENDMDL
MODEL 5
REMARK VINA RESULT:      12.9      3.395      6.065
REMARK  Name = 11882086
REMARK  10 active torsions:
REMARK  status: ('A' for Active; 'I' for Inactive)
REMARK    1  A    between atoms: O_5  and  C_36
REMARK    2  A    between atoms: O_5  and  C_39
REMARK    3  A    between atoms: N_7  and  C_13
REMARK    4  A    between atoms: N_8  and  C_19
REMARK    5  A    between atoms: N_9  and  C_26
REMARK    6  A    between atoms: C_14  and  C_17
REMARK    7  A    between atoms: C_18  and  C_21
REMARK    8  A    between atoms: C_19  and  C_22
REMARK    9  A    between atoms: C_19  and  C_23
REMARK   10  A    between atoms: C_22  and  C_24
REMARK                            x       y       z     vdW  Elec       q    Type
REMARK                         _______ _______ _______ _____ _____    ______ ____
ROOT
ATOM      2  O   UNL     1      -0.818  -0.671  24.414  0.00  0.00    -0.268 OA
ATOM      6  N   UNL     1      -0.849   1.618  23.984  0.00  0.00    -0.283 N 
ATOM     13  C   UNL     1      -1.690   3.492  25.168  0.00  0.00    +0.105 C 
ATOM     14  C   UNL     1      -1.812   1.975  25.021  0.00  0.00    +0.182 C 
ATOM     15  C   UNL     1      -1.223   3.948  23.784  0.00  0.00    +0.043 C 
ATOM     16  C   UNL     1      -0.335   2.807  23.306  0.00  0.00    +0.111 C 
ATOM     18  C   UNL     1      -0.376   0.319  23.838  0.00  0.00    +0.267 C 
ENDROOT
BRANCH  13   7
ATOM      3  O   UNL     1      -0.324   1.691  26.928  0.00  0.00    -0.252 OA
ATOM      7  N   UNL     1      -0.722   3.843  26.181  0.00  0.00    -0.294 N 
ATOM      9  N   UNL     1       0.785   3.526  27.883  0.00  0.00    -0.269 N 
ATOM     20  C   UNL     1      -0.098   2.897  27.002  0.00  0.00    +0.304 C 
ATOM     40  H   UNL     1      -0.432   4.813  26.258  0.00  0.00    +0.151 HD
ATOM     42  H   UNL     1       0.854   4.539  27.814  0.00  0.00    +0.156 HD
BRANCH   9  26
ATOM     26  C   UNL     1       1.604   2.927  28.868  0.00  0.00    +0.038 A 
ATOM     30  C   UNL     1       1.058   2.559  30.098  0.00  0.00    +0.069 A 
ATOM     32  C   UNL     1       2.957   2.705  28.610  0.00  0.00    +0.023 A 
ATOM     36  C   UNL     1       1.866   1.968  31.070  0.00  0.00    +0.122 A 
ATOM     37  C   UNL     1       3.764   2.114  29.583  0.00  0.00    +0.005 A 
ATOM     38  C   UNL     1       3.218   1.746  30.812  0.00  0.00    +0.046 A 
BRANCH  36   5
ATOM      5  O   UNL     1       1.334   1.609  32.271  0.00  0.00    -0.495 OA
ATOM     39  C   UNL     1       0.214   2.361  32.735  0.00  0.00    +0.277 C 
ENDBRANCH  36   5
ENDBRANCH   9  26
ENDBRANCH  13   7
BRANCH  18  21
ATOM     10  N   UNL     1       1.955   0.563  23.336  0.00  0.00    -0.247 NA
ATOM     12  N   UNL     1       1.613  -0.687  20.850  0.00  0.00    -0.259 NA
ATOM     21  C   UNL     1       0.753   0.118  22.921  0.00  0.00    +0.144 A 
ATOM     25  C   UNL     1       0.586  -0.497  21.700  0.00  0.00    +0.143 A 
ATOM     29  C   UNL     1       2.984   0.372  22.486  0.00  0.00    +0.131 A 
ATOM     31  C   UNL     1       2.816  -0.242  21.265  0.00  0.00    +0.130 A 
ENDBRANCH  18  21
BRANCH  14  17
ATOM      1  O   UNL     1      -3.411   1.551  23.301  0.00  0.00    -0.274 OA
ATOM      8  N   UNL     1      -4.046   1.273  25.523  0.00  0.00    -0.302 N 
ATOM     17  C   UNL     1      -3.161   1.575  24.502  0.00  0.00    +0.236 C 
ATOM     41  H   UNL     1      -3.703   1.251  26.480  0.00  0.00    +0.150 HD
BRANCH   8  19
ATOM     19  C   UNL     1      -5.417   0.881  25.290  0.00  0.00    +0.163 C 
BRANCH  19  23
ATOM      4  O   UNL     1      -5.771   3.278  25.103  0.00  0.00    -0.274 OA
ATOM     11  N   UNL     1      -7.368   1.862  24.255  0.00  0.00    -0.328 N 
ATOM     23  C   UNL     1      -6.183   2.138  24.903  0.00  0.00    +0.231 C 
ATOM     43  H   UNL     1      -7.685   0.915  24.076  0.00  0.00    +0.145 HD
ATOM     44  H   UNL     1      -7.970   2.611  23.929  0.00  0.00    +0.145 HD
ENDBRANCH  19  23
BRANCH  19  22
ATOM     22  C   UNL     1      -5.538  -0.178  24.190  0.00  0.00    +0.067 C 
BRANCH  22  24
ATOM     24  C   UNL     1      -4.579  -1.329  24.379  0.00  0.00    -0.045 A 
ATOM     27  C   UNL     1      -3.876  -1.462  25.577  0.00  0.00    +0.004 A 
ATOM     28  C   UNL     1      -4.397  -2.261  23.357  0.00  0.00    +0.004 A 
ATOM     33  C   UNL     1      -2.991  -2.526  25.752  0.00  0.00    +0.000 A 
ATOM     34  C   UNL     1      -3.512  -3.325  23.533  0.00  0.00    +0.000 A 
ATOM     35  C   UNL     1      -2.809  -3.457  24.729  0.00  0.00    +0.000 A 
ENDBRANCH  22  24
ENDBRANCH  19  22
ENDBRANCH   8  19
ENDBRANCH  14  17
TORSDOF 9
ENDMDL
MODEL 6
REMARK VINA RESULT:      13.2      2.999      5.854
REMARK  Name = 11882086
REMARK  10 active torsions:
REMARK  status: ('A' for Active; 'I' for Inactive)
REMARK    1  A    between atoms: O_5  and  C_36
REMARK    2  A    between atoms: O_5  and  C_39
REMARK    3  A    between atoms: N_7  and  C_13
REMARK    4  A    between atoms: N_8  and  C_19
REMARK    5  A    between atoms: N_9  and  C_26
REMARK    6  A    between atoms: C_14  and  C_17
REMARK    7  A    between atoms: C_18  and  C_21
REMARK    8  A    between atoms: C_19  and  C_22
REMARK    9  A    between atoms: C_19  and  C_23
REMARK   10  A    between atoms: C_22  and  C_24
REMARK                            x       y       z     vdW  Elec       q    Type
REMARK                         _______ _______ _______ _____ _____    ______ ____
ROOT
ATOM      2  O   UNL     1      -0.076  -0.864  24.003  0.00  0.00    -0.268 OA
ATOM      6  N   UNL     1      -0.456   1.416  23.719  0.00  0.00    -0.283 N 
ATOM     13  C   UNL     1      -1.876   2.983  24.792  0.00  0.00    +0.105 C 
ATOM     14  C   UNL     1      -1.668   1.491  24.527  0.00  0.00    +0.182 C 
ATOM     15  C   UNL     1      -1.220   3.654  23.583  0.00  0.00    +0.043 C 
ATOM     16  C   UNL     1      -0.047   2.741  23.253  0.00  0.00    +0.111 C 
ATOM     18  C   UNL     1       0.279   0.243  23.606  0.00  0.00    +0.267 C 
ENDROOT
BRANCH  13   7
ATOM      3  O   UNL     1       0.098   1.516  26.260  0.00  0.00    -0.252 OA
ATOM      7  N   UNL     1      -1.234   3.390  26.020  0.00  0.00    -0.294 N 
ATOM      9  N   UNL     1       0.167   3.256  27.834  0.00  0.00    -0.269 N 
ATOM     20  C   UNL     1      -0.275   2.610  26.676  0.00  0.00    +0.304 C 
ATOM     40  H   UNL     1      -1.439   4.312  26.391  0.00  0.00    +0.151 HD
ATOM     42  H   UNL     1      -0.248   4.163  28.036  0.00  0.00    +0.156 HD
BRANCH   9  26
ATOM     26  C   UNL     1       1.127   2.804  28.768  0.00  0.00    +0.038 A 
ATOM     30  C   UNL     1       2.471   2.726  28.403  0.00  0.00    +0.069 A 
ATOM     32  C   UNL     1       0.730   2.434  30.053  0.00  0.00    +0.023 A 
ATOM     36  C   UNL     1       3.418   2.279  29.325  0.00  0.00    +0.122 A 
ATOM     37  C   UNL     1       1.678   1.987  30.974  0.00  0.00    +0.005 A 
ATOM     38  C   UNL     1       3.021   1.909  30.610  0.00  0.00    +0.046 A 
BRANCH  36   5
ATOM      5  O   UNL     1       4.730   2.201  28.969  0.00  0.00    -0.495 OA
ATOM     39  C   UNL     1       5.016   1.955  27.593  0.00  0.00    +0.277 C 
ENDBRANCH  36   5
ENDBRANCH   9  26
ENDBRANCH  13   7
BRANCH  18  21
ATOM     10  N   UNL     1       1.730  -0.272  21.769  0.00  0.00    -0.247 NA
ATOM     12  N   UNL     1       3.850   1.111  22.975  0.00  0.00    -0.259 NA
ATOM     21  C   UNL     1       1.596   0.337  22.963  0.00  0.00    +0.144 A 
ATOM     25  C   UNL     1       2.637   1.018  23.555  0.00  0.00    +0.143 A 
ATOM     29  C   UNL     1       2.943  -0.178  21.188  0.00  0.00    +0.131 A 
ATOM     31  C   UNL     1       3.984   0.502  21.781  0.00  0.00    +0.130 A 
ENDBRANCH  18  21
BRANCH  14  17
ATOM      1  O   UNL     1      -3.054   1.382  22.587  0.00  0.00    -0.274 OA
ATOM      8  N   UNL     1      -3.409  -0.140  24.313  0.00  0.00    -0.302 N 
ATOM     17  C   UNL     1      -2.771   0.919  23.688  0.00  0.00    +0.236 C 
ATOM     41  H   UNL     1      -3.036  -0.488  25.192  0.00  0.00    +0.150 HD
BRANCH   8  19
ATOM     19  C   UNL     1      -4.521  -0.852  23.724  0.00  0.00    +0.163 C 
BRANCH  19  23
ATOM      4  O   UNL     1      -4.763  -3.239  23.341  0.00  0.00    -0.274 OA
ATOM     11  N   UNL     1      -3.556  -2.536  25.164  0.00  0.00    -0.328 N 
ATOM     23  C   UNL     1      -4.324  -2.328  24.038  0.00  0.00    +0.231 C 
ATOM     43  H   UNL     1      -3.182  -1.773  25.718  0.00  0.00    +0.145 HD
ATOM     44  H   UNL     1      -3.336  -3.476  25.479  0.00  0.00    +0.145 HD
ENDBRANCH  19  23
BRANCH  19  22
ATOM     22  C   UNL     1      -5.870  -0.366  24.264  0.00  0.00    +0.067 C 
BRANCH  22  24
ATOM     24  C   UNL     1      -5.787   1.002  24.898  0.00  0.00    -0.045 A 
ATOM     27  C   UNL     1      -6.136   1.172  26.238  0.00  0.00    +0.004 A 
ATOM     28  C   UNL     1      -5.363   2.096  24.144  0.00  0.00    +0.004 A 
ATOM     33  C   UNL     1      -6.059   2.435  26.824  0.00  0.00    +0.000 A 
ATOM     34  C   UNL     1      -5.286   3.359  24.730  0.00  0.00    +0.000 A 
ATOM     35  C   UNL     1      -5.634   3.529  26.070  0.00  0.00    +0.000 A 
ENDBRANCH  22  24
ENDBRANCH  19  22
ENDBRANCH   8  19
ENDBRANCH  14  17
TORSDOF 9
ENDMDL
