MODEL 1
REMARK VINA RESULT:      -4.5      0.000      0.000
REMARK  Name = 51137069
REMARK  3 active torsions:
REMARK  status: ('A' for Active; 'I' for Inactive)
REMARK    1  A    between atoms: N_2  and  C_8
REMARK    2  A    between atoms: C_4  and  C_9
REMARK    3  A    between atoms: C_8  and  C_10
REMARK                            x       y       z     vdW  Elec       q    Type
REMARK                         _______ _______ _______ _____ _____    ______ ____
ROOT
ATOM      2  N   UNL     1       0.665  -0.605  23.699  0.00  0.00    -0.297 NA
ATOM      4  C   UNL     1      -1.142  -0.069  25.094  0.00  0.00    +0.060 C 
ATOM      5  C   UNL     1      -1.343  -1.477  24.510  0.00  0.00    +0.027 C 
ATOM      6  C   UNL     1      -0.050   0.563  24.220  0.00  0.00    +0.095 C 
ATOM      7  C   UNL     1      -0.384  -1.556  23.330  0.00  0.00    +0.085 C 
ENDROOT
BRANCH   4   9
ATOM      1  S   UNL     1      -3.920   0.007  25.048  0.00  0.00    -0.072 S 
ATOM      3  N   UNL     1      -2.405   2.075  25.325  0.00  0.00    -0.244 NA
ATOM      9  C   UNL     1      -2.396   0.772  25.170  0.00  0.00    +0.084 A 
ATOM     11  C   UNL     1      -4.693   1.540  25.216  0.00  0.00    +0.039 A 
ATOM     12  C   UNL     1      -3.715   2.530  25.353  0.00  0.00    +0.078 A 
ATOM     15  C   UNL     1      -6.063   1.843  25.226  0.00  0.00    +0.017 A 
ATOM     16  C   UNL     1      -4.128   3.872  25.505  0.00  0.00    +0.029 A 
ATOM     19  C   UNL     1      -6.445   3.179  25.377  0.00  0.00    +0.001 A 
ATOM     20  C   UNL     1      -5.491   4.181  25.515  0.00  0.00    +0.002 A 
ENDBRANCH   4   9
BRANCH   2   8
ATOM      8  C   UNL     1       1.530  -0.271  22.578  0.00  0.00    +0.119 C 
BRANCH   8  10
ATOM     10  C   UNL     1       2.979  -0.217  22.984  0.00  0.00    -0.033 A 
ATOM     13  C   UNL     1       3.725   0.940  22.762  0.00  0.00    +0.005 A 
ATOM     14  C   UNL     1       3.577  -1.327  23.582  0.00  0.00    +0.005 A 
ATOM     17  C   UNL     1       5.067   0.989  23.139  0.00  0.00    +0.000 A 
ATOM     18  C   UNL     1       4.919  -1.279  23.958  0.00  0.00    +0.000 A 
ATOM     21  C   UNL     1       5.664  -0.120  23.737  0.00  0.00    +0.000 A 
ENDBRANCH   8  10
ENDBRANCH   2   8
TORSDOF 3
ENDMDL
MODEL 2
REMARK VINA RESULT:      -4.3      0.867      1.354
REMARK  Name = 51137069
REMARK  3 active torsions:
REMARK  status: ('A' for Active; 'I' for Inactive)
REMARK    1  A    between atoms: N_2  and  C_8
REMARK    2  A    between atoms: C_4  and  C_9
REMARK    3  A    between atoms: C_8  and  C_10
REMARK                            x       y       z     vdW  Elec       q    Type
REMARK                         _______ _______ _______ _____ _____    ______ ____
ROOT
ATOM      2  N   UNL     1       0.732  -0.526  23.721  0.00  0.00    -0.297 NA
ATOM      4  C   UNL     1      -1.023   0.142  25.125  0.00  0.00    +0.060 C 
ATOM      5  C   UNL     1      -1.317  -1.260  24.564  0.00  0.00    +0.027 C 
ATOM      6  C   UNL     1       0.096   0.691  24.230  0.00  0.00    +0.095 C 
ATOM      7  C   UNL     1      -0.378  -1.415  23.376  0.00  0.00    +0.085 C 
ENDROOT
BRANCH   4   9
ATOM      1  S   UNL     1      -1.972   2.749  25.297  0.00  0.00    -0.072 S 
ATOM      3  N   UNL     1      -3.469   0.652  25.197  0.00  0.00    -0.244 NA
ATOM      9  C   UNL     1      -2.221   1.060  25.200  0.00  0.00    +0.084 A 
ATOM     11  C   UNL     1      -3.679   2.989  25.341  0.00  0.00    +0.039 A 
ATOM     12  C   UNL     1      -4.316   1.746  25.279  0.00  0.00    +0.078 A 
ATOM     15  C   UNL     1      -4.401   4.190  25.426  0.00  0.00    +0.017 A 
ATOM     16  C   UNL     1      -5.727   1.707  25.301  0.00  0.00    +0.029 A 
ATOM     19  C   UNL     1      -5.797   4.123  25.446  0.00  0.00    +0.001 A 
ATOM     20  C   UNL     1      -6.453   2.899  25.385  0.00  0.00    +0.002 A 
ENDBRANCH   4   9
BRANCH   2   8
ATOM      8  C   UNL     1       1.604  -0.263  22.586  0.00  0.00    +0.119 C 
BRANCH   8  10
ATOM     10  C   UNL     1       3.054  -0.218  22.992  0.00  0.00    -0.033 A 
ATOM     13  C   UNL     1       3.806   0.936  22.770  0.00  0.00    +0.005 A 
ATOM     14  C   UNL     1       3.645  -1.331  23.589  0.00  0.00    +0.005 A 
ATOM     17  C   UNL     1       5.149   0.977  23.146  0.00  0.00    +0.000 A 
ATOM     18  C   UNL     1       4.988  -1.291  23.965  0.00  0.00    +0.000 A 
ATOM     21  C   UNL     1       5.739  -0.137  23.744  0.00  0.00    +0.000 A 
ENDBRANCH   8  10
ENDBRANCH   2   8
TORSDOF 3
ENDMDL
MODEL 3
REMARK VINA RESULT:      -3.6     14.793     17.483
REMARK  Name = 51137069
REMARK  3 active torsions:
REMARK  status: ('A' for Active; 'I' for Inactive)
REMARK    1  A    between atoms: N_2  and  C_8
REMARK    2  A    between atoms: C_4  and  C_9
REMARK    3  A    between atoms: C_8  and  C_10
REMARK                            x       y       z     vdW  Elec       q    Type
REMARK                         _______ _______ _______ _____ _____    ______ ____
ROOT
ATOM      2  N   UNL     1      -8.248 -10.453  15.924  0.00  0.00    -0.297 NA
ATOM      4  C   UNL     1      -6.266 -10.577  14.678  0.00  0.00    +0.060 C 
ATOM      5  C   UNL     1      -6.085  -9.580  15.835  0.00  0.00    +0.027 C 
ATOM      6  C   UNL     1      -7.783 -10.781  14.574  0.00  0.00    +0.095 C 
ATOM      7  C   UNL     1      -7.498  -9.255  16.300  0.00  0.00    +0.085 C 
ENDROOT
BRANCH   4   9
ATOM      1  S   UNL     1      -4.044 -10.658  13.008  0.00  0.00    -0.072 S 
ATOM      3  N   UNL     1      -6.234  -9.407  12.469  0.00  0.00    -0.244 NA
ATOM      9  C   UNL     1      -5.637 -10.152  13.370  0.00  0.00    +0.084 A 
ATOM     11  C   UNL     1      -4.128  -9.816  11.506  0.00  0.00    +0.039 A 
ATOM     12  C   UNL     1      -5.381  -9.205  11.395  0.00  0.00    +0.078 A 
ATOM     15  C   UNL     1      -3.156  -9.704  10.500  0.00  0.00    +0.017 A 
ATOM     16  C   UNL     1      -5.668  -8.456  10.233  0.00  0.00    +0.029 A 
ATOM     19  C   UNL     1      -3.465  -8.956   9.360  0.00  0.00    +0.001 A 
ATOM     20  C   UNL     1      -4.704  -8.340   9.227  0.00  0.00    +0.002 A 
ENDBRANCH   4   9
BRANCH   2   8
ATOM      8  C   UNL     1      -9.687 -10.246  15.979  0.00  0.00    +0.119 C 
BRANCH   8  10
ATOM     10  C   UNL     1     -10.049  -8.789  15.870  0.00  0.00    -0.033 A 
ATOM     13  C   UNL     1     -10.361  -8.059  17.017  0.00  0.00    +0.005 A 
ATOM     14  C   UNL     1     -10.073  -8.168  14.621  0.00  0.00    +0.005 A 
ATOM     17  C   UNL     1     -10.696  -6.708  16.914  0.00  0.00    +0.000 A 
ATOM     18  C   UNL     1     -10.408  -6.819  14.518  0.00  0.00    +0.000 A 
ATOM     21  C   UNL     1     -10.719  -6.089  15.665  0.00  0.00    +0.000 A 
ENDBRANCH   8  10
ENDBRANCH   2   8
TORSDOF 3
ENDMDL
MODEL 4
REMARK VINA RESULT:      -3.0     14.690     17.289
REMARK  Name = 51137069
REMARK  3 active torsions:
REMARK  status: ('A' for Active; 'I' for Inactive)
REMARK    1  A    between atoms: N_2  and  C_8
REMARK    2  A    between atoms: C_4  and  C_9
REMARK    3  A    between atoms: C_8  and  C_10
REMARK                            x       y       z     vdW  Elec       q    Type
REMARK                         _______ _______ _______ _____ _____    ______ ____
ROOT
ATOM      2  N   UNL     1      -9.157 -10.012  15.804  0.00  0.00    -0.297 NA
ATOM      4  C   UNL     1      -8.254  -9.253  13.778  0.00  0.00    +0.060 C 
ATOM      5  C   UNL     1      -9.608  -9.935  13.515  0.00  0.00    +0.027 C 
ATOM      6  C   UNL     1      -7.863  -9.697  15.194  0.00  0.00    +0.095 C 
ATOM      7  C   UNL     1      -9.893 -10.745  14.773  0.00  0.00    +0.085 C 
ENDROOT
BRANCH   4   9
ATOM      1  S   UNL     1      -7.630  -9.717  11.109  0.00  0.00    -0.072 S 
ATOM      3  N   UNL     1      -5.910  -9.687  13.030  0.00  0.00    -0.244 NA
ATOM      9  C   UNL     1      -7.185  -9.547  12.752  0.00  0.00    +0.084 A 
ATOM     11  C   UNL     1      -5.980 -10.006  10.701  0.00  0.00    +0.039 A 
ATOM     12  C   UNL     1      -5.206  -9.951  11.864  0.00  0.00    +0.078 A 
ATOM     15  C   UNL     1      -5.412 -10.262   9.443  0.00  0.00    +0.017 A 
ATOM     16  C   UNL     1      -3.813 -10.161  11.761  0.00  0.00    +0.029 A 
ATOM     19  C   UNL     1      -4.031 -10.467   9.369  0.00  0.00    +0.001 A 
ATOM     20  C   UNL     1      -3.241 -10.417  10.512  0.00  0.00    +0.002 A 
ENDBRANCH   4   9
BRANCH   2   8
ATOM      8  C   UNL     1      -9.018 -10.777  17.035  0.00  0.00    +0.119 C 
BRANCH   8  10
ATOM     10  C   UNL     1      -7.620 -10.699  17.589  0.00  0.00    -0.033 A 
ATOM     13  C   UNL     1      -6.524 -10.761  16.729  0.00  0.00    +0.005 A 
ATOM     14  C   UNL     1      -7.421 -10.565  18.963  0.00  0.00    +0.005 A 
ATOM     17  C   UNL     1      -5.228 -10.689  17.243  0.00  0.00    +0.000 A 
ATOM     18  C   UNL     1      -6.127 -10.493  19.478  0.00  0.00    +0.000 A 
ATOM     21  C   UNL     1      -5.031 -10.554  18.617  0.00  0.00    +0.000 A 
ENDBRANCH   8  10
ENDBRANCH   2   8
TORSDOF 3
ENDMDL
MODEL 5
REMARK VINA RESULT:      -3.0     14.354     17.201
REMARK  Name = 51137069
REMARK  3 active torsions:
REMARK  status: ('A' for Active; 'I' for Inactive)
REMARK    1  A    between atoms: N_2  and  C_8
REMARK    2  A    between atoms: C_4  and  C_9
REMARK    3  A    between atoms: C_8  and  C_10
REMARK                            x       y       z     vdW  Elec       q    Type
REMARK                         _______ _______ _______ _____ _____    ______ ____
ROOT
ATOM      2  N   UNL     1      -6.660 -10.601  17.083  0.00  0.00    -0.297 NA
ATOM      4  C   UNL     1      -5.454 -10.781  15.081  0.00  0.00    +0.060 C 
ATOM      5  C   UNL     1      -4.626  -9.995  16.111  0.00  0.00    +0.027 C 
ATOM      6  C   UNL     1      -6.880 -10.781  15.647  0.00  0.00    +0.095 C 
ATOM      7  C   UNL     1      -5.624  -9.572  17.180  0.00  0.00    +0.085 C 
ENDROOT
BRANCH   4   9
ATOM      1  S   UNL     1      -6.789  -9.598  12.948  0.00  0.00    -0.072 S 
ATOM      3  N   UNL     1      -4.294 -10.248  12.933  0.00  0.00    -0.244 NA
ATOM      9  C   UNL     1      -5.381 -10.249  13.668  0.00  0.00    +0.084 A 
ATOM     11  C   UNL     1      -5.893  -9.273  11.511  0.00  0.00    +0.039 A 
ATOM     12  C   UNL     1      -4.572  -9.692  11.693  0.00  0.00    +0.078 A 
ATOM     15  C   UNL     1      -6.328  -8.690  10.311  0.00  0.00    +0.017 A 
ATOM     16  C   UNL     1      -3.655  -9.520  10.633  0.00  0.00    +0.029 A 
ATOM     19  C   UNL     1      -5.401  -8.531   9.277  0.00  0.00    +0.001 A 
ATOM     20  C   UNL     1      -4.082  -8.940   9.435  0.00  0.00    +0.002 A 
ENDBRANCH   4   9
BRANCH   2   8
ATOM      8  C   UNL     1      -7.877 -10.230  17.789  0.00  0.00    +0.119 C 
BRANCH   8  10
ATOM     10  C   UNL     1      -8.865  -9.546  16.882  0.00  0.00    -0.033 A 
ATOM     13  C   UNL     1      -9.581 -10.287  15.943  0.00  0.00    +0.005 A 
ATOM     14  C   UNL     1      -9.064  -8.168  16.981  0.00  0.00    +0.005 A 
ATOM     17  C   UNL     1     -10.497  -9.652  15.103  0.00  0.00    +0.000 A 
ATOM     18  C   UNL     1      -9.978  -7.533  16.141  0.00  0.00    +0.000 A 
ATOM     21  C   UNL     1     -10.695  -8.275  15.203  0.00  0.00    +0.000 A 
ENDBRANCH   8  10
ENDBRANCH   2   8
TORSDOF 3
ENDMDL
MODEL 6
REMARK VINA RESULT:      -2.9      2.077      7.235
REMARK  Name = 51137069
REMARK  3 active torsions:
REMARK  status: ('A' for Active; 'I' for Inactive)
REMARK    1  A    between atoms: N_2  and  C_8
REMARK    2  A    between atoms: C_4  and  C_9
REMARK    3  A    between atoms: C_8  and  C_10
REMARK                            x       y       z     vdW  Elec       q    Type
REMARK                         _______ _______ _______ _____ _____    ______ ____
ROOT
ATOM      2  N   UNL     1      -3.569   1.935  24.956  0.00  0.00    -0.297 NA
ATOM      4  C   UNL     1      -1.290   2.320  24.562  0.00  0.00    +0.060 C 
ATOM      5  C   UNL     1      -2.124   2.982  23.451  0.00  0.00    +0.027 C 
ATOM      6  C   UNL     1      -2.259   1.348  25.248  0.00  0.00    +0.095 C 
ATOM      7  C   UNL     1      -3.498   2.334  23.550  0.00  0.00    +0.085 C 
ENDROOT
BRANCH   4   9
ATOM      1  S   UNL     1      -0.011  -0.043  23.849  0.00  0.00    -0.072 S 
ATOM      3  N   UNL     1       1.103   2.282  23.842  0.00  0.00    -0.244 NA
ATOM      9  C   UNL     1      -0.020   1.650  24.089  0.00  0.00    +0.084 A 
ATOM     11  C   UNL     1       1.643   0.043  23.368  0.00  0.00    +0.039 A 
ATOM     12  C   UNL     1       2.067   1.374  23.429  0.00  0.00    +0.078 A 
ATOM     15  C   UNL     1       2.502  -0.991  22.966  0.00  0.00    +0.017 A 
ATOM     16  C   UNL     1       3.399   1.678  23.074  0.00  0.00    +0.029 A 
ATOM     19  C   UNL     1       3.816  -0.665  22.620  0.00  0.00    +0.001 A 
ATOM     20  C   UNL     1       4.260   0.652  22.673  0.00  0.00    +0.002 A 
ENDBRANCH   4   9
BRANCH   2   8
ATOM      8  C   UNL     1      -4.661   1.009  25.214  0.00  0.00    +0.119 C 
BRANCH   8  10
ATOM     10  C   UNL     1      -4.247  -0.422  24.998  0.00  0.00    -0.033 A 
ATOM     13  C   UNL     1      -4.554  -1.064  23.798  0.00  0.00    +0.005 A 
ATOM     14  C   UNL     1      -3.557  -1.107  25.998  0.00  0.00    +0.005 A 
ATOM     17  C   UNL     1      -4.169  -2.390  23.598  0.00  0.00    +0.000 A 
ATOM     18  C   UNL     1      -3.173  -2.433  25.798  0.00  0.00    +0.000 A 
ATOM     21  C   UNL     1      -3.479  -3.074  24.598  0.00  0.00    +0.000 A 
ENDBRANCH   8  10
ENDBRANCH   2   8
TORSDOF 3
ENDMDL
MODEL 7
REMARK VINA RESULT:      -2.2      3.006      6.694
REMARK  Name = 51137069
REMARK  3 active torsions:
REMARK  status: ('A' for Active; 'I' for Inactive)
REMARK    1  A    between atoms: N_2  and  C_8
REMARK    2  A    between atoms: C_4  and  C_9
REMARK    3  A    between atoms: C_8  and  C_10
REMARK                            x       y       z     vdW  Elec       q    Type
REMARK                         _______ _______ _______ _____ _____    ______ ____
ROOT
ATOM      2  N   UNL     1      -0.249   3.547  25.240  0.00  0.00    -0.297 NA
ATOM      4  C   UNL     1      -0.237   1.203  25.183  0.00  0.00    +0.060 C 
ATOM      5  C   UNL     1       0.538   1.752  23.973  0.00  0.00    +0.027 C 
ATOM      6  C   UNL     1      -1.034   2.404  25.711  0.00  0.00    +0.095 C 
ATOM      7  C   UNL     1       0.119   3.212  23.865  0.00  0.00    +0.085 C 
ENDROOT
BRANCH   4   9
ATOM      1  S   UNL     1      -0.440  -1.566  25.045  0.00  0.00    -0.072 S 
ATOM      3  N   UNL     1      -2.362   0.070  24.516  0.00  0.00    -0.244 NA
ATOM      9  C   UNL     1      -1.106   0.002  24.890  0.00  0.00    +0.084 A 
ATOM     11  C   UNL     1      -1.954  -2.245  24.573  0.00  0.00    +0.039 A 
ATOM     12  C   UNL     1      -2.862  -1.210  24.329  0.00  0.00    +0.078 A 
ATOM     15  C   UNL     1      -2.310  -3.594  24.428  0.00  0.00    +0.017 A 
ATOM     16  C   UNL     1      -4.174  -1.541  23.927  0.00  0.00    +0.029 A 
ATOM     19  C   UNL     1      -3.615  -3.896  24.029  0.00  0.00    +0.001 A 
ATOM     20  C   UNL     1      -4.536  -2.884  23.781  0.00  0.00    +0.002 A 
ENDBRANCH   4   9
BRANCH   2   8
ATOM      8  C   UNL     1      -0.986   4.799  25.328  0.00  0.00    +0.119 C 
BRANCH   8  10
ATOM     10  C   UNL     1      -2.475   4.577  25.290  0.00  0.00    -0.033 A 
ATOM     13  C   UNL     1      -3.193   4.462  26.480  0.00  0.00    +0.005 A 
ATOM     14  C   UNL     1      -3.136   4.487  24.065  0.00  0.00    +0.005 A 
ATOM     17  C   UNL     1      -4.573   4.257  26.445  0.00  0.00    +0.000 A 
ATOM     18  C   UNL     1      -4.515   4.281  24.030  0.00  0.00    +0.000 A 
ATOM     21  C   UNL     1      -5.233   4.167  25.220  0.00  0.00    +0.000 A 
ENDBRANCH   8  10
ENDBRANCH   2   8
TORSDOF 3
ENDMDL
MODEL 8
REMARK VINA RESULT:      -2.2      1.338      1.999
REMARK  Name = 51137069
REMARK  3 active torsions:
REMARK  status: ('A' for Active; 'I' for Inactive)
REMARK    1  A    between atoms: N_2  and  C_8
REMARK    2  A    between atoms: C_4  and  C_9
REMARK    3  A    between atoms: C_8  and  C_10
REMARK                            x       y       z     vdW  Elec       q    Type
REMARK                         _______ _______ _______ _____ _____    ______ ____
ROOT
ATOM      2  N   UNL     1       0.974   0.959  23.014  0.00  0.00    -0.297 NA
ATOM      4  C   UNL     1      -0.922   2.265  23.460  0.00  0.00    +0.060 C 
ATOM      5  C   UNL     1       0.203   2.639  24.440  0.00  0.00    +0.027 C 
ATOM      6  C   UNL     1      -0.481   0.924  22.857  0.00  0.00    +0.095 C 
ATOM      7  C   UNL     1       1.196   1.487  24.360  0.00  0.00    +0.085 C 
ENDROOT
BRANCH   4   9
ATOM      1  S   UNL     1      -3.081   0.698  24.240  0.00  0.00    -0.072 S 
ATOM      3  N   UNL     1      -2.969   3.262  24.488  0.00  0.00    -0.244 NA
ATOM      9  C   UNL     1      -2.304   2.211  24.070  0.00  0.00    +0.084 A 
ATOM     11  C   UNL     1      -4.445   1.488  24.940  0.00  0.00    +0.039 A 
ATOM     12  C   UNL     1      -4.200   2.863  24.989  0.00  0.00    +0.078 A 
ATOM     15  C   UNL     1      -5.644   0.931  25.410  0.00  0.00    +0.017 A 
ATOM     16  C   UNL     1      -5.192   3.709  25.530  0.00  0.00    +0.029 A 
ATOM     19  C   UNL     1      -6.611   1.790  25.940  0.00  0.00    +0.001 A 
ATOM     20  C   UNL     1      -6.389   3.161  26.000  0.00  0.00    +0.002 A 
ENDBRANCH   4   9
BRANCH   2   8
ATOM      8  C   UNL     1       1.584  -0.348  22.824  0.00  0.00    +0.119 C 
BRANCH   8  10
ATOM     10  C   UNL     1       3.057  -0.330  23.138  0.00  0.00    -0.033 A 
ATOM     13  C   UNL     1       3.659  -1.443  23.725  0.00  0.00    +0.005 A 
ATOM     14  C   UNL     1       3.820   0.800  22.843  0.00  0.00    +0.005 A 
ATOM     17  C   UNL     1       5.023  -1.427  24.016  0.00  0.00    +0.000 A 
ATOM     18  C   UNL     1       5.183   0.817  23.135  0.00  0.00    +0.000 A 
ATOM     21  C   UNL     1       5.785  -0.297  23.721  0.00  0.00    +0.000 A 
ENDBRANCH   8  10
ENDBRANCH   2   8
TORSDOF 3
ENDMDL
MODEL 9
REMARK VINA RESULT:      -2.0     14.949     17.341
REMARK  Name = 51137069
REMARK  3 active torsions:
REMARK  status: ('A' for Active; 'I' for Inactive)
REMARK    1  A    between atoms: N_2  and  C_8
REMARK    2  A    between atoms: C_4  and  C_9
REMARK    3  A    between atoms: C_8  and  C_10
REMARK                            x       y       z     vdW  Elec       q    Type
REMARK                         _______ _______ _______ _____ _____    ______ ____
ROOT
ATOM      2  N   UNL     1      -9.307  -9.914  14.635  0.00  0.00    -0.297 NA
ATOM      4  C   UNL     1      -7.462  -9.227  13.362  0.00  0.00    +0.060 C 
ATOM      5  C   UNL     1      -8.523  -9.848  12.437  0.00  0.00    +0.027 C 
ATOM      6  C   UNL     1      -7.870  -9.669  14.773  0.00  0.00    +0.095 C 
ATOM      7  C   UNL     1      -9.448 -10.625  13.364  0.00  0.00    +0.085 C 
ENDROOT
BRANCH   4   9
ATOM      1  S   UNL     1      -5.551  -9.610  11.380  0.00  0.00    -0.072 S 
ATOM      3  N   UNL     1      -5.115  -9.888  13.907  0.00  0.00    -0.244 NA
ATOM      9  C   UNL     1      -6.034  -9.585  13.020  0.00  0.00    +0.084 A 
ATOM     11  C   UNL     1      -3.960 -10.065  11.866  0.00  0.00    +0.039 A 
ATOM     12  C   UNL     1      -3.920 -10.166  13.260  0.00  0.00    +0.078 A 
ATOM     15  C   UNL     1      -2.830 -10.316  11.071  0.00  0.00    +0.017 A 
ATOM     16  C   UNL     1      -2.704 -10.530  13.878  0.00  0.00    +0.029 A 
ATOM     19  C   UNL     1      -1.639 -10.675  11.708  0.00  0.00    +0.001 A 
ATOM     20  C   UNL     1      -1.575 -10.781  13.092  0.00  0.00    +0.002 A 
ENDBRANCH   4   9
BRANCH   2   8
ATOM      8  C   UNL     1      -9.852 -10.667  15.755  0.00  0.00    +0.119 C 
BRANCH   8  10
ATOM     10  C   UNL     1      -8.928 -10.652  16.943  0.00  0.00    -0.033 A 
ATOM     13  C   UNL     1      -9.447 -10.509  18.230  0.00  0.00    +0.005 A 
ATOM     14  C   UNL     1      -7.551 -10.779  16.758  0.00  0.00    +0.005 A 
ATOM     17  C   UNL     1      -8.590 -10.496  19.331  0.00  0.00    +0.000 A 
ATOM     18  C   UNL     1      -6.694 -10.764  17.858  0.00  0.00    +0.000 A 
ATOM     21  C   UNL     1      -7.214 -10.623  19.145  0.00  0.00    +0.000 A 
ENDBRANCH   8  10
ENDBRANCH   2   8
TORSDOF 3
ENDMDL
MODEL 10
REMARK VINA RESULT:      -1.5      1.639      7.549
REMARK  Name = 51137069
REMARK  3 active torsions:
REMARK  status: ('A' for Active; 'I' for Inactive)
REMARK    1  A    between atoms: N_2  and  C_8
REMARK    2  A    between atoms: C_4  and  C_9
REMARK    3  A    between atoms: C_8  and  C_10
REMARK                            x       y       z     vdW  Elec       q    Type
REMARK                         _______ _______ _______ _____ _____    ______ ____
ROOT
ATOM      2  N   UNL     1      -3.555  -1.048  24.726  0.00  0.00    -0.297 NA
ATOM      4  C   UNL     1      -1.253  -1.469  24.579  0.00  0.00    +0.060 C 
ATOM      5  C   UNL     1      -1.629  -1.168  26.040  0.00  0.00    +0.027 C 
ATOM      6  C   UNL     1      -2.455  -0.982  23.760  0.00  0.00    +0.095 C 
ATOM      7  C   UNL     1      -2.999  -0.507  25.967  0.00  0.00    +0.085 C 
ENDROOT
BRANCH   4   9
ATOM      1  S   UNL     1       0.083   0.766  23.605  0.00  0.00    -0.072 S 
ATOM      3  N   UNL     1       1.198  -1.507  24.093  0.00  0.00    -0.244 NA
ATOM      9  C   UNL     1       0.055  -0.863  24.123  0.00  0.00    +0.084 A 
ATOM     11  C   UNL     1       1.776   0.631  23.303  0.00  0.00    +0.039 A 
ATOM     12  C   UNL     1       2.194  -0.664  23.623  0.00  0.00    +0.078 A 
ATOM     15  C   UNL     1       2.667   1.600  22.816  0.00  0.00    +0.017 A 
ATOM     16  C   UNL     1       3.555  -0.998  23.452  0.00  0.00    +0.029 A 
ATOM     19  C   UNL     1       4.009   1.244  22.655  0.00  0.00    +0.001 A 
ATOM     20  C   UNL     1       4.449  -0.037  22.968  0.00  0.00    +0.002 A 
ENDBRANCH   4   9
BRANCH   2   8
ATOM      8  C   UNL     1      -4.730  -0.315  24.279  0.00  0.00    +0.119 C 
BRANCH   8  10
ATOM     10  C   UNL     1      -4.626   1.155  24.589  0.00  0.00    -0.033 A 
ATOM     13  C   UNL     1      -3.640   1.929  23.978  0.00  0.00    +0.005 A 
ATOM     14  C   UNL     1      -5.515   1.743  25.489  0.00  0.00    +0.005 A 
ATOM     17  C   UNL     1      -3.544   3.291  24.265  0.00  0.00    +0.000 A 
ATOM     18  C   UNL     1      -5.419   3.104  25.777  0.00  0.00    +0.000 A 
ATOM     21  C   UNL     1      -4.434   3.878  25.165  0.00  0.00    +0.000 A 
ENDBRANCH   8  10
ENDBRANCH   2   8
TORSDOF 3
ENDMDL
