MODEL 1
REMARK VINA RESULT:      -2.3      0.000      0.000
REMARK  Name = 11884386
REMARK  8 active torsions:
REMARK  status: ('A' for Active; 'I' for Inactive)
REMARK    1  A    between atoms: O_3  and  C_21
REMARK    2  A    between atoms: O_3  and  C_24
REMARK    3  A    between atoms: O_5  and  C_25
REMARK    4  A    between atoms: O_5  and  C_31
REMARK    5  A    between atoms: N_8  and  C_19
REMARK    6  A    between atoms: C_18  and  C_21
REMARK    7  A    between atoms: C_22  and  C_23
REMARK    8  A    between atoms: C_23  and  C_25
REMARK                            x       y       z     vdW  Elec       q    Type
REMARK                         _______ _______ _______ _____ _____    ______ ____
ROOT
ATOM      1  O   UNL     1       0.054   2.279  26.045  0.00  0.00    -0.266 OA
ATOM      2  O   UNL     1      -4.789   0.070  26.639  0.00  0.00    -0.272 OA
ATOM      6  N   UNL     1      -4.861   1.819  25.112  0.00  0.00    -0.298 N 
ATOM      7  N   UNL     1      -1.850   2.854  24.819  0.00  0.00    -0.310 N 
ATOM      9  C   UNL     1      -3.887   3.990  25.874  0.00  0.00    +0.027 C 
ATOM     10  C   UNL     1      -3.903   3.435  23.479  0.00  0.00    +0.054 C 
ATOM     11  C   UNL     1      -4.112   4.567  24.482  0.00  0.00    +0.018 C 
ATOM     12  C   UNL     1      -4.882   2.849  26.152  0.00  0.00    +0.113 C 
ATOM     13  C   UNL     1      -2.430   3.525  25.990  0.00  0.00    +0.130 C 
ATOM     14  C   UNL     1      -4.940   2.322  23.732  0.00  0.00    +0.117 C 
ATOM     15  C   UNL     1      -2.501   2.865  23.581  0.00  0.00    +0.027 A 
ATOM     16  C   UNL     1      -1.900   2.347  22.497  0.00  0.00    +0.024 A 
ATOM     17  C   UNL     1      -0.566   2.295  24.981  0.00  0.00    +0.273 A 
ATOM     18  C   UNL     1      -4.855   0.473  25.475  0.00  0.00    +0.253 C 
ATOM     19  C   UNL     1       0.059   1.707  23.753  0.00  0.00    +0.099 A 
ATOM     20  C   UNL     1      -0.595   1.756  22.588  0.00  0.00    +0.030 A 
ENDROOT
BRANCH  19   8
ATOM      4  O   UNL     1       1.222  -0.226  21.990  0.00  0.00    -0.275 OA
ATOM      8  N   UNL     1       1.295   1.145  23.872  0.00  0.00    -0.281 N 
ATOM     22  C   UNL     1       1.805   0.208  22.981  0.00  0.00    +0.220 C 
ATOM     32  H   UNL     1       1.766   1.255  24.766  0.00  0.00    +0.155 HD
BRANCH  22  23
ATOM     23  C   UNL     1       3.206  -0.231  23.379  0.00  0.00    +0.124 C 
BRANCH  23  25
ATOM     25  C   UNL     1       4.296   0.649  22.785  0.00  0.00    +0.168 C 
BRANCH  25   5
ATOM      5  O   UNL     1       5.569   0.170  23.199  0.00  0.00    -0.382 OA
ATOM     31  C   UNL     1       5.452  -0.773  24.255  0.00  0.00    +0.194 C 
ENDBRANCH  25   5
ENDBRANCH  23  25
ENDBRANCH  22  23
ENDBRANCH  19   8
BRANCH  18  21
ATOM     21  C   UNL     1      -4.930  -0.531  24.353  0.00  0.00    +0.324 C 
BRANCH  21   3
ATOM      3  O   UNL     1      -4.358  -1.721  24.837  0.00  0.00    -0.483 OA
BRANCH   3  24
ATOM     24  C   UNL     1      -2.984  -1.773  24.925  0.00  0.00    +0.121 A 
ATOM     26  C   UNL     1      -2.311  -0.943  25.821  0.00  0.00    +0.045 A 
ATOM     27  C   UNL     1      -2.267  -2.655  24.117  0.00  0.00    +0.045 A 
ATOM     28  C   UNL     1      -0.919  -0.995  25.908  0.00  0.00    +0.004 A 
ATOM     29  C   UNL     1      -0.877  -2.708  24.204  0.00  0.00    +0.004 A 
ATOM     30  C   UNL     1      -0.202  -1.878  25.100  0.00  0.00    +0.000 A 
ENDBRANCH   3  24
ENDBRANCH  21   3
ENDBRANCH  18  21
TORSDOF 7
ENDMDL
MODEL 2
REMARK VINA RESULT:      -1.6      1.297      1.458
REMARK  Name = 11884386
REMARK  8 active torsions:
REMARK  status: ('A' for Active; 'I' for Inactive)
REMARK    1  A    between atoms: O_3  and  C_21
REMARK    2  A    between atoms: O_3  and  C_24
REMARK    3  A    between atoms: O_5  and  C_25
REMARK    4  A    between atoms: O_5  and  C_31
REMARK    5  A    between atoms: N_8  and  C_19
REMARK    6  A    between atoms: C_18  and  C_21
REMARK    7  A    between atoms: C_22  and  C_23
REMARK    8  A    between atoms: C_23  and  C_25
REMARK                            x       y       z     vdW  Elec       q    Type
REMARK                         _______ _______ _______ _____ _____    ______ ____
ROOT
ATOM      1  O   UNL     1      -0.190   1.447  26.093  0.00  0.00    -0.266 OA
ATOM      2  O   UNL     1      -5.481   1.326  26.911  0.00  0.00    -0.272 OA
ATOM      6  N   UNL     1      -4.922   2.964  25.360  0.00  0.00    -0.298 N 
ATOM      7  N   UNL     1      -1.763   2.727  24.933  0.00  0.00    -0.310 N 
ATOM      9  C   UNL     1      -3.140   4.573  26.050  0.00  0.00    +0.027 C 
ATOM     10  C   UNL     1      -3.475   4.072  23.667  0.00  0.00    +0.054 C 
ATOM     11  C   UNL     1      -3.178   5.194  24.659  0.00  0.00    +0.018 C 
ATOM     12  C   UNL     1      -4.492   3.917  26.385  0.00  0.00    +0.113 C 
ATOM     13  C   UNL     1      -1.981   3.571  26.116  0.00  0.00    +0.130 C 
ATOM     14  C   UNL     1      -4.855   3.459  23.978  0.00  0.00    +0.117 C 
ATOM     15  C   UNL     1      -2.408   2.996  23.722  0.00  0.00    +0.027 A 
ATOM     16  C   UNL     1      -2.107   2.283  22.623  0.00  0.00    +0.024 A 
ATOM     17  C   UNL     1      -0.797   1.707  25.054  0.00  0.00    +0.273 A 
ATOM     18  C   UNL     1      -5.433   1.724  25.744  0.00  0.00    +0.253 C 
ATOM     19  C   UNL     1      -0.507   0.921  23.812  0.00  0.00    +0.099 A 
ATOM     20  C   UNL     1      -1.137   1.226  22.673  0.00  0.00    +0.030 A 
ENDROOT
BRANCH  19   8
ATOM      4  O   UNL     1       2.225   1.048  22.966  0.00  0.00    -0.275 OA
ATOM      8  N   UNL     1       0.411  -0.083  23.891  0.00  0.00    -0.281 N 
ATOM     22  C   UNL     1       1.727   0.040  23.461  0.00  0.00    +0.220 C 
ATOM     32  H   UNL     1       0.054  -1.019  24.067  0.00  0.00    +0.155 HD
BRANCH  22  23
ATOM     23  C   UNL     1       2.505  -1.250  23.680  0.00  0.00    +0.124 C 
BRANCH  23  25
ATOM     25  C   UNL     1       3.909  -1.203  23.098  0.00  0.00    +0.168 C 
BRANCH  25   5
ATOM      5  O   UNL     1       4.853  -1.058  24.152  0.00  0.00    -0.382 OA
ATOM     31  C   UNL     1       5.549   0.177  24.061  0.00  0.00    +0.194 C 
ENDBRANCH  25   5
ENDBRANCH  23  25
ENDBRANCH  22  23
ENDBRANCH  19   8
BRANCH  18  21
ATOM     21  C   UNL     1      -5.944   0.832  24.642  0.00  0.00    +0.324 C 
BRANCH  21   3
ATOM      3  O   UNL     1      -4.822   0.427  23.897  0.00  0.00    -0.483 OA
BRANCH   3  24
ATOM     24  C   UNL     1      -4.140  -0.687  24.335  0.00  0.00    +0.121 A 
ATOM     26  C   UNL     1      -3.236  -0.581  25.392  0.00  0.00    +0.045 A 
ATOM     27  C   UNL     1      -4.355  -1.921  23.722  0.00  0.00    +0.045 A 
ATOM     28  C   UNL     1      -2.545  -1.709  25.834  0.00  0.00    +0.004 A 
ATOM     29  C   UNL     1      -3.665  -3.049  24.165  0.00  0.00    +0.004 A 
ATOM     30  C   UNL     1      -2.760  -2.943  25.221  0.00  0.00    +0.000 A 
ENDBRANCH   3  24
ENDBRANCH  21   3
ENDBRANCH  18  21
TORSDOF 7
ENDMDL
MODEL 3
REMARK VINA RESULT:      -0.7      1.969      4.310
REMARK  Name = 11884386
REMARK  8 active torsions:
REMARK  status: ('A' for Active; 'I' for Inactive)
REMARK    1  A    between atoms: O_3  and  C_21
REMARK    2  A    between atoms: O_3  and  C_24
REMARK    3  A    between atoms: O_5  and  C_25
REMARK    4  A    between atoms: O_5  and  C_31
REMARK    5  A    between atoms: N_8  and  C_19
REMARK    6  A    between atoms: C_18  and  C_21
REMARK    7  A    between atoms: C_22  and  C_23
REMARK    8  A    between atoms: C_23  and  C_25
REMARK                            x       y       z     vdW  Elec       q    Type
REMARK                         _______ _______ _______ _____ _____    ______ ____
ROOT
ATOM      1  O   UNL     1      -0.776   0.401  22.254  0.00  0.00    -0.266 OA
ATOM      2  O   UNL     1      -5.327   2.508  24.130  0.00  0.00    -0.272 OA
ATOM      6  N   UNL     1      -4.834   0.512  25.213  0.00  0.00    -0.298 N 
ATOM      7  N   UNL     1      -2.021  -0.452  24.038  0.00  0.00    -0.310 N 
ATOM      9  C   UNL     1      -4.359  -1.451  23.742  0.00  0.00    +0.027 C 
ATOM     10  C   UNL     1      -3.356  -1.335  25.984  0.00  0.00    +0.054 C 
ATOM     11  C   UNL     1      -4.011  -2.276  24.975  0.00  0.00    +0.018 C 
ATOM     12  C   UNL     1      -5.330  -0.314  24.110  0.00  0.00    +0.113 C 
ATOM     13  C   UNL     1      -3.063  -0.922  23.116  0.00  0.00    +0.130 C 
ATOM     14  C   UNL     1      -4.355  -0.232  26.387  0.00  0.00    +0.117 C 
ATOM     15  C   UNL     1      -2.100  -0.707  25.411  0.00  0.00    +0.027 A 
ATOM     16  C   UNL     1      -1.081  -0.371  26.220  0.00  0.00    +0.024 A 
ATOM     17  C   UNL     1      -0.897   0.172  23.459  0.00  0.00    +0.273 A 
ATOM     18  C   UNL     1      -4.922   1.902  25.125  0.00  0.00    +0.253 C 
ATOM     19  C   UNL     1       0.205   0.553  24.398  0.00  0.00    +0.099 A 
ATOM     20  C   UNL     1       0.093   0.272  25.700  0.00  0.00    +0.030 A 
ENDROOT
BRANCH  19   8
ATOM      4  O   UNL     1       2.277  -0.682  22.855  0.00  0.00    -0.275 OA
ATOM      8  N   UNL     1       1.304   1.170  23.878  0.00  0.00    -0.281 N 
ATOM     22  C   UNL     1       2.279   0.514  23.135  0.00  0.00    +0.220 C 
ATOM     32  H   UNL     1       1.523   2.096  24.237  0.00  0.00    +0.155 HD
BRANCH  22  23
ATOM     23  C   UNL     1       3.377   1.470  22.695  0.00  0.00    +0.124 C 
BRANCH  23  25
ATOM     25  C   UNL     1       4.762   0.842  22.735  0.00  0.00    +0.168 C 
BRANCH  25   5
ATOM      5  O   UNL     1       5.136   0.609  24.086  0.00  0.00    -0.382 OA
ATOM     31  C   UNL     1       5.565  -0.731  24.284  0.00  0.00    +0.194 C 
ENDBRANCH  25   5
ENDBRANCH  23  25
ENDBRANCH  22  23
ENDBRANCH  19   8
BRANCH  18  21
ATOM     21  C   UNL     1      -4.481   2.685  26.335  0.00  0.00    +0.324 C 
BRANCH  21   3
ATOM      3  O   UNL     1      -4.162   3.978  25.885  0.00  0.00    -0.483 OA
BRANCH   3  24
ATOM     24  C   UNL     1      -2.846   4.232  25.568  0.00  0.00    +0.121 A 
ATOM     26  C   UNL     1      -2.488   5.457  25.005  0.00  0.00    +0.045 A 
ATOM     27  C   UNL     1      -1.871   3.265  25.812  0.00  0.00    +0.045 A 
ATOM     28  C   UNL     1      -1.154   5.713  24.684  0.00  0.00    +0.004 A 
ATOM     29  C   UNL     1      -0.539   3.521  25.491  0.00  0.00    +0.004 A 
ATOM     30  C   UNL     1      -0.180   4.746  24.927  0.00  0.00    +0.000 A 
ENDBRANCH   3  24
ENDBRANCH  21   3
ENDBRANCH  18  21
TORSDOF 7
ENDMDL
