MODEL 1
REMARK VINA RESULT:      -4.5      0.000      0.000
REMARK  Name = 40481380
REMARK  6 active torsions:
REMARK  status: ('A' for Active; 'I' for Inactive)
REMARK    1  A    between atoms: O_3  and  C_10
REMARK    2  A    between atoms: O_3  and  C_13
REMARK    3  A    between atoms: N_5  and  C_9
REMARK    4  A    between atoms: N_6  and  C_16
REMARK    5  A    between atoms: C_13  and  C_15
REMARK    6  A    between atoms: C_16  and  C_19
REMARK                            x       y       z     vdW  Elec       q    Type
REMARK                         _______ _______ _______ _____ _____    ______ ____
ROOT
ATOM      1  O   UNL     1      -2.122   0.740  25.287  0.00  0.00    -0.369 OA
ATOM      2  O   UNL     1      -3.877  -1.775  25.315  0.00  0.00    -0.369 OA
ATOM      7  C   UNL     1      -2.903  -1.299  24.362  0.00  0.00    +0.172 C 
ATOM      8  C   UNL     1      -3.036   0.210  24.313  0.00  0.00    +0.180 C 
ATOM      9  C   UNL     1      -1.506  -1.522  24.893  0.00  0.00    +0.131 C 
ATOM     10  C   UNL     1      -4.474   0.423  24.722  0.00  0.00    +0.175 C 
ATOM     11  C   UNL     1      -1.315  -0.327  25.810  0.00  0.00    +0.185 C 
ATOM     12  C   UNL     1      -4.680  -0.667  25.748  0.00  0.00    +0.194 C 
ENDROOT
BRANCH   9   5
ATOM      4  O   UNL     1       0.434   0.530  24.300  0.00  0.00    -0.253 OA
ATOM      5  N   UNL     1      -0.535  -1.525  23.826  0.00  0.00    -0.292 N 
ATOM      6  N   UNL     1       1.191  -0.748  22.518  0.00  0.00    -0.295 N 
ATOM     14  C   UNL     1       0.370  -0.486  23.612  0.00  0.00    +0.300 C 
ATOM     28  H   UNL     1      -0.461  -2.353  23.241  0.00  0.00    +0.151 HD
ATOM     29  H   UNL     1       1.080  -1.627  22.023  0.00  0.00    +0.151 HD
BRANCH   6  16
ATOM     16  C   UNL     1       2.219   0.166  22.075  0.00  0.00    +0.141 C 
BRANCH  16  19
ATOM     19  C   UNL     1       3.506  -0.033  22.821  0.00  0.00    -0.030 A 
ATOM     23  C   UNL     1       4.418   1.016  22.931  0.00  0.00    +0.005 A 
ATOM     24  C   UNL     1       3.792  -1.269  23.402  0.00  0.00    +0.005 A 
ATOM     25  C   UNL     1       5.615   0.830  23.623  0.00  0.00    +0.000 A 
ATOM     26  C   UNL     1       4.989  -1.455  24.094  0.00  0.00    +0.000 A 
ATOM     27  C   UNL     1       5.901  -0.405  24.204  0.00  0.00    +0.000 A 
ENDBRANCH  16  19
ENDBRANCH   6  16
ENDBRANCH   9   5
BRANCH  10   3
ATOM      3  O   UNL     1      -4.725   1.706  25.251  0.00  0.00    -0.367 OA
BRANCH   3  13
ATOM     13  C   UNL     1      -4.569   2.728  24.271  0.00  0.00    +0.195 C 
BRANCH  13  15
ATOM     15  C   UNL     1      -3.256   3.420  24.489  0.00  0.00    -0.022 A 
ATOM     17  C   UNL     1      -2.174   3.144  23.652  0.00  0.00    +0.006 A 
ATOM     18  C   UNL     1      -3.117   4.342  25.527  0.00  0.00    +0.006 A 
ATOM     20  C   UNL     1      -0.953   3.788  23.855  0.00  0.00    +0.000 A 
ATOM     21  C   UNL     1      -1.896   4.985  25.729  0.00  0.00    +0.000 A 
ATOM     22  C   UNL     1      -0.815   4.708  24.893  0.00  0.00    +0.000 A 
ENDBRANCH  13  15
ENDBRANCH   3  13
ENDBRANCH  10   3
TORSDOF 6
ENDMDL
MODEL 2
REMARK VINA RESULT:      -4.5      0.935      1.261
REMARK  Name = 40481380
REMARK  6 active torsions:
REMARK  status: ('A' for Active; 'I' for Inactive)
REMARK    1  A    between atoms: O_3  and  C_10
REMARK    2  A    between atoms: O_3  and  C_13
REMARK    3  A    between atoms: N_5  and  C_9
REMARK    4  A    between atoms: N_6  and  C_16
REMARK    5  A    between atoms: C_13  and  C_15
REMARK    6  A    between atoms: C_16  and  C_19
REMARK                            x       y       z     vdW  Elec       q    Type
REMARK                         _______ _______ _______ _____ _____    ______ ____
ROOT
ATOM      1  O   UNL     1      -2.677   1.421  24.327  0.00  0.00    -0.369 OA
ATOM      2  O   UNL     1      -3.717  -0.947  25.976  0.00  0.00    -0.369 OA
ATOM      7  C   UNL     1      -2.927  -0.895  24.769  0.00  0.00    +0.172 C 
ATOM      8  C   UNL     1      -3.449   0.268  23.951  0.00  0.00    +0.180 C 
ATOM      9  C   UNL     1      -1.506  -0.500  25.096  0.00  0.00    +0.131 C 
ATOM     10  C   UNL     1      -4.881   0.377  24.417  0.00  0.00    +0.175 C 
ATOM     11  C   UNL     1      -1.608   1.013  25.193  0.00  0.00    +0.185 C 
ATOM     12  C   UNL     1      -4.768   0.026  25.883  0.00  0.00    +0.194 C 
ENDROOT
BRANCH   9   5
ATOM      4  O   UNL     1       0.651   1.058  23.978  0.00  0.00    -0.253 OA
ATOM      5  N   UNL     1      -0.597  -0.898  24.050  0.00  0.00    -0.292 N 
ATOM      6  N   UNL     1       1.148  -0.711  22.562  0.00  0.00    -0.295 N 
ATOM     14  C   UNL     1       0.422  -0.078  23.568  0.00  0.00    +0.300 C 
ATOM     28  H   UNL     1      -0.659  -1.846  23.690  0.00  0.00    +0.151 HD
ATOM     29  H   UNL     1       0.900  -1.661  22.304  0.00  0.00    +0.151 HD
BRANCH   6  16
ATOM     16  C   UNL     1       2.262  -0.083  21.888  0.00  0.00    +0.141 C 
BRANCH  16  19
ATOM     19  C   UNL     1       3.519  -0.145  22.706  0.00  0.00    -0.030 A 
ATOM     23  C   UNL     1       4.340   0.977  22.809  0.00  0.00    +0.005 A 
ATOM     24  C   UNL     1       3.867  -1.326  23.363  0.00  0.00    +0.005 A 
ATOM     25  C   UNL     1       5.510   0.919  23.567  0.00  0.00    +0.000 A 
ATOM     26  C   UNL     1       5.036  -1.384  24.122  0.00  0.00    +0.000 A 
ATOM     27  C   UNL     1       5.857  -0.261  24.224  0.00  0.00    +0.000 A 
ENDBRANCH  16  19
ENDBRANCH   6  16
ENDBRANCH   9   5
BRANCH  10   3
ATOM      3  O   UNL     1      -5.442   1.656  24.219  0.00  0.00    -0.367 OA
BRANCH   3  13
ATOM     13  C   UNL     1      -5.439   2.431  25.415  0.00  0.00    +0.195 C 
BRANCH  13  15
ATOM     15  C   UNL     1      -4.278   3.380  25.382  0.00  0.00    -0.022 A 
ATOM     17  C   UNL     1      -3.560   3.645  26.549  0.00  0.00    +0.006 A 
ATOM     18  C   UNL     1      -3.913   3.995  24.184  0.00  0.00    +0.006 A 
ATOM     20  C   UNL     1      -2.480   4.527  26.517  0.00  0.00    +0.000 A 
ATOM     21  C   UNL     1      -2.833   4.877  24.154  0.00  0.00    +0.000 A 
ATOM     22  C   UNL     1      -2.117   5.143  25.320  0.00  0.00    +0.000 A 
ENDBRANCH  13  15
ENDBRANCH   3  13
ENDBRANCH  10   3
TORSDOF 6
ENDMDL
MODEL 3
REMARK VINA RESULT:      -3.6      1.674      4.007
REMARK  Name = 40481380
REMARK  6 active torsions:
REMARK  status: ('A' for Active; 'I' for Inactive)
REMARK    1  A    between atoms: O_3  and  C_10
REMARK    2  A    between atoms: O_3  and  C_13
REMARK    3  A    between atoms: N_5  and  C_9
REMARK    4  A    between atoms: N_6  and  C_16
REMARK    5  A    between atoms: C_13  and  C_15
REMARK    6  A    between atoms: C_16  and  C_19
REMARK                            x       y       z     vdW  Elec       q    Type
REMARK                         _______ _______ _______ _____ _____    ______ ____
ROOT
ATOM      1  O   UNL     1      -2.852   2.577  23.693  0.00  0.00    -0.369 OA
ATOM      2  O   UNL     1      -2.874   4.437  26.131  0.00  0.00    -0.369 OA
ATOM      7  C   UNL     1      -1.954   3.401  25.726  0.00  0.00    +0.172 C 
ATOM      8  C   UNL     1      -2.782   2.297  25.101  0.00  0.00    +0.180 C 
ATOM      9  C   UNL     1      -1.087   3.892  24.591  0.00  0.00    +0.131 C 
ATOM     10  C   UNL     1      -4.122   2.473  25.774  0.00  0.00    +0.175 C 
ATOM     11  C   UNL     1      -1.986   3.680  23.385  0.00  0.00    +0.185 C 
ATOM     12  C   UNL     1      -4.215   3.976  25.912  0.00  0.00    +0.194 C 
ENDROOT
BRANCH   9   5
ATOM      4  O   UNL     1      -0.658   1.546  22.966  0.00  0.00    -0.253 OA
ATOM      5  N   UNL     1       0.125   3.118  24.484  0.00  0.00    -0.292 N 
ATOM      6  N   UNL     1       1.520   1.439  23.757  0.00  0.00    -0.295 N 
ATOM     14  C   UNL     1       0.245   1.993  23.670  0.00  0.00    +0.300 C 
ATOM     28  H   UNL     1       0.953   3.444  24.976  0.00  0.00    +0.151 HD
ATOM     29  H   UNL     1       2.210   1.891  24.349  0.00  0.00    +0.151 HD
BRANCH   6  16
ATOM     16  C   UNL     1       1.915   0.264  23.015  0.00  0.00    +0.141 C 
BRANCH  16  19
ATOM     19  C   UNL     1       3.345  -0.111  23.276  0.00  0.00    -0.030 A 
ATOM     23  C   UNL     1       3.660  -1.397  23.713  0.00  0.00    +0.005 A 
ATOM     24  C   UNL     1       4.359   0.828  23.082  0.00  0.00    +0.005 A 
ATOM     25  C   UNL     1       4.989  -1.745  23.957  0.00  0.00    +0.000 A 
ATOM     26  C   UNL     1       5.688   0.479  23.326  0.00  0.00    +0.000 A 
ATOM     27  C   UNL     1       6.002  -0.807  23.764  0.00  0.00    +0.000 A 
ENDBRANCH  16  19
ENDBRANCH   6  16
ENDBRANCH   9   5
BRANCH  10   3
ATOM      3  O   UNL     1      -5.198   1.940  25.035  0.00  0.00    -0.367 OA
BRANCH   3  13
ATOM     13  C   UNL     1      -5.629   0.683  25.551  0.00  0.00    +0.195 C 
BRANCH  13  15
ATOM     15  C   UNL     1      -4.624  -0.369  25.183  0.00  0.00    -0.022 A 
ATOM     17  C   UNL     1      -4.594  -0.881  23.886  0.00  0.00    +0.006 A 
ATOM     18  C   UNL     1      -3.719  -0.833  26.138  0.00  0.00    +0.006 A 
ATOM     20  C   UNL     1      -3.659  -1.859  23.544  0.00  0.00    +0.000 A 
ATOM     21  C   UNL     1      -2.785  -1.811  25.795  0.00  0.00    +0.000 A 
ATOM     22  C   UNL     1      -2.755  -2.323  24.499  0.00  0.00    +0.000 A 
ENDBRANCH  13  15
ENDBRANCH   3  13
ENDBRANCH  10   3
TORSDOF 6
ENDMDL
MODEL 4
REMARK VINA RESULT:      -3.0      1.869      6.773
REMARK  Name = 40481380
REMARK  6 active torsions:
REMARK  status: ('A' for Active; 'I' for Inactive)
REMARK    1  A    between atoms: O_3  and  C_10
REMARK    2  A    between atoms: O_3  and  C_13
REMARK    3  A    between atoms: N_5  and  C_9
REMARK    4  A    between atoms: N_6  and  C_16
REMARK    5  A    between atoms: C_13  and  C_15
REMARK    6  A    between atoms: C_16  and  C_19
REMARK                            x       y       z     vdW  Elec       q    Type
REMARK                         _______ _______ _______ _____ _____    ______ ____
ROOT
ATOM      1  O   UNL     1      -2.126  -1.588  23.509  0.00  0.00    -0.369 OA
ATOM      2  O   UNL     1      -0.905  -1.649  26.321  0.00  0.00    -0.369 OA
ATOM      7  C   UNL     1      -1.926  -0.811  25.739  0.00  0.00    +0.172 C 
ATOM      8  C   UNL     1      -1.519  -0.556  24.303  0.00  0.00    +0.180 C 
ATOM      9  C   UNL     1      -3.221  -1.580  25.618  0.00  0.00    +0.131 C 
ATOM     10  C   UNL     1      -0.017  -0.702  24.358  0.00  0.00    +0.175 C 
ATOM     11  C   UNL     1      -3.013  -2.360  24.332  0.00  0.00    +0.185 C 
ATOM     12  C   UNL     1       0.159  -1.810  25.371  0.00  0.00    +0.194 C 
ENDROOT
BRANCH   9   5
ATOM      4  O   UNL     1      -3.167   1.231  24.966  0.00  0.00    -0.253 OA
ATOM      5  N   UNL     1      -4.351  -0.689  25.514  0.00  0.00    -0.292 N 
ATOM      6  N   UNL     1      -5.478   1.286  25.159  0.00  0.00    -0.295 N 
ATOM     14  C   UNL     1      -4.233   0.662  25.192  0.00  0.00    +0.300 C 
ATOM     28  H   UNL     1      -5.285  -1.077  25.617  0.00  0.00    +0.151 HD
ATOM     29  H   UNL     1      -6.308   0.729  25.338  0.00  0.00    +0.151 HD
BRANCH   6  16
ATOM     16  C   UNL     1      -5.643   2.687  24.851  0.00  0.00    +0.141 C 
BRANCH  16  19
ATOM     19  C   UNL     1      -4.363   3.453  25.021  0.00  0.00    -0.030 A 
ATOM     23  C   UNL     1      -3.917   3.791  26.298  0.00  0.00    +0.005 A 
ATOM     24  C   UNL     1      -3.620   3.829  23.901  0.00  0.00    +0.005 A 
ATOM     25  C   UNL     1      -2.728   4.504  26.456  0.00  0.00    +0.000 A 
ATOM     26  C   UNL     1      -2.432   4.541  24.058  0.00  0.00    +0.000 A 
ATOM     27  C   UNL     1      -1.986   4.879  25.336  0.00  0.00    +0.000 A 
ENDBRANCH  16  19
ENDBRANCH   6  16
ENDBRANCH   9   5
BRANCH  10   3
ATOM      3  O   UNL     1       0.564  -1.022  23.114  0.00  0.00    -0.367 OA
BRANCH   3  13
ATOM     13  C   UNL     1       1.300   0.071  22.572  0.00  0.00    +0.195 C 
BRANCH  13  15
ATOM     15  C   UNL     1       2.742  -0.067  22.964  0.00  0.00    -0.022 A 
ATOM     17  C   UNL     1       3.612   1.013  22.811  0.00  0.00    +0.006 A 
ATOM     18  C   UNL     1       3.211  -1.273  23.483  0.00  0.00    +0.006 A 
ATOM     20  C   UNL     1       4.953   0.885  23.176  0.00  0.00    +0.000 A 
ATOM     21  C   UNL     1       4.552  -1.400  23.848  0.00  0.00    +0.000 A 
ATOM     22  C   UNL     1       5.422  -0.322  23.695  0.00  0.00    +0.000 A 
ENDBRANCH  13  15
ENDBRANCH   3  13
ENDBRANCH  10   3
TORSDOF 6
ENDMDL
MODEL 5
REMARK VINA RESULT:      -2.5      2.597      7.386
REMARK  Name = 40481380
REMARK  6 active torsions:
REMARK  status: ('A' for Active; 'I' for Inactive)
REMARK    1  A    between atoms: O_3  and  C_10
REMARK    2  A    between atoms: O_3  and  C_13
REMARK    3  A    between atoms: N_5  and  C_9
REMARK    4  A    between atoms: N_6  and  C_16
REMARK    5  A    between atoms: C_13  and  C_15
REMARK    6  A    between atoms: C_16  and  C_19
REMARK                            x       y       z     vdW  Elec       q    Type
REMARK                         _______ _______ _______ _____ _____    ______ ____
ROOT
ATOM      1  O   UNL     1      -0.251   1.051  25.541  0.00  0.00    -0.369 OA
ATOM      2  O   UNL     1       1.846   1.606  23.374  0.00  0.00    -0.369 OA
ATOM      7  C   UNL     1       0.504   2.104  23.556  0.00  0.00    +0.172 C 
ATOM      8  C   UNL     1      -0.319   0.959  24.108  0.00  0.00    +0.180 C 
ATOM      9  C   UNL     1       0.478   3.135  24.660  0.00  0.00    +0.131 C 
ATOM     10  C   UNL     1       0.419  -0.253  23.591  0.00  0.00    +0.175 C 
ATOM     11  C   UNL     1       0.414   2.269  25.906  0.00  0.00    +0.185 C 
ATOM     12  C   UNL     1       1.860   0.199  23.656  0.00  0.00    +0.194 C 
ENDROOT
BRANCH   9   5
ATOM      4  O   UNL     1      -1.932   3.001  26.241  0.00  0.00    -0.253 OA
ATOM      5  N   UNL     1      -0.680   3.988  24.553  0.00  0.00    -0.292 N 
ATOM      6  N   UNL     1      -2.774   4.804  25.048  0.00  0.00    -0.295 N 
ATOM     14  C   UNL     1      -1.807   3.852  25.363  0.00  0.00    +0.300 C 
ATOM     28  H   UNL     1      -0.649   4.767  23.902  0.00  0.00    +0.151 HD
ATOM     29  H   UNL     1      -2.572   5.483  24.320  0.00  0.00    +0.151 HD
BRANCH   6  16
ATOM     16  C   UNL     1      -4.042   4.887  25.735  0.00  0.00    +0.141 C 
BRANCH  16  19
ATOM     19  C   UNL     1      -4.861   3.643  25.552  0.00  0.00    -0.030 A 
ATOM     23  C   UNL     1      -5.624   3.149  26.610  0.00  0.00    +0.005 A 
ATOM     24  C   UNL     1      -4.859   2.980  24.325  0.00  0.00    +0.005 A 
ATOM     25  C   UNL     1      -6.385   1.992  26.441  0.00  0.00    +0.000 A 
ATOM     26  C   UNL     1      -5.620   1.822  24.156  0.00  0.00    +0.000 A 
ATOM     27  C   UNL     1      -6.383   1.329  25.214  0.00  0.00    +0.000 A 
ENDBRANCH  16  19
ENDBRANCH   6  16
ENDBRANCH   9   5
BRANCH  10   3
ATOM      3  O   UNL     1       0.192  -1.418  24.351  0.00  0.00    -0.367 OA
BRANCH   3  13
ATOM     13  C   UNL     1      -0.807  -1.219  25.349  0.00  0.00    +0.195 C 
BRANCH  13  15
ATOM     15  C   UNL     1      -2.135  -1.657  24.808  0.00  0.00    -0.022 A 
ATOM     17  C   UNL     1      -3.144  -0.719  24.589  0.00  0.00    +0.006 A 
ATOM     18  C   UNL     1      -2.361  -3.004  24.521  0.00  0.00    +0.006 A 
ATOM     20  C   UNL     1      -4.379  -1.127  24.086  0.00  0.00    +0.000 A 
ATOM     21  C   UNL     1      -3.596  -3.411  24.017  0.00  0.00    +0.000 A 
ATOM     22  C   UNL     1      -4.605  -2.473  23.800  0.00  0.00    +0.000 A 
ENDBRANCH  13  15
ENDBRANCH   3  13
ENDBRANCH  10   3
TORSDOF 6
ENDMDL
MODEL 6
REMARK VINA RESULT:      -2.4      2.981      5.596
REMARK  Name = 40481380
REMARK  6 active torsions:
REMARK  status: ('A' for Active; 'I' for Inactive)
REMARK    1  A    between atoms: O_3  and  C_10
REMARK    2  A    between atoms: O_3  and  C_13
REMARK    3  A    between atoms: N_5  and  C_9
REMARK    4  A    between atoms: N_6  and  C_16
REMARK    5  A    between atoms: C_13  and  C_15
REMARK    6  A    between atoms: C_16  and  C_19
REMARK                            x       y       z     vdW  Elec       q    Type
REMARK                         _______ _______ _______ _____ _____    ______ ____
ROOT
ATOM      1  O   UNL     1      -1.919   2.800  23.887  0.00  0.00    -0.369 OA
ATOM      2  O   UNL     1      -0.011   4.825  25.174  0.00  0.00    -0.369 OA
ATOM      7  C   UNL     1      -0.374   3.480  25.551  0.00  0.00    +0.172 C 
ATOM      8  C   UNL     1      -1.845   3.315  25.226  0.00  0.00    +0.180 C 
ATOM      9  C   UNL     1       0.311   2.484  24.646  0.00  0.00    +0.131 C 
ATOM     10  C   UNL     1      -2.358   4.733  25.309  0.00  0.00    +0.175 C 
ATOM     11  C   UNL     1      -0.597   2.478  23.429  0.00  0.00    +0.185 C 
ATOM     12  C   UNL     1      -1.193   5.527  24.765  0.00  0.00    +0.194 C 
ENDROOT
BRANCH   9   5
ATOM      4  O   UNL     1      -0.741   0.012  23.592  0.00  0.00    -0.253 OA
ATOM      5  N   UNL     1       0.379   1.180  25.257  0.00  0.00    -0.292 N 
ATOM      6  N   UNL     1       0.048  -1.087  25.477  0.00  0.00    -0.295 N 
ATOM     14  C   UNL     1      -0.159   0.033  24.675  0.00  0.00    +0.300 C 
ATOM     28  H   UNL     1       0.899   1.078  26.124  0.00  0.00    +0.151 HD
ATOM     29  H   UNL     1       0.560  -0.977  26.347  0.00  0.00    +0.151 HD
BRANCH   6  16
ATOM     16  C   UNL     1      -0.410  -2.407  25.110  0.00  0.00    +0.141 C 
BRANCH  16  19
ATOM     19  C   UNL     1      -1.866  -2.415  24.746  0.00  0.00    -0.030 A 
ATOM     23  C   UNL     1      -2.753  -1.561  25.401  0.00  0.00    +0.005 A 
ATOM     24  C   UNL     1      -2.333  -3.277  23.754  0.00  0.00    +0.005 A 
ATOM     25  C   UNL     1      -4.107  -1.569  25.064  0.00  0.00    +0.000 A 
ATOM     26  C   UNL     1      -3.687  -3.286  23.417  0.00  0.00    +0.000 A 
ATOM     27  C   UNL     1      -4.574  -2.431  24.073  0.00  0.00    +0.000 A 
ENDBRANCH  16  19
ENDBRANCH   6  16
ENDBRANCH   9   5
BRANCH  10   3
ATOM      3  O   UNL     1      -3.540   4.948  24.570  0.00  0.00    -0.367 OA
BRANCH   3  13
ATOM     13  C   UNL     1      -4.704   4.862  25.388  0.00  0.00    +0.195 C 
BRANCH  13  15
ATOM     15  C   UNL     1      -5.200   3.446  25.387  0.00  0.00    -0.022 A 
ATOM     17  C   UNL     1      -4.961   2.624  24.286  0.00  0.00    +0.006 A 
ATOM     18  C   UNL     1      -5.899   2.951  26.489  0.00  0.00    +0.006 A 
ATOM     20  C   UNL     1      -5.423   1.307  24.286  0.00  0.00    +0.000 A 
ATOM     21  C   UNL     1      -6.360   1.635  26.488  0.00  0.00    +0.000 A 
ATOM     22  C   UNL     1      -6.122   0.813  25.386  0.00  0.00    +0.000 A 
ENDBRANCH  13  15
ENDBRANCH   3  13
ENDBRANCH  10   3
TORSDOF 6
ENDMDL
MODEL 7
REMARK VINA RESULT:      -1.3      1.808      3.893
REMARK  Name = 40481380
REMARK  6 active torsions:
REMARK  status: ('A' for Active; 'I' for Inactive)
REMARK    1  A    between atoms: O_3  and  C_10
REMARK    2  A    between atoms: O_3  and  C_13
REMARK    3  A    between atoms: N_5  and  C_9
REMARK    4  A    between atoms: N_6  and  C_16
REMARK    5  A    between atoms: C_13  and  C_15
REMARK    6  A    between atoms: C_16  and  C_19
REMARK                            x       y       z     vdW  Elec       q    Type
REMARK                         _______ _______ _______ _____ _____    ______ ____
ROOT
ATOM      1  O   UNL     1      -2.827   3.082  24.020  0.00  0.00    -0.369 OA
ATOM      2  O   UNL     1      -2.704   4.714  26.613  0.00  0.00    -0.369 OA
ATOM      7  C   UNL     1      -1.982   3.540  26.187  0.00  0.00    +0.172 C 
ATOM      8  C   UNL     1      -2.955   2.689  25.396  0.00  0.00    +0.180 C 
ATOM      9  C   UNL     1      -0.926   3.918  25.176  0.00  0.00    +0.131 C 
ATOM     10  C   UNL     1      -4.289   3.096  25.973  0.00  0.00    +0.175 C 
ATOM     11  C   UNL     1      -1.726   3.994  23.888  0.00  0.00    +0.185 C 
ATOM     12  C   UNL     1      -4.084   4.569  26.244  0.00  0.00    +0.194 C 
ENDROOT
BRANCH   9   5
ATOM      4  O   UNL     1      -0.189   2.366  22.858  0.00  0.00    -0.253 OA
ATOM      5  N   UNL     1       0.106   2.913  25.094  0.00  0.00    -0.292 N 
ATOM      6  N   UNL     1       1.434   1.301  24.128  0.00  0.00    -0.295 N 
ATOM     14  C   UNL     1       0.396   2.208  23.927  0.00  0.00    +0.300 C 
ATOM     28  H   UNL     1       0.693   2.755  25.908  0.00  0.00    +0.151 HD
ATOM     29  H   UNL     1       1.873   1.257  25.042  0.00  0.00    +0.151 HD
BRANCH   6  16
ATOM     16  C   UNL     1       1.935   0.441  23.081  0.00  0.00    +0.141 C 
BRANCH  16  19
ATOM     19  C   UNL     1       3.378   0.086  23.290  0.00  0.00    -0.030 A 
ATOM     23  C   UNL     1       4.374   1.024  23.015  0.00  0.00    +0.005 A 
ATOM     24  C   UNL     1       3.725  -1.182  23.757  0.00  0.00    +0.005 A 
ATOM     25  C   UNL     1       5.715   0.694  23.207  0.00  0.00    +0.000 A 
ATOM     26  C   UNL     1       5.067  -1.512  23.949  0.00  0.00    +0.000 A 
ATOM     27  C   UNL     1       6.062  -0.574  23.674  0.00  0.00    +0.000 A 
ENDBRANCH  16  19
ENDBRANCH   6  16
ENDBRANCH   9   5
BRANCH  10   3
ATOM      3  O   UNL     1      -5.374   2.862  25.104  0.00  0.00    -0.367 OA
BRANCH   3  13
ATOM     13  C   UNL     1      -6.000   1.607  25.358  0.00  0.00    +0.195 C 
BRANCH  13  15
ATOM     15  C   UNL     1      -5.060   0.504  24.973  0.00  0.00    -0.022 A 
ATOM     17  C   UNL     1      -4.661  -0.436  25.924  0.00  0.00    +0.006 A 
ATOM     18  C   UNL     1      -4.587   0.414  23.664  0.00  0.00    +0.006 A 
ATOM     20  C   UNL     1      -3.787  -1.462  25.567  0.00  0.00    +0.000 A 
ATOM     21  C   UNL     1      -3.713  -0.612  23.307  0.00  0.00    +0.000 A 
ATOM     22  C   UNL     1      -3.313  -1.550  24.258  0.00  0.00    +0.000 A 
ENDBRANCH  13  15
ENDBRANCH   3  13
ENDBRANCH  10   3
TORSDOF 6
ENDMDL
MODEL 8
REMARK VINA RESULT:      -1.1      2.339      6.375
REMARK  Name = 40481380
REMARK  6 active torsions:
REMARK  status: ('A' for Active; 'I' for Inactive)
REMARK    1  A    between atoms: O_3  and  C_10
REMARK    2  A    between atoms: O_3  and  C_13
REMARK    3  A    between atoms: N_5  and  C_9
REMARK    4  A    between atoms: N_6  and  C_16
REMARK    5  A    between atoms: C_13  and  C_15
REMARK    6  A    between atoms: C_16  and  C_19
REMARK                            x       y       z     vdW  Elec       q    Type
REMARK                         _______ _______ _______ _____ _____    ______ ____
ROOT
ATOM      1  O   UNL     1      -2.479  -0.229  23.721  0.00  0.00    -0.369 OA
ATOM      2  O   UNL     1      -3.294  -2.872  25.046  0.00  0.00    -0.369 OA
ATOM      7  C   UNL     1      -3.509  -1.500  25.437  0.00  0.00    +0.172 C 
ATOM      8  C   UNL     1      -2.262  -0.731  25.050  0.00  0.00    +0.180 C 
ATOM      9  C   UNL     1      -4.594  -0.882  24.587  0.00  0.00    +0.131 C 
ATOM     10  C   UNL     1      -1.198  -1.802  25.078  0.00  0.00    +0.175 C 
ATOM     11  C   UNL     1      -3.835  -0.491  23.331  0.00  0.00    +0.185 C 
ATOM     12  C   UNL     1      -1.948  -3.011  24.568  0.00  0.00    +0.194 C 
ENDROOT
BRANCH   9   5
ATOM      4  O   UNL     1      -4.033   1.891  24.017  0.00  0.00    -0.253 OA
ATOM      5  N   UNL     1      -5.172   0.272  25.232  0.00  0.00    -0.292 N 
ATOM      6  N   UNL     1      -5.545   2.500  25.668  0.00  0.00    -0.295 N 
ATOM     14  C   UNL     1      -4.842   1.583  24.891  0.00  0.00    +0.300 C 
ATOM     28  H   UNL     1      -5.902   0.126  25.922  0.00  0.00    +0.151 HD
ATOM     29  H   UNL     1      -6.210   2.153  26.352  0.00  0.00    +0.151 HD
BRANCH   6  16
ATOM     16  C   UNL     1      -5.392   3.929  25.522  0.00  0.00    +0.141 C 
BRANCH  16  19
ATOM     19  C   UNL     1      -3.953   4.326  25.364  0.00  0.00    -0.030 A 
ATOM     23  C   UNL     1      -3.563   5.121  24.287  0.00  0.00    +0.005 A 
ATOM     24  C   UNL     1      -3.005   3.899  26.295  0.00  0.00    +0.005 A 
ATOM     25  C   UNL     1      -2.226   5.489  24.139  0.00  0.00    +0.000 A 
ATOM     26  C   UNL     1      -1.667   4.266  26.147  0.00  0.00    +0.000 A 
ATOM     27  C   UNL     1      -1.278   5.061  25.069  0.00  0.00    +0.000 A 
ENDBRANCH  16  19
ENDBRANCH   6  16
ENDBRANCH   9   5
BRANCH  10   3
ATOM      3  O   UNL     1      -0.074  -1.499  24.281  0.00  0.00    -0.367 OA
BRANCH   3  13
ATOM     13  C   UNL     1      -0.054  -0.130  23.884  0.00  0.00    +0.195 C 
BRANCH  13  15
ATOM     15  C   UNL     1       1.242   0.159  23.187  0.00  0.00    -0.022 A 
ATOM     17  C   UNL     1       2.135   1.082  23.732  0.00  0.00    +0.006 A 
ATOM     18  C   UNL     1       1.556  -0.496  21.996  0.00  0.00    +0.006 A 
ATOM     20  C   UNL     1       3.341   1.351  23.084  0.00  0.00    +0.000 A 
ATOM     21  C   UNL     1       2.762  -0.227  21.349  0.00  0.00    +0.000 A 
ATOM     22  C   UNL     1       3.654   0.697  21.893  0.00  0.00    +0.000 A 
ENDBRANCH  13  15
ENDBRANCH   3  13
ENDBRANCH  10   3
TORSDOF 6
ENDMDL
MODEL 9
REMARK VINA RESULT:      -0.8      2.575      4.235
REMARK  Name = 40481380
REMARK  6 active torsions:
REMARK  status: ('A' for Active; 'I' for Inactive)
REMARK    1  A    between atoms: O_3  and  C_10
REMARK    2  A    between atoms: O_3  and  C_13
REMARK    3  A    between atoms: N_5  and  C_9
REMARK    4  A    between atoms: N_6  and  C_16
REMARK    5  A    between atoms: C_13  and  C_15
REMARK    6  A    between atoms: C_16  and  C_19
REMARK                            x       y       z     vdW  Elec       q    Type
REMARK                         _______ _______ _______ _____ _____    ______ ____
ROOT
ATOM      1  O   UNL     1      -2.820  -0.647  25.757  0.00  0.00    -0.369 OA
ATOM      2  O   UNL     1      -2.555  -3.061  23.885  0.00  0.00    -0.369 OA
ATOM      7  C   UNL     1      -1.842  -1.807  23.936  0.00  0.00    +0.172 C 
ATOM      8  C   UNL     1      -2.849  -0.744  24.324  0.00  0.00    +0.180 C 
ATOM      9  C   UNL     1      -0.862  -1.815  25.086  0.00  0.00    +0.131 C 
ATOM     10  C   UNL     1      -4.149  -1.330  23.828  0.00  0.00    +0.175 C 
ATOM     11  C   UNL     1      -1.747  -1.454  26.266  0.00  0.00    +0.185 C 
ATOM     12  C   UNL     1      -3.953  -2.806  24.087  0.00  0.00    +0.194 C 
ENDROOT
BRANCH   9   5
ATOM      4  O   UNL     1      -1.157   0.855  24.032  0.00  0.00    -0.253 OA
ATOM      5  N   UNL     1       0.180  -0.836  24.894  0.00  0.00    -0.292 N 
ATOM      6  N   UNL     1       1.126   1.175  24.297  0.00  0.00    -0.295 N 
ATOM     14  C   UNL     1      -0.053   0.437  24.376  0.00  0.00    +0.300 C 
ATOM     28  H   UNL     1       1.119  -1.060  25.210  0.00  0.00    +0.151 HD
ATOM     29  H   UNL     1       1.989   0.754  24.626  0.00  0.00    +0.151 HD
BRANCH   6  16
ATOM     16  C   UNL     1       1.169   2.529  23.795  0.00  0.00    +0.141 C 
BRANCH  16  19
ATOM     19  C   UNL     1       0.114   3.394  24.423  0.00  0.00    -0.030 A 
ATOM     23  C   UNL     1      -0.548   2.963  25.572  0.00  0.00    +0.005 A 
ATOM     24  C   UNL     1      -0.205   4.628  23.856  0.00  0.00    +0.005 A 
ATOM     25  C   UNL     1      -1.529   3.766  26.154  0.00  0.00    +0.000 A 
ATOM     26  C   UNL     1      -1.186   5.431  24.438  0.00  0.00    +0.000 A 
ATOM     27  C   UNL     1      -1.848   4.999  25.588  0.00  0.00    +0.000 A 
ENDBRANCH  16  19
ENDBRANCH   6  16
ENDBRANCH   9   5
BRANCH  10   3
ATOM      3  O   UNL     1      -5.285  -0.820  24.491  0.00  0.00    -0.367 OA
BRANCH   3  13
ATOM     13  C   UNL     1      -4.932  -0.002  25.603  0.00  0.00    +0.195 C 
BRANCH  13  15
ATOM     15  C   UNL     1      -4.888   1.431  25.163  0.00  0.00    -0.022 A 
ATOM     17  C   UNL     1      -4.185   1.786  24.011  0.00  0.00    +0.006 A 
ATOM     18  C   UNL     1      -5.552   2.410  25.904  0.00  0.00    +0.006 A 
ATOM     20  C   UNL     1      -4.145   3.119  23.602  0.00  0.00    +0.000 A 
ATOM     21  C   UNL     1      -5.511   3.742  25.494  0.00  0.00    +0.000 A 
ATOM     22  C   UNL     1      -4.807   4.097  24.343  0.00  0.00    +0.000 A 
ENDBRANCH  13  15
ENDBRANCH   3  13
ENDBRANCH  10   3
TORSDOF 6
ENDMDL
