MODEL 1
REMARK VINA RESULT:      -3.7      0.000      0.000
REMARK  Name = 75536980
REMARK  5 active torsions:
REMARK  status: ('A' for Active; 'I' for Inactive)
REMARK    1  A    between atoms: O_3  and  C_17
REMARK    2  A    between atoms: O_3  and  C_22
REMARK    3  A    between atoms: N_5  and  C_14
REMARK    4  A    between atoms: C_14  and  C_16
REMARK    5  A    between atoms: C_15  and  C_17
REMARK                            x       y       z     vdW  Elec       q    Type
REMARK                         _______ _______ _______ _____ _____    ______ ____
ROOT
ATOM      1  O   UNL     1      -0.318  -2.083  24.180  0.00  0.00    -0.252 OA
ATOM      2  O   UNL     1      -4.812   2.837  26.191  0.00  0.00    -0.273 OA
ATOM      4  N   UNL     1      -1.238   0.053  24.511  0.00  0.00    -0.278 N 
ATOM      5  N   UNL     1       0.517  -0.148  23.122  0.00  0.00    -0.278 N 
ATOM      6  N   UNL     1      -3.228   1.986  24.721  0.00  0.00    -0.296 N 
ATOM      8  C   UNL     1      -0.912   1.418  24.133  0.00  0.00    +0.112 C 
ATOM      9  C   UNL     1       0.134   1.249  23.033  0.00  0.00    +0.133 C 
ATOM     10  C   UNL     1      -2.172   2.168  23.708  0.00  0.00    +0.132 C 
ATOM     11  C   UNL     1      -2.324  -0.196  25.441  0.00  0.00    +0.128 C 
ATOM     12  C   UNL     1      -3.564   0.585  25.014  0.00  0.00    +0.127 C 
ATOM     13  C   UNL     1      -0.341  -0.878  23.969  0.00  0.00    +0.306 C 
ATOM     15  C   UNL     1      -3.914   3.015  25.365  0.00  0.00    +0.241 C 
ENDROOT
BRANCH   5  14
ATOM     14  C   UNL     1       1.578  -0.705  22.312  0.00  0.00    +0.164 C 
BRANCH  14  16
ATOM      7  N   UNL     1       3.550  -1.378  23.562  0.00  0.00    -0.258 NA
ATOM     16  C   UNL     1       2.936  -0.391  22.871  0.00  0.00    +0.059 A 
ATOM     18  C   UNL     1       3.483   0.865  22.660  0.00  0.00    +0.025 A 
ATOM     19  C   UNL     1       4.742   1.124  23.190  0.00  0.00    +0.003 A 
ATOM     20  C   UNL     1       4.772  -1.090  24.063  0.00  0.00    +0.111 A 
ATOM     21  C   UNL     1       5.405   0.134  23.906  0.00  0.00    +0.020 A 
ENDBRANCH  14  16
ENDBRANCH   5  14
BRANCH  15  17
ATOM     17  C   UNL     1      -3.506   4.422  25.009  0.00  0.00    +0.255 C 
BRANCH  17   3
ATOM      3  O   UNL     1      -2.393   4.734  25.813  0.00  0.00    -0.374 OA
ATOM     22  C   UNL     1      -1.308   5.253  25.047  0.00  0.00    +0.194 C 
ENDBRANCH  17   3
ENDBRANCH  15  17
TORSDOF 4
ENDMDL
MODEL 2
REMARK VINA RESULT:      -3.2     15.751     17.549
REMARK  Name = 75536980
REMARK  5 active torsions:
REMARK  status: ('A' for Active; 'I' for Inactive)
REMARK    1  A    between atoms: O_3  and  C_17
REMARK    2  A    between atoms: O_3  and  C_22
REMARK    3  A    between atoms: N_5  and  C_14
REMARK    4  A    between atoms: C_14  and  C_16
REMARK    5  A    between atoms: C_15  and  C_17
REMARK                            x       y       z     vdW  Elec       q    Type
REMARK                         _______ _______ _______ _____ _____    ______ ____
ROOT
ATOM      1  O   UNL     1      14.975  -5.582  30.227  0.00  0.00    -0.252 OA
ATOM      2  O   UNL     1       8.809  -7.434  32.873  0.00  0.00    -0.273 OA
ATOM      4  N   UNL     1      13.117  -6.923  30.744  0.00  0.00    -0.278 N 
ATOM      5  N   UNL     1      14.950  -7.918  29.909  0.00  0.00    -0.278 N 
ATOM      6  N   UNL     1      11.001  -7.901  32.264  0.00  0.00    -0.296 N 
ATOM      8  C   UNL     1      12.731  -8.312  30.568  0.00  0.00    +0.112 C 
ATOM      9  C   UNL     1      14.040  -9.010  30.207  0.00  0.00    +0.133 C 
ATOM     10  C   UNL     1      12.052  -8.840  31.830  0.00  0.00    +0.132 C 
ATOM     11  C   UNL     1      12.149  -5.965  31.248  0.00  0.00    +0.128 C 
ATOM     12  C   UNL     1      11.463  -6.524  32.492  0.00  0.00    +0.127 C 
ATOM     13  C   UNL     1      14.416  -6.668  30.282  0.00  0.00    +0.306 C 
ATOM     15  C   UNL     1       9.665  -8.233  32.487  0.00  0.00    +0.241 C 
ENDROOT
BRANCH   5  14
ATOM     14  C   UNL     1      16.289  -8.150  29.414  0.00  0.00    +0.164 C 
BRANCH  14  16
ATOM      7  N   UNL     1      16.529  -9.831  27.676  0.00  0.00    -0.258 NA
ATOM     16  C   UNL     1      16.293  -8.530  27.961  0.00  0.00    +0.059 A 
ATOM     18  C   UNL     1      16.060  -7.555  27.004  0.00  0.00    +0.025 A 
ATOM     19  C   UNL     1      16.069  -7.940  25.668  0.00  0.00    +0.003 A 
ATOM     20  C   UNL     1      16.530 -10.167  26.366  0.00  0.00    +0.111 A 
ATOM     21  C   UNL     1      16.308  -9.269  25.334  0.00  0.00    +0.020 A 
ENDBRANCH  14  16
ENDBRANCH   5  14
BRANCH  15  17
ATOM     17  C   UNL     1       9.274  -9.666  32.226  0.00  0.00    +0.255 C 
BRANCH  17   3
ATOM      3  O   UNL     1       7.867  -9.699  32.192  0.00  0.00    -0.374 OA
ATOM     22  C   UNL     1       7.373 -10.243  30.970  0.00  0.00    +0.194 C 
ENDBRANCH  17   3
ENDBRANCH  15  17
TORSDOF 4
ENDMDL
MODEL 3
REMARK VINA RESULT:      -1.7     17.442     19.396
REMARK  Name = 75536980
REMARK  5 active torsions:
REMARK  status: ('A' for Active; 'I' for Inactive)
REMARK    1  A    between atoms: O_3  and  C_17
REMARK    2  A    between atoms: O_3  and  C_22
REMARK    3  A    between atoms: N_5  and  C_14
REMARK    4  A    between atoms: C_14  and  C_16
REMARK    5  A    between atoms: C_15  and  C_17
REMARK                            x       y       z     vdW  Elec       q    Type
REMARK                         _______ _______ _______ _____ _____    ______ ____
ROOT
ATOM      1  O   UNL     1      15.928  -2.948  30.356  0.00  0.00    -0.252 OA
ATOM      2  O   UNL     1      15.796  -9.708  32.007  0.00  0.00    -0.273 OA
ATOM      4  N   UNL     1      16.124  -5.275  30.111  0.00  0.00    -0.278 N 
ATOM      5  N   UNL     1      16.974  -3.959  28.501  0.00  0.00    -0.278 N 
ATOM      6  N   UNL     1      16.685  -7.897  30.857  0.00  0.00    -0.296 N 
ATOM      8  C   UNL     1      16.577  -6.199  29.085  0.00  0.00    +0.112 C 
ATOM      9  C   UNL     1      17.339  -5.308  28.106  0.00  0.00    +0.133 C 
ATOM     10  C   UNL     1      17.405  -7.321  29.706  0.00  0.00    +0.132 C 
ATOM     11  C   UNL     1      15.481  -5.788  31.308  0.00  0.00    +0.128 C 
ATOM     12  C   UNL     1      16.311  -6.926  31.897  0.00  0.00    +0.127 C 
ATOM     13  C   UNL     1      16.292  -3.936  29.733  0.00  0.00    +0.306 C 
ATOM     15  C   UNL     1      16.378  -9.247  31.023  0.00  0.00    +0.241 C 
ENDROOT
BRANCH   5  14
ATOM     14  C   UNL     1      17.405  -2.799  27.752  0.00  0.00    +0.164 C 
BRANCH  14  16
ATOM      7  N   UNL     1      17.366  -4.117  25.711  0.00  0.00    -0.258 NA
ATOM     16  C   UNL     1      17.089  -2.926  26.289  0.00  0.00    +0.059 A 
ATOM     18  C   UNL     1      16.542  -1.845  25.617  0.00  0.00    +0.025 A 
ATOM     19  C   UNL     1      16.260  -1.996  24.263  0.00  0.00    +0.003 A 
ATOM     20  C   UNL     1      17.079  -4.226  24.394  0.00  0.00    +0.111 A 
ATOM     21  C   UNL     1      16.530  -3.205  23.633  0.00  0.00    +0.020 A 
ENDBRANCH  14  16
ENDBRANCH   5  14
BRANCH  15  17
ATOM     17  C   UNL     1      16.795 -10.174  29.909  0.00  0.00    +0.255 C 
BRANCH  17   3
ATOM      3  O   UNL     1      15.735 -10.190  28.981  0.00  0.00    -0.374 OA
ATOM     22  C   UNL     1      16.202 -10.143  27.634  0.00  0.00    +0.194 C 
ENDBRANCH  17   3
ENDBRANCH  15  17
TORSDOF 4
ENDMDL
MODEL 4
REMARK VINA RESULT:      -0.5      1.653      2.486
REMARK  Name = 75536980
REMARK  5 active torsions:
REMARK  status: ('A' for Active; 'I' for Inactive)
REMARK    1  A    between atoms: O_3  and  C_17
REMARK    2  A    between atoms: O_3  and  C_22
REMARK    3  A    between atoms: N_5  and  C_14
REMARK    4  A    between atoms: C_14  and  C_16
REMARK    5  A    between atoms: C_15  and  C_17
REMARK                            x       y       z     vdW  Elec       q    Type
REMARK                         _______ _______ _______ _____ _____    ______ ____
ROOT
ATOM      1  O   UNL     1       2.047   1.815  24.042  0.00  0.00    -0.252 OA
ATOM      2  O   UNL     1      -4.153   4.188  26.134  0.00  0.00    -0.273 OA
ATOM      4  N   UNL     1      -0.284   2.083  24.147  0.00  0.00    -0.278 N 
ATOM      5  N   UNL     1       0.539   0.361  22.961  0.00  0.00    -0.278 N 
ATOM      6  N   UNL     1      -2.769   2.508  25.325  0.00  0.00    -0.296 N 
ATOM      8  C   UNL     1      -1.449   1.473  23.529  0.00  0.00    +0.112 C 
ATOM      9  C   UNL     1      -0.902   0.190  22.909  0.00  0.00    +0.133 C 
ATOM     10  C   UNL     1      -2.551   1.263  24.565  0.00  0.00    +0.132 C 
ATOM     11  C   UNL     1      -0.443   3.263  24.976  0.00  0.00    +0.128 C 
ATOM     12  C   UNL     1      -1.568   3.043  25.985  0.00  0.00    +0.127 C 
ATOM     13  C   UNL     1       0.912   1.467  23.751  0.00  0.00    +0.306 C 
ATOM     15  C   UNL     1      -3.992   3.160  25.472  0.00  0.00    +0.241 C 
ENDROOT
BRANCH   5  14
ATOM     14  C   UNL     1       1.446  -0.598  22.370  0.00  0.00    +0.164 C 
BRANCH  14  16
ATOM      7  N   UNL     1       3.385  -1.353  23.626  0.00  0.00    -0.258 NA
ATOM     16  C   UNL     1       2.861  -0.392  22.832  0.00  0.00    +0.059 A 
ATOM     18  C   UNL     1       3.545   0.745  22.433  0.00  0.00    +0.025 A 
ATOM     19  C   UNL     1       4.853   0.906  22.878  0.00  0.00    +0.003 A 
ATOM     20  C   UNL     1       4.658  -1.162  24.039  0.00  0.00    +0.111 A 
ATOM     21  C   UNL     1       5.428  -0.061  23.695  0.00  0.00    +0.020 A 
ENDBRANCH  14  16
ENDBRANCH   5  14
BRANCH  15  17
ATOM     17  C   UNL     1      -5.172   2.547  24.760  0.00  0.00    +0.255 C 
BRANCH  17   3
ATOM      3  O   UNL     1      -5.571   1.436  25.527  0.00  0.00    -0.374 OA
ATOM     22  C   UNL     1      -6.409   1.811  26.618  0.00  0.00    +0.194 C 
ENDBRANCH  17   3
ENDBRANCH  15  17
TORSDOF 4
ENDMDL
MODEL 5
REMARK VINA RESULT:      -0.5      2.427      3.640
REMARK  Name = 75536980
REMARK  5 active torsions:
REMARK  status: ('A' for Active; 'I' for Inactive)
REMARK    1  A    between atoms: O_3  and  C_17
REMARK    2  A    between atoms: O_3  and  C_22
REMARK    3  A    between atoms: N_5  and  C_14
REMARK    4  A    between atoms: C_14  and  C_16
REMARK    5  A    between atoms: C_15  and  C_17
REMARK                            x       y       z     vdW  Elec       q    Type
REMARK                         _______ _______ _______ _____ _____    ______ ____
ROOT
ATOM      1  O   UNL     1       1.354   2.333  24.077  0.00  0.00    -0.252 OA
ATOM      2  O   UNL     1      -4.114  -1.210  26.525  0.00  0.00    -0.273 OA
ATOM      4  N   UNL     1      -0.297   0.670  24.234  0.00  0.00    -0.278 N 
ATOM      5  N   UNL     1       1.413   0.343  22.814  0.00  0.00    -0.278 N 
ATOM      6  N   UNL     1      -2.043  -1.104  25.479  0.00  0.00    -0.296 N 
ATOM      8  C   UNL     1      -0.624  -0.568  23.547  0.00  0.00    +0.112 C 
ATOM      9  C   UNL     1       0.639  -0.884  22.749  0.00  0.00    +0.133 C 
ATOM     10  C   UNL     1      -1.032  -1.643  24.551  0.00  0.00    +0.132 C 
ATOM     11  C   UNL     1      -1.214   1.209  25.222  0.00  0.00    +0.128 C 
ATOM     12  C   UNL     1      -1.631   0.112  26.198  0.00  0.00    +0.127 C 
ATOM     13  C   UNL     1       0.881   1.255  23.747  0.00  0.00    +0.306 C 
ATOM     15  C   UNL     1      -3.294  -1.667  25.725  0.00  0.00    +0.241 C 
ENDROOT
BRANCH   5  14
ATOM     14  C   UNL     1       2.654   0.506  22.088  0.00  0.00    +0.164 C 
BRANCH  14  16
ATOM      7  N   UNL     1       3.825  -1.220  23.334  0.00  0.00    -0.258 NA
ATOM     16  C   UNL     1       3.839   0.059  22.895  0.00  0.00    +0.059 A 
ATOM     18  C   UNL     1       4.866   0.955  23.145  0.00  0.00    +0.025 A 
ATOM     19  C   UNL     1       5.949   0.510  23.895  0.00  0.00    +0.003 A 
ATOM     20  C   UNL     1       4.895  -1.616  24.060  0.00  0.00    +0.111 A 
ATOM     21  C   UNL     1       5.972  -0.798  24.364  0.00  0.00    +0.020 A 
ENDBRANCH  14  16
ENDBRANCH   5  14
BRANCH  15  17
ATOM     17  C   UNL     1      -3.639  -2.910  24.943  0.00  0.00    +0.255 C 
BRANCH  17   3
ATOM      3  O   UNL     1      -4.404  -2.491  23.839  0.00  0.00    -0.374 OA
ATOM     22  C   UNL     1      -4.360  -1.077  23.660  0.00  0.00    +0.194 C 
ENDBRANCH  17   3
ENDBRANCH  15  17
TORSDOF 4
ENDMDL
MODEL 6
REMARK VINA RESULT:       0.2      2.397      6.993
REMARK  Name = 75536980
REMARK  5 active torsions:
REMARK  status: ('A' for Active; 'I' for Inactive)
REMARK    1  A    between atoms: O_3  and  C_17
REMARK    2  A    between atoms: O_3  and  C_22
REMARK    3  A    between atoms: N_5  and  C_14
REMARK    4  A    between atoms: C_14  and  C_16
REMARK    5  A    between atoms: C_15  and  C_17
REMARK                            x       y       z     vdW  Elec       q    Type
REMARK                         _______ _______ _______ _____ _____    ______ ____
ROOT
ATOM      1  O   UNL     1      -3.572  -2.064  25.539  0.00  0.00    -0.252 OA
ATOM      2  O   UNL     1       3.078  -1.634  23.531  0.00  0.00    -0.273 OA
ATOM      4  N   UNL     1      -1.664  -1.304  24.400  0.00  0.00    -0.278 N 
ATOM      5  N   UNL     1      -3.524  -0.046  24.319  0.00  0.00    -0.278 N 
ATOM      6  N   UNL     1       1.021  -0.675  24.024  0.00  0.00    -0.296 N 
ATOM      8  C   UNL     1      -1.333  -0.220  23.491  0.00  0.00    +0.112 C 
ATOM      9  C   UNL     1      -2.521   0.732  23.615  0.00  0.00    +0.133 C 
ATOM     10  C   UNL     1       0.016   0.391  23.859  0.00  0.00    +0.132 C 
ATOM     11  C   UNL     1      -0.685  -2.342  24.669  0.00  0.00    +0.128 C 
ATOM     12  C   UNL     1       0.663  -1.710  25.007  0.00  0.00    +0.127 C 
ATOM     13  C   UNL     1      -2.994  -1.245  24.838  0.00  0.00    +0.306 C 
ATOM     15  C   UNL     1       2.243  -0.743  23.357  0.00  0.00    +0.241 C 
ENDROOT
BRANCH   5  14
ATOM     14  C   UNL     1      -4.860   0.456  24.552  0.00  0.00    +0.164 C 
BRANCH  14  16
ATOM      7  N   UNL     1      -3.639   2.480  25.116  0.00  0.00    -0.258 NA
ATOM     16  C   UNL     1      -4.850   1.889  25.002  0.00  0.00    +0.059 A 
ATOM     18  C   UNL     1      -6.052   2.524  25.272  0.00  0.00    +0.025 A 
ATOM     19  C   UNL     1      -6.008   3.851  25.686  0.00  0.00    +0.003 A 
ATOM     20  C   UNL     1      -3.636   3.770  25.521  0.00  0.00    +0.111 A 
ATOM     21  C   UNL     1      -4.782   4.493  25.815  0.00  0.00    +0.020 A 
ENDBRANCH  14  16
ENDBRANCH   5  14
BRANCH  15  17
ATOM     17  C   UNL     1       2.530   0.355  22.365  0.00  0.00    +0.255 C 
BRANCH  17   3
ATOM      3  O   UNL     1       3.424   1.242  22.993  0.00  0.00    -0.374 OA
ATOM     22  C   UNL     1       4.733   0.688  23.114  0.00  0.00    +0.194 C 
ENDBRANCH  17   3
ENDBRANCH  15  17
TORSDOF 4
ENDMDL
