MODEL 1
REMARK VINA RESULT:      -5.2      0.000      0.000
REMARK  Name = 38028655
REMARK  11 active torsions:
REMARK  status: ('A' for Active; 'I' for Inactive)
REMARK    1  A    between atoms: N_3  and  C_13
REMARK    2  A    between atoms: N_4  and  C_20
REMARK    3  A    between atoms: C_6  and  C_10
REMARK    4  A    between atoms: C_7  and  C_13
REMARK    5  A    between atoms: C_9  and  C_14
REMARK    6  A    between atoms: C_10  and  C_15
REMARK    7  A    between atoms: C_10  and  C_16
REMARK    8  A    between atoms: C_11  and  C_17
REMARK    9  A    between atoms: C_14  and  C_18
REMARK   10  A    between atoms: C_19  and  C_21
REMARK   11  A    between atoms: C_20  and  C_23
REMARK                            x       y       z     vdW  Elec       q    Type
REMARK                         _______ _______ _______ _____ _____    ______ ____
ROOT
ATOM      6  C   UNL     1      -1.518   0.560  24.873  0.00  0.00    +0.000 C 
ATOM      7  C   UNL     1      -0.995  -0.817  24.394  0.00  0.00    +0.032 C 
ATOM      8  C   UNL     1      -2.700   0.379  25.838  0.00  0.00    +0.012 C 
ATOM      9  C   UNL     1      -3.869  -0.388  25.191  0.00  0.00    +0.023 C 
ATOM     11  C   UNL     1      -3.393  -1.629  24.462  0.00  0.00    -0.073 C 
ATOM     12  C   UNL     1      -2.103  -1.809  24.126  0.00  0.00    -0.022 C 
ATOM     17  C   UNL     1      -4.427  -2.680  24.169  0.00  0.00    +0.039 C 
ENDROOT
BRANCH   6  10
ATOM     10  C   UNL     1      -0.418   1.383  25.551  0.00  0.00    -0.013 C 
ATOM     15  C   UNL     1      -0.986   2.160  26.733  0.00  0.00    +0.007 C 
ATOM     16  C   UNL     1       0.237   2.326  24.547  0.00  0.00    +0.007 C 
ENDBRANCH   6  10
BRANCH   7  13
ATOM     13  C   UNL     1      -0.126  -0.671  23.139  0.00  0.00    +0.112 C 
BRANCH  13   3
ATOM      2  O   UNL     1       2.061  -0.156  21.352  0.00  0.00    -0.269 OA
ATOM      3  N   UNL     1       1.257  -0.579  23.488  0.00  0.00    -0.310 N 
ATOM     19  C   UNL     1       2.260  -0.325  22.553  0.00  0.00    +0.262 C 
ATOM     28  H   UNL     1       1.518  -0.663  24.467  0.00  0.00    +0.149 HD
BRANCH  19  21
ATOM      5  N   UNL     1       4.094  -1.423  23.651  0.00  0.00    -0.250 NA
ATOM     21  C   UNL     1       3.652  -0.285  23.071  0.00  0.00    +0.125 A 
ATOM     22  C   UNL     1       4.412   0.867  22.944  0.00  0.00    +0.033 A 
ATOM     24  C   UNL     1       5.709   0.849  23.444  0.00  0.00    +0.004 A 
ATOM     25  C   UNL     1       5.359  -1.403  24.127  0.00  0.00    +0.111 A 
ATOM     26  C   UNL     1       6.199  -0.304  24.049  0.00  0.00    +0.020 A 
ENDBRANCH  19  21
ENDBRANCH  13   3
ENDBRANCH   7  13
BRANCH   9  14
ATOM     14  C   UNL     1      -4.676   0.520  24.256  0.00  0.00    +0.103 C 
BRANCH  14  18
ATOM      1  O   UNL     1      -5.757   2.116  25.720  0.00  0.00    -0.276 OA
ATOM      4  N   UNL     1      -4.056   2.829  24.305  0.00  0.00    -0.304 N 
ATOM     18  C   UNL     1      -4.912   1.888  24.857  0.00  0.00    +0.214 C 
ATOM     29  H   UNL     1      -3.379   2.534  23.607  0.00  0.00    +0.150 HD
BRANCH   4  20
ATOM     20  C   UNL     1      -4.060   4.221  24.690  0.00  0.00    +0.193 C 
BRANCH  20  23
ATOM     23  C   UNL     1      -2.702   4.702  24.946  0.00  0.00    -0.087 C 
ATOM     27  C   UNL     1      -1.589   5.098  25.153  0.00  0.00    +0.005 C 
ENDBRANCH  20  23
ENDBRANCH   4  20
ENDBRANCH  14  18
ENDBRANCH   9  14
TORSDOF 8
ENDMDL
MODEL 2
REMARK VINA RESULT:      -3.3      1.501      2.976
REMARK  Name = 38028655
REMARK  11 active torsions:
REMARK  status: ('A' for Active; 'I' for Inactive)
REMARK    1  A    between atoms: N_3  and  C_13
REMARK    2  A    between atoms: N_4  and  C_20
REMARK    3  A    between atoms: C_6  and  C_10
REMARK    4  A    between atoms: C_7  and  C_13
REMARK    5  A    between atoms: C_9  and  C_14
REMARK    6  A    between atoms: C_10  and  C_15
REMARK    7  A    between atoms: C_10  and  C_16
REMARK    8  A    between atoms: C_11  and  C_17
REMARK    9  A    between atoms: C_14  and  C_18
REMARK   10  A    between atoms: C_19  and  C_21
REMARK   11  A    between atoms: C_20  and  C_23
REMARK                            x       y       z     vdW  Elec       q    Type
REMARK                         _______ _______ _______ _____ _____    ______ ____
ROOT
ATOM      6  C   UNL     1      -3.184  -0.121  25.007  0.00  0.00    +0.000 C 
ATOM      7  C   UNL     1      -1.995   0.667  24.405  0.00  0.00    +0.032 C 
ATOM      8  C   UNL     1      -4.401  -0.055  24.071  0.00  0.00    +0.012 C 
ATOM      9  C   UNL     1      -4.858   1.392  23.810  0.00  0.00    +0.023 C 
ATOM     11  C   UNL     1      -3.692   2.298  23.469  0.00  0.00    -0.073 C 
ATOM     12  C   UNL     1      -2.418   1.951  23.731  0.00  0.00    -0.022 C 
ATOM     17  C   UNL     1      -4.019   3.593  22.780  0.00  0.00    +0.039 C 
ENDROOT
BRANCH   6  10
ATOM     10  C   UNL     1      -2.818  -1.584  25.278  0.00  0.00    -0.013 C 
ATOM     15  C   UNL     1      -3.614  -2.510  24.365  0.00  0.00    +0.007 C 
ATOM     16  C   UNL     1      -3.059  -1.931  26.744  0.00  0.00    +0.007 C 
ENDBRANCH   6  10
BRANCH   7  13
ATOM     13  C   UNL     1      -0.939   0.975  25.472  0.00  0.00    +0.112 C 
BRANCH  13   3
ATOM      2  O   UNL     1       0.018  -0.854  23.477  0.00  0.00    -0.269 OA
ATOM      3  N   UNL     1       0.376   0.934  24.913  0.00  0.00    -0.310 N 
ATOM     19  C   UNL     1       0.759   0.008  23.943  0.00  0.00    +0.262 C 
ATOM     28  H   UNL     1       1.051   1.636  25.206  0.00  0.00    +0.149 HD
BRANCH  19  21
ATOM      5  N   UNL     1       2.907  -1.037  23.677  0.00  0.00    -0.250 NA
ATOM     21  C   UNL     1       2.169   0.079  23.481  0.00  0.00    +0.125 A 
ATOM     22  C   UNL     1       2.654   1.236  22.892  0.00  0.00    +0.033 A 
ATOM     24  C   UNL     1       3.981   1.248  22.477  0.00  0.00    +0.004 A 
ATOM     25  C   UNL     1       4.192  -0.988  23.262  0.00  0.00    +0.111 A 
ATOM     26  C   UNL     1       4.771   0.118  22.662  0.00  0.00    +0.020 A 
ENDBRANCH  19  21
ENDBRANCH  13   3
ENDBRANCH   7  13
BRANCH   9  14
ATOM     14  C   UNL     1      -5.651   1.944  25.000  0.00  0.00    +0.103 C 
BRANCH  14  18
ATOM      1  O   UNL     1      -5.717   4.343  25.309  0.00  0.00    -0.276 OA
ATOM      4  N   UNL     1      -3.886   3.138  26.082  0.00  0.00    -0.304 N 
ATOM     18  C   UNL     1      -5.120   3.280  25.466  0.00  0.00    +0.214 C 
ATOM     29  H   UNL     1      -3.483   2.210  26.177  0.00  0.00    +0.150 HD
BRANCH   4  20
ATOM     20  C   UNL     1      -3.141   4.251  26.624  0.00  0.00    +0.193 C 
BRANCH  20  23
ATOM     23  C   UNL     1      -2.048   4.639  25.733  0.00  0.00    -0.087 C 
ATOM     27  C   UNL     1      -1.153   4.955  24.999  0.00  0.00    +0.005 C 
ENDBRANCH  20  23
ENDBRANCH   4  20
ENDBRANCH  14  18
ENDBRANCH   9  14
TORSDOF 8
ENDMDL
MODEL 3
REMARK VINA RESULT:      -2.9     14.543     18.184
REMARK  Name = 38028655
REMARK  11 active torsions:
REMARK  status: ('A' for Active; 'I' for Inactive)
REMARK    1  A    between atoms: N_3  and  C_13
REMARK    2  A    between atoms: N_4  and  C_20
REMARK    3  A    between atoms: C_6  and  C_10
REMARK    4  A    between atoms: C_7  and  C_13
REMARK    5  A    between atoms: C_9  and  C_14
REMARK    6  A    between atoms: C_10  and  C_15
REMARK    7  A    between atoms: C_10  and  C_16
REMARK    8  A    between atoms: C_11  and  C_17
REMARK    9  A    between atoms: C_14  and  C_18
REMARK   10  A    between atoms: C_19  and  C_21
REMARK   11  A    between atoms: C_20  and  C_23
REMARK                            x       y       z     vdW  Elec       q    Type
REMARK                         _______ _______ _______ _____ _____    ______ ____
ROOT
ATOM      6  C   UNL     1      -8.472  -9.928  10.947  0.00  0.00    +0.000 C 
ATOM      7  C   UNL     1      -8.587 -10.501  12.381  0.00  0.00    +0.032 C 
ATOM      8  C   UNL     1      -7.265 -10.541  10.220  0.00  0.00    +0.012 C 
ATOM      9  C   UNL     1      -5.941 -10.274  10.959  0.00  0.00    +0.023 C 
ATOM     11  C   UNL     1      -6.056 -10.564  12.443  0.00  0.00    -0.073 C 
ATOM     12  C   UNL     1      -7.248 -10.675  13.058  0.00  0.00    -0.022 C 
ATOM     17  C   UNL     1      -4.771 -10.768  13.194  0.00  0.00    +0.039 C 
ENDROOT
BRANCH   6  10
ATOM     10  C   UNL     1      -9.746 -10.172  10.132  0.00  0.00    -0.013 C 
ATOM     15  C   UNL     1      -9.396 -10.563   8.700  0.00  0.00    +0.007 C 
ATOM     16  C   UNL     1     -10.637  -8.934  10.153  0.00  0.00    +0.007 C 
ENDBRANCH   6  10
BRANCH   7  13
ATOM     13  C   UNL     1      -9.491  -9.624  13.256  0.00  0.00    +0.112 C 
BRANCH  13   3
ATOM      2  O   UNL     1      -9.937  -7.971  15.560  0.00  0.00    -0.269 OA
ATOM      3  N   UNL     1      -9.424 -10.032  14.624  0.00  0.00    -0.310 N 
ATOM     19  C   UNL     1      -9.655  -9.160  15.687  0.00  0.00    +0.262 C 
ATOM     28  H   UNL     1      -9.237 -11.009  14.831  0.00  0.00    +0.149 HD
BRANCH  19  21
ATOM      5  N   UNL     1      -8.256  -9.856  17.513  0.00  0.00    -0.250 NA
ATOM     21  C   UNL     1      -9.521  -9.732  17.052  0.00  0.00    +0.125 A 
ATOM     22  C   UNL     1     -10.648 -10.100  17.770  0.00  0.00    +0.033 A 
ATOM     24  C   UNL     1     -10.465 -10.628  19.042  0.00  0.00    +0.004 A 
ATOM     25  C   UNL     1      -8.118 -10.374  18.754  0.00  0.00    +0.111 A 
ATOM     26  C   UNL     1      -9.179 -10.771  19.551  0.00  0.00    +0.020 A 
ENDBRANCH  19  21
ENDBRANCH  13   3
ENDBRANCH   7  13
BRANCH   9  14
ATOM     14  C   UNL     1      -5.452  -8.842  10.717  0.00  0.00    +0.103 C 
BRANCH  14  18
ATOM      1  O   UNL     1      -3.922  -8.460   8.881  0.00  0.00    -0.276 OA
ATOM      4  N   UNL     1      -3.101  -9.226  10.915  0.00  0.00    -0.304 N 
ATOM     18  C   UNL     1      -4.098  -8.810  10.046  0.00  0.00    +0.214 C 
ATOM     29  H   UNL     1      -3.348  -9.481  11.867  0.00  0.00    +0.150 HD
BRANCH   4  20
ATOM     20  C   UNL     1      -1.707  -9.298  10.542  0.00  0.00    +0.193 C 
BRANCH  20  23
ATOM     23  C   UNL     1      -0.859  -8.645  11.539  0.00  0.00    -0.087 C 
ATOM     27  C   UNL     1      -0.161  -8.111  12.357  0.00  0.00    +0.005 C 
ENDBRANCH  20  23
ENDBRANCH   4  20
ENDBRANCH  14  18
ENDBRANCH   9  14
TORSDOF 8
ENDMDL
MODEL 4
REMARK VINA RESULT:      -2.6      2.711      6.432
REMARK  Name = 38028655
REMARK  11 active torsions:
REMARK  status: ('A' for Active; 'I' for Inactive)
REMARK    1  A    between atoms: N_3  and  C_13
REMARK    2  A    between atoms: N_4  and  C_20
REMARK    3  A    between atoms: C_6  and  C_10
REMARK    4  A    between atoms: C_7  and  C_13
REMARK    5  A    between atoms: C_9  and  C_14
REMARK    6  A    between atoms: C_10  and  C_15
REMARK    7  A    between atoms: C_10  and  C_16
REMARK    8  A    between atoms: C_11  and  C_17
REMARK    9  A    between atoms: C_14  and  C_18
REMARK   10  A    between atoms: C_19  and  C_21
REMARK   11  A    between atoms: C_20  and  C_23
REMARK                            x       y       z     vdW  Elec       q    Type
REMARK                         _______ _______ _______ _____ _____    ______ ____
ROOT
ATOM      6  C   UNL     1      -4.129   3.221  25.680  0.00  0.00    +0.000 C 
ATOM      7  C   UNL     1      -3.943   3.883  24.293  0.00  0.00    +0.032 C 
ATOM      8  C   UNL     1      -3.276   3.939  26.737  0.00  0.00    +0.012 C 
ATOM      9  C   UNL     1      -1.776   3.922  26.385  0.00  0.00    +0.023 C 
ATOM     11  C   UNL     1      -1.532   4.308  24.940  0.00  0.00    -0.073 C 
ATOM     12  C   UNL     1      -2.515   4.297  24.022  0.00  0.00    -0.022 C 
ATOM     17  C   UNL     1      -0.140   4.751  24.584  0.00  0.00    +0.039 C 
ENDROOT
BRANCH   6  10
ATOM     10  C   UNL     1      -5.598   3.216  26.116  0.00  0.00    -0.013 C 
ATOM     15  C   UNL     1      -6.269   1.908  25.711  0.00  0.00    +0.007 C 
ATOM     16  C   UNL     1      -6.334   4.411  25.519  0.00  0.00    +0.007 C 
ENDBRANCH   6  10
BRANCH   7  13
ATOM     13  C   UNL     1      -4.427   2.958  23.170  0.00  0.00    +0.112 C 
BRANCH  13   3
ATOM      2  O   UNL     1      -1.974   1.467  23.188  0.00  0.00    -0.269 OA
ATOM      3  N   UNL     1      -4.265   1.586  23.536  0.00  0.00    -0.310 N 
ATOM     19  C   UNL     1      -3.032   0.936  23.517  0.00  0.00    +0.262 C 
ATOM     28  H   UNL     1      -5.079   1.071  23.864  0.00  0.00    +0.149 HD
BRANCH  19  21
ATOM      5  N   UNL     1      -1.867  -0.977  24.388  0.00  0.00    -0.250 NA
ATOM     21  C   UNL     1      -3.035  -0.499  23.901  0.00  0.00    +0.125 A 
ATOM     22  C   UNL     1      -4.183  -1.260  23.755  0.00  0.00    +0.033 A 
ATOM     24  C   UNL     1      -4.131  -2.597  24.131  0.00  0.00    +0.004 A 
ATOM     25  C   UNL     1      -1.854  -2.282  24.742  0.00  0.00    +0.111 A 
ATOM     26  C   UNL     1      -2.947  -3.125  24.636  0.00  0.00    +0.020 A 
ENDBRANCH  19  21
ENDBRANCH  13   3
ENDBRANCH   7  13
BRANCH   9  14
ATOM     14  C   UNL     1      -1.151   2.559  26.702  0.00  0.00    +0.103 C 
BRANCH  14  18
ATOM      1  O   UNL     1       1.248   2.876  26.650  0.00  0.00    -0.276 OA
ATOM      4  N   UNL     1       0.208   1.725  24.920  0.00  0.00    -0.304 N 
ATOM     18  C   UNL     1       0.238   2.422  26.119  0.00  0.00    +0.214 C 
ATOM     29  H   UNL     1      -0.681   1.375  24.572  0.00  0.00    +0.150 HD
BRANCH   4  20
ATOM     20  C   UNL     1       1.391   1.446  24.139  0.00  0.00    +0.193 C 
BRANCH  20  23
ATOM     23  C   UNL     1       1.135   0.402  23.147  0.00  0.00    -0.087 C 
ATOM     27  C   UNL     1       0.928  -0.454  22.332  0.00  0.00    +0.005 C 
ENDBRANCH  20  23
ENDBRANCH   4  20
ENDBRANCH  14  18
ENDBRANCH   9  14
TORSDOF 8
ENDMDL
MODEL 5
REMARK VINA RESULT:      -2.4     14.602     17.671
REMARK  Name = 38028655
REMARK  11 active torsions:
REMARK  status: ('A' for Active; 'I' for Inactive)
REMARK    1  A    between atoms: N_3  and  C_13
REMARK    2  A    between atoms: N_4  and  C_20
REMARK    3  A    between atoms: C_6  and  C_10
REMARK    4  A    between atoms: C_7  and  C_13
REMARK    5  A    between atoms: C_9  and  C_14
REMARK    6  A    between atoms: C_10  and  C_15
REMARK    7  A    between atoms: C_10  and  C_16
REMARK    8  A    between atoms: C_11  and  C_17
REMARK    9  A    between atoms: C_14  and  C_18
REMARK   10  A    between atoms: C_19  and  C_21
REMARK   11  A    between atoms: C_20  and  C_23
REMARK                            x       y       z     vdW  Elec       q    Type
REMARK                         _______ _______ _______ _____ _____    ______ ____
ROOT
ATOM      6  C   UNL     1      -7.300 -10.223  10.924  0.00  0.00    +0.000 C 
ATOM      7  C   UNL     1      -6.894 -10.734  12.329  0.00  0.00    +0.032 C 
ATOM      8  C   UNL     1      -6.340 -10.770   9.857  0.00  0.00    +0.012 C 
ATOM      9  C   UNL     1      -4.879 -10.362  10.121  0.00  0.00    +0.023 C 
ATOM     11  C   UNL     1      -4.484 -10.588  11.566  0.00  0.00    -0.073 C 
ATOM     12  C   UNL     1      -5.398 -10.765  12.537  0.00  0.00    -0.022 C 
ATOM     17  C   UNL     1      -3.012 -10.651  11.864  0.00  0.00    +0.039 C 
ENDROOT
BRANCH   6  10
ATOM     10  C   UNL     1      -8.740 -10.607  10.573  0.00  0.00    -0.013 C 
ATOM     15  C   UNL     1      -8.892 -10.781   9.065  0.00  0.00    +0.007 C 
ATOM     16  C   UNL     1      -9.715  -9.558  11.097  0.00  0.00    +0.007 C 
ENDBRANCH   6  10
BRANCH   7  13
ATOM     13  C   UNL     1      -7.545  -9.891  13.433  0.00  0.00    +0.112 C 
BRANCH  13   3
ATOM      2  O   UNL     1      -8.531  -9.066  15.999  0.00  0.00    -0.269 OA
ATOM      3  N   UNL     1      -6.962 -10.184  14.705  0.00  0.00    -0.310 N 
ATOM     19  C   UNL     1      -7.509  -9.742  15.909  0.00  0.00    +0.262 C 
ATOM     28  H   UNL     1      -6.134 -10.773  14.736  0.00  0.00    +0.149 HD
BRANCH  19  21
ATOM      5  N   UNL     1      -5.441 -10.311  16.993  0.00  0.00    -0.250 NA
ATOM     21  C   UNL     1      -6.769 -10.107  17.144  0.00  0.00    +0.125 A 
ATOM     22  C   UNL     1      -7.438 -10.220  18.352  0.00  0.00    +0.033 A 
ATOM     24  C   UNL     1      -6.697 -10.563  19.477  0.00  0.00    +0.004 A 
ATOM     25  C   UNL     1      -4.753 -10.645  18.109  0.00  0.00    +0.111 A 
ATOM     26  C   UNL     1      -5.328 -10.781  19.361  0.00  0.00    +0.020 A 
ENDBRANCH  19  21
ENDBRANCH  13   3
ENDBRANCH   7  13
BRANCH   9  14
ATOM     14  C   UNL     1      -4.628  -8.908   9.705  0.00  0.00    +0.103 C 
BRANCH  14  18
ATOM      1  O   UNL     1      -6.325  -7.547  10.766  0.00  0.00    -0.276 OA
ATOM      4  N   UNL     1      -6.483  -8.008   8.494  0.00  0.00    -0.304 N 
ATOM     18  C   UNL     1      -5.892  -8.079   9.747  0.00  0.00    +0.214 C 
ATOM     29  H   UNL     1      -6.036  -8.472   7.708  0.00  0.00    +0.150 HD
BRANCH   4  20
ATOM     20  C   UNL     1      -7.706  -7.283   8.238  0.00  0.00    +0.193 C 
BRANCH  20  23
ATOM     23  C   UNL     1      -7.504  -5.841   8.382  0.00  0.00    -0.087 C 
ATOM     27  C   UNL     1      -7.338  -4.659   8.504  0.00  0.00    +0.005 C 
ENDBRANCH  20  23
ENDBRANCH   4  20
ENDBRANCH  14  18
ENDBRANCH   9  14
TORSDOF 8
ENDMDL
MODEL 6
REMARK VINA RESULT:      -2.0      1.976      6.785
REMARK  Name = 38028655
REMARK  11 active torsions:
REMARK  status: ('A' for Active; 'I' for Inactive)
REMARK    1  A    between atoms: N_3  and  C_13
REMARK    2  A    between atoms: N_4  and  C_20
REMARK    3  A    between atoms: C_6  and  C_10
REMARK    4  A    between atoms: C_7  and  C_13
REMARK    5  A    between atoms: C_9  and  C_14
REMARK    6  A    between atoms: C_10  and  C_15
REMARK    7  A    between atoms: C_10  and  C_16
REMARK    8  A    between atoms: C_11  and  C_17
REMARK    9  A    between atoms: C_14  and  C_18
REMARK   10  A    between atoms: C_19  and  C_21
REMARK   11  A    between atoms: C_20  and  C_23
REMARK                            x       y       z     vdW  Elec       q    Type
REMARK                         _______ _______ _______ _____ _____    ______ ____
ROOT
ATOM      6  C   UNL     1      -2.012   3.362  25.054  0.00  0.00    +0.000 C 
ATOM      7  C   UNL     1      -3.284   3.222  24.183  0.00  0.00    +0.032 C 
ATOM      8  C   UNL     1      -0.775   3.573  24.167  0.00  0.00    +0.012 C 
ATOM      9  C   UNL     1      -0.562   2.412  23.178  0.00  0.00    +0.023 C 
ATOM     11  C   UNL     1      -1.847   2.035  22.468  0.00  0.00    -0.073 C 
ATOM     12  C   UNL     1      -3.054   2.417  22.925  0.00  0.00    -0.022 C 
ATOM     17  C   UNL     1      -1.712   1.246  21.196  0.00  0.00    +0.039 C 
ENDROOT
BRANCH   6  10
ATOM     10  C   UNL     1      -2.133   4.514  26.057  0.00  0.00    -0.013 C 
ATOM     15  C   UNL     1      -3.454   4.424  26.814  0.00  0.00    +0.007 C 
ATOM     16  C   UNL     1      -2.009   5.857  25.343  0.00  0.00    +0.007 C 
ENDBRANCH   6  10
BRANCH   7  13
ATOM     13  C   UNL     1      -4.436   2.601  24.982  0.00  0.00    +0.112 C 
BRANCH  13   3
ATOM      2  O   UNL     1      -2.455   0.690  25.796  0.00  0.00    -0.269 OA
ATOM      3  N   UNL     1      -4.485   1.186  24.787  0.00  0.00    -0.310 N 
ATOM     19  C   UNL     1      -3.475   0.326  25.215  0.00  0.00    +0.262 C 
ATOM     28  H   UNL     1      -5.310   0.784  24.350  0.00  0.00    +0.149 HD
BRANCH  19  21
ATOM      5  N   UNL     1      -3.097  -1.977  25.790  0.00  0.00    -0.250 NA
ATOM     21  C   UNL     1      -3.662  -1.117  24.913  0.00  0.00    +0.125 A 
ATOM     22  C   UNL     1      -4.378  -1.509  23.794  0.00  0.00    +0.033 A 
ATOM     24  C   UNL     1      -4.525  -2.871  23.559  0.00  0.00    +0.004 A 
ATOM     25  C   UNL     1      -3.259  -3.294  25.528  0.00  0.00    +0.111 A 
ATOM     26  C   UNL     1      -3.957  -3.787  24.439  0.00  0.00    +0.020 A 
ENDBRANCH  19  21
ENDBRANCH  13   3
ENDBRANCH   7  13
BRANCH   9  14
ATOM     14  C   UNL     1       0.056   1.197  23.877  0.00  0.00    +0.103 C 
BRANCH  14  18
ATOM      1  O   UNL     1       0.952  -0.450  22.347  0.00  0.00    -0.276 OA
ATOM      4  N   UNL     1       2.338   1.225  23.166  0.00  0.00    -0.304 N 
ATOM     18  C   UNL     1       1.135   0.548  23.040  0.00  0.00    +0.214 C 
ATOM     29  H   UNL     1       2.382   2.053  23.754  0.00  0.00    +0.150 HD
BRANCH   4  20
ATOM     20  C   UNL     1       3.545   0.826  22.478  0.00  0.00    +0.193 C 
BRANCH  20  23
ATOM     23  C   UNL     1       4.556   0.350  23.421  0.00  0.00    -0.087 C 
ATOM     27  C   UNL     1       5.389  -0.041  24.192  0.00  0.00    +0.005 C 
ENDBRANCH  20  23
ENDBRANCH   4  20
ENDBRANCH  14  18
ENDBRANCH   9  14
TORSDOF 8
ENDMDL
MODEL 7
REMARK VINA RESULT:      -1.9      1.505      7.506
REMARK  Name = 38028655
REMARK  11 active torsions:
REMARK  status: ('A' for Active; 'I' for Inactive)
REMARK    1  A    between atoms: N_3  and  C_13
REMARK    2  A    between atoms: N_4  and  C_20
REMARK    3  A    between atoms: C_6  and  C_10
REMARK    4  A    between atoms: C_7  and  C_13
REMARK    5  A    between atoms: C_9  and  C_14
REMARK    6  A    between atoms: C_10  and  C_15
REMARK    7  A    between atoms: C_10  and  C_16
REMARK    8  A    between atoms: C_11  and  C_17
REMARK    9  A    between atoms: C_14  and  C_18
REMARK   10  A    between atoms: C_19  and  C_21
REMARK   11  A    between atoms: C_20  and  C_23
REMARK                            x       y       z     vdW  Elec       q    Type
REMARK                         _______ _______ _______ _____ _____    ______ ____
ROOT
ATOM      6  C   UNL     1      -1.747  -1.787  24.472  0.00  0.00    +0.000 C 
ATOM      7  C   UNL     1      -2.520  -1.145  25.651  0.00  0.00    +0.032 C 
ATOM      8  C   UNL     1      -0.235  -1.575  24.642  0.00  0.00    +0.012 C 
ATOM      9  C   UNL     1       0.140  -0.083  24.715  0.00  0.00    +0.023 C 
ATOM     11  C   UNL     1      -0.762   0.678  25.666  0.00  0.00    -0.073 C 
ATOM     12  C   UNL     1      -1.941   0.182  26.084  0.00  0.00    -0.022 C 
ATOM     17  C   UNL     1      -0.257   2.004  26.163  0.00  0.00    +0.039 C 
ENDROOT
BRANCH   6  10
ATOM     10  C   UNL     1      -2.049  -3.284  24.342  0.00  0.00    -0.013 C 
ATOM     15  C   UNL     1      -1.397  -3.851  23.085  0.00  0.00    +0.007 C 
ATOM     16  C   UNL     1      -3.555  -3.524  24.326  0.00  0.00    +0.007 C 
ENDBRANCH   6  10
BRANCH   7  13
ATOM     13  C   UNL     1      -4.003  -0.967  25.307  0.00  0.00    +0.112 C 
BRANCH  13   3
ATOM      2  O   UNL     1      -3.535   1.064  23.333  0.00  0.00    -0.269 OA
ATOM      3  N   UNL     1      -4.382   0.409  25.392  0.00  0.00    -0.310 N 
ATOM     19  C   UNL     1      -4.115   1.333  24.383  0.00  0.00    +0.262 C 
ATOM     28  H   UNL     1      -4.904   0.720  26.207  0.00  0.00    +0.149 HD
BRANCH  19  21
ATOM      5  N   UNL     1      -5.643   2.872  25.418  0.00  0.00    -0.250 NA
ATOM     21  C   UNL     1      -4.550   2.731  24.634  0.00  0.00    +0.125 A 
ATOM     22  C   UNL     1      -3.851   3.791  24.081  0.00  0.00    +0.033 A 
ATOM     24  C   UNL     1      -4.300   5.079  24.349  0.00  0.00    +0.004 A 
ATOM     25  C   UNL     1      -6.051   4.139  25.656  0.00  0.00    +0.111 A 
ATOM     26  C   UNL     1      -5.421   5.264  25.151  0.00  0.00    +0.020 A 
ENDBRANCH  19  21
ENDBRANCH  13   3
ENDBRANCH   7  13
BRANCH   9  14
ATOM     14  C   UNL     1       0.133   0.557  23.323  0.00  0.00    +0.103 C 
BRANCH  14  18
ATOM      1  O   UNL     1       1.487  -0.446  21.586  0.00  0.00    -0.276 OA
ATOM      4  N   UNL     1       2.479   0.976  23.133  0.00  0.00    -0.304 N 
ATOM     18  C   UNL     1       1.416   0.289  22.568  0.00  0.00    +0.214 C 
ATOM     29  H   UNL     1       2.312   1.573  23.938  0.00  0.00    +0.150 HD
BRANCH   4  20
ATOM     20  C   UNL     1       3.828   0.905  22.619  0.00  0.00    +0.193 C 
BRANCH  20  23
ATOM     23  C   UNL     1       4.682   0.097  23.489  0.00  0.00    -0.087 C 
ATOM     27  C   UNL     1       5.386  -0.563  24.203  0.00  0.00    +0.005 C 
ENDBRANCH  20  23
ENDBRANCH   4  20
ENDBRANCH  14  18
ENDBRANCH   9  14
TORSDOF 8
ENDMDL
MODEL 8
REMARK VINA RESULT:      -1.5      1.570      3.406
REMARK  Name = 38028655
REMARK  11 active torsions:
REMARK  status: ('A' for Active; 'I' for Inactive)
REMARK    1  A    between atoms: N_3  and  C_13
REMARK    2  A    between atoms: N_4  and  C_20
REMARK    3  A    between atoms: C_6  and  C_10
REMARK    4  A    between atoms: C_7  and  C_13
REMARK    5  A    between atoms: C_9  and  C_14
REMARK    6  A    between atoms: C_10  and  C_15
REMARK    7  A    between atoms: C_10  and  C_16
REMARK    8  A    between atoms: C_11  and  C_17
REMARK    9  A    between atoms: C_14  and  C_18
REMARK   10  A    between atoms: C_19  and  C_21
REMARK   11  A    between atoms: C_20  and  C_23
REMARK                            x       y       z     vdW  Elec       q    Type
REMARK                         _______ _______ _______ _____ _____    ______ ____
ROOT
ATOM      6  C   UNL     1      -1.912   2.917  24.463  0.00  0.00    +0.000 C 
ATOM      7  C   UNL     1      -0.745   1.920  24.668  0.00  0.00    +0.032 C 
ATOM      8  C   UNL     1      -2.871   2.874  25.662  0.00  0.00    +0.012 C 
ATOM      9  C   UNL     1      -3.463   1.470  25.886  0.00  0.00    +0.023 C 
ATOM     11  C   UNL     1      -2.396   0.395  25.834  0.00  0.00    -0.073 C 
ATOM     12  C   UNL     1      -1.182   0.619  25.298  0.00  0.00    -0.022 C 
ATOM     17  C   UNL     1      -2.739  -0.931  26.454  0.00  0.00    +0.039 C 
ENDROOT
BRANCH   6  10
ATOM     10  C   UNL     1      -1.409   4.348  24.253  0.00  0.00    -0.013 C 
ATOM     15  C   UNL     1       0.050   4.468  24.681  0.00  0.00    +0.007 C 
ATOM     16  C   UNL     1      -2.280   5.338  25.019  0.00  0.00    +0.007 C 
ENDBRANCH   6  10
BRANCH   7  13
ATOM     13  C   UNL     1      -0.026   1.631  23.345  0.00  0.00    +0.112 C 
BRANCH  13   3
ATOM      2  O   UNL     1       1.471  -0.295  21.831  0.00  0.00    -0.269 OA
ATOM      3  N   UNL     1       1.324   1.224  23.580  0.00  0.00    -0.310 N 
ATOM     19  C   UNL     1       1.979   0.277  22.792  0.00  0.00    +0.262 C 
ATOM     28  H   UNL     1       1.844   1.672  24.330  0.00  0.00    +0.149 HD
BRANCH  19  21
ATOM      5  N   UNL     1       3.574  -1.324  23.610  0.00  0.00    -0.250 NA
ATOM     21  C   UNL     1       3.373  -0.057  23.182  0.00  0.00    +0.125 A 
ATOM     22  C   UNL     1       4.372   0.899  23.095  0.00  0.00    +0.033 A 
ATOM     24  C   UNL     1       5.659   0.533  23.471  0.00  0.00    +0.004 A 
ATOM     25  C   UNL     1       4.838  -1.643  23.968  0.00  0.00    +0.111 A 
ATOM     26  C   UNL     1       5.904  -0.762  23.917  0.00  0.00    +0.020 A 
ENDBRANCH  19  21
ENDBRANCH  13   3
ENDBRANCH   7  13
BRANCH   9  14
ATOM     14  C   UNL     1      -4.586   1.177  24.885  0.00  0.00    +0.103 C 
BRANCH  14  18
ATOM      1  O   UNL     1      -3.570   0.309  22.867  0.00  0.00    -0.276 OA
ATOM      4  N   UNL     1      -4.655  -1.145  24.320  0.00  0.00    -0.304 N 
ATOM     18  C   UNL     1      -4.201   0.096  23.900  0.00  0.00    +0.214 C 
ATOM     29  H   UNL     1      -5.156  -1.218  25.201  0.00  0.00    +0.150 HD
BRANCH   4  20
ATOM     20  C   UNL     1      -4.433  -2.361  23.572  0.00  0.00    +0.193 C 
BRANCH  20  23
ATOM     23  C   UNL     1      -3.100  -2.904  23.832  0.00  0.00    -0.087 C 
ATOM     27  C   UNL     1      -2.005  -3.348  24.043  0.00  0.00    +0.005 C 
ENDBRANCH  20  23
ENDBRANCH   4  20
ENDBRANCH  14  18
ENDBRANCH   9  14
TORSDOF 8
ENDMDL
MODEL 9
REMARK VINA RESULT:      -1.3      2.508      5.730
REMARK  Name = 38028655
REMARK  11 active torsions:
REMARK  status: ('A' for Active; 'I' for Inactive)
REMARK    1  A    between atoms: N_3  and  C_13
REMARK    2  A    between atoms: N_4  and  C_20
REMARK    3  A    between atoms: C_6  and  C_10
REMARK    4  A    between atoms: C_7  and  C_13
REMARK    5  A    between atoms: C_9  and  C_14
REMARK    6  A    between atoms: C_10  and  C_15
REMARK    7  A    between atoms: C_10  and  C_16
REMARK    8  A    between atoms: C_11  and  C_17
REMARK    9  A    between atoms: C_14  and  C_18
REMARK   10  A    between atoms: C_19  and  C_21
REMARK   11  A    between atoms: C_20  and  C_23
REMARK                            x       y       z     vdW  Elec       q    Type
REMARK                         _______ _______ _______ _____ _____    ______ ____
ROOT
ATOM      6  C   UNL     1       0.103   1.704  24.154  0.00  0.00    +0.000 C 
ATOM      7  C   UNL     1       0.230   2.103  25.645  0.00  0.00    +0.032 C 
ATOM      8  C   UNL     1       0.167   2.951  23.258  0.00  0.00    +0.012 C 
ATOM      9  C   UNL     1      -0.946   3.963  23.588  0.00  0.00    +0.023 C 
ATOM     11  C   UNL     1      -1.062   4.207  25.079  0.00  0.00    -0.073 C 
ATOM     12  C   UNL     1      -0.518   3.371  25.983  0.00  0.00    -0.022 C 
ATOM     17  C   UNL     1      -1.777   5.457  25.508  0.00  0.00    +0.039 C 
ENDROOT
BRANCH   6  10
ATOM     10  C   UNL     1       1.192   0.710  23.736  0.00  0.00    -0.013 C 
ATOM     15  C   UNL     1       2.413   1.451  23.202  0.00  0.00    +0.007 C 
ATOM     16  C   UNL     1       0.652  -0.265  22.695  0.00  0.00    +0.007 C 
ENDBRANCH   6  10
BRANCH   7  13
ATOM     13  C   UNL     1      -0.246   0.970  26.562  0.00  0.00    +0.112 C 
BRANCH  13   3
ATOM      2  O   UNL     1      -0.154  -1.765  25.695  0.00  0.00    -0.269 OA
ATOM      3  N   UNL     1      -1.307   0.233  25.951  0.00  0.00    -0.310 N 
ATOM     19  C   UNL     1      -1.177  -1.098  25.558  0.00  0.00    +0.262 C 
ATOM     28  H   UNL     1      -2.208   0.687  25.832  0.00  0.00    +0.149 HD
BRANCH  19  21
ATOM      5  N   UNL     1      -2.226  -3.011  24.549  0.00  0.00    -0.250 NA
ATOM     21  C   UNL     1      -2.364  -1.716  24.912  0.00  0.00    +0.125 A 
ATOM     22  C   UNL     1      -3.518  -0.974  24.716  0.00  0.00    +0.033 A 
ATOM     24  C   UNL     1      -4.599  -1.602  24.109  0.00  0.00    +0.004 A 
ATOM     25  C   UNL     1      -3.298  -3.587  23.960  0.00  0.00    +0.111 A 
ATOM     26  C   UNL     1      -4.495  -2.933  23.720  0.00  0.00    +0.020 A 
ENDBRANCH  19  21
ENDBRANCH  13   3
ENDBRANCH   7  13
BRANCH   9  14
ATOM     14  C   UNL     1      -2.290   3.519  22.999  0.00  0.00    +0.103 C 
BRANCH  14  18
ATOM      1  O   UNL     1      -3.133   1.751  24.420  0.00  0.00    -0.276 OA
ATOM      4  N   UNL     1      -4.103   3.860  24.518  0.00  0.00    -0.304 N 
ATOM     18  C   UNL     1      -3.199   2.920  24.048  0.00  0.00    +0.214 C 
ATOM     29  H   UNL     1      -4.066   4.809  24.156  0.00  0.00    +0.150 HD
BRANCH   4  20
ATOM     20  C   UNL     1      -5.096   3.566  25.527  0.00  0.00    +0.193 C 
BRANCH  20  23
ATOM     23  C   UNL     1      -5.876   2.381  25.169  0.00  0.00    -0.087 C 
ATOM     27  C   UNL     1      -6.513   1.407  24.876  0.00  0.00    +0.005 C 
ENDBRANCH  20  23
ENDBRANCH   4  20
ENDBRANCH  14  18
ENDBRANCH   9  14
TORSDOF 8
ENDMDL
