MODEL 1
REMARK VINA RESULT:      -4.7      0.000      0.000
REMARK  Name = 28963147
REMARK  11 active torsions:
REMARK  status: ('A' for Active; 'I' for Inactive)
REMARK    1  A    between atoms: O_1  and  C_11
REMARK    2  A    between atoms: N_5  and  C_15
REMARK    3  A    between atoms: N_6  and  C_24
REMARK    4  A    between atoms: N_7  and  C_25
REMARK    5  A    between atoms: C_8  and  C_18
REMARK    6  A    between atoms: C_10  and  C_20
REMARK    7  A    between atoms: C_14  and  C_19
REMARK    8  A    between atoms: C_19  and  C_21
REMARK    9  A    between atoms: C_19  and  C_22
REMARK   10  A    between atoms: C_24  and  C_26
REMARK   11  A    between atoms: C_25  and  C_27
REMARK                            x       y       z     vdW  Elec       q    Type
REMARK                         _______ _______ _______ _____ _____    ______ ____
ROOT
ATOM      8  C   UNL     1      -2.108  -0.663  25.038  0.00  0.00    -0.027 C 
ATOM      9  C   UNL     1      -2.308   0.515  24.026  0.00  0.00    +0.028 C 
ATOM     10  C   UNL     1      -0.941   1.225  23.718  0.00  0.00    +0.012 C 
ATOM     11  C   UNL     1      -3.463   1.454  24.477  0.00  0.00    +0.122 C 
ATOM     12  C   UNL     1      -3.448  -1.410  25.233  0.00  0.00    +0.007 C 
ATOM     13  C   UNL     1      -1.091  -1.667  24.448  0.00  0.00    +0.009 C 
ATOM     14  C   UNL     1      -4.773   0.688  24.771  0.00  0.00    +0.029 C 
ATOM     15  C   UNL     1       0.096   0.190  23.196  0.00  0.00    +0.078 C 
ATOM     16  C   UNL     1      -4.572  -0.499  25.712  0.00  0.00    +0.007 C 
ATOM     17  C   UNL     1       0.247  -1.030  24.104  0.00  0.00    +0.023 C 
ATOM     18  C   UNL     1      -1.603  -0.179  26.421  0.00  0.00    +0.011 C 
ATOM     20  C   UNL     1      -1.061   2.376  22.706  0.00  0.00    +0.010 C 
ENDROOT
BRANCH  15   5
ATOM      3  O   UNL     1       2.639  -1.172  23.125  0.00  0.00    -0.253 OA
ATOM      5  N   UNL     1       1.402   0.789  23.011  0.00  0.00    -0.296 N 
ATOM      7  N   UNL     1       3.686   0.873  22.799  0.00  0.00    -0.300 N 
ATOM     23  C   UNL     1       2.580   0.050  22.991  0.00  0.00    +0.300 C 
ATOM     31  H   UNL     1       1.468   1.801  22.972  0.00  0.00    +0.151 HD
ATOM     34  H   UNL     1       3.539   1.871  22.684  0.00  0.00    +0.150 HD
BRANCH   7  25
ATOM     25  C   UNL     1       5.037   0.366  22.736  0.00  0.00    +0.102 C 
ATOM     27  C   UNL     1       5.596   0.104  24.118  0.00  0.00    +0.024 C 
ENDBRANCH   7  25
ENDBRANCH  15   5
BRANCH  11   1
ATOM      1  O   UNL     1      -3.758   2.383  23.432  0.00  0.00    -0.391 OA
ATOM     32  H   UNL     1      -4.300   3.098  23.809  0.00  0.00    +0.210 HD
ENDBRANCH  11   1
BRANCH  14  19
ATOM     19  C   UNL     1      -5.858   1.612  25.337  0.00  0.00    +0.077 C 
ATOM     21  C   UNL     1      -7.045   1.675  24.382  0.00  0.00    +0.017 C 
BRANCH  19  22
ATOM      2  O   UNL     1      -5.741   4.018  25.085  0.00  0.00    -0.276 OA
ATOM      6  N   UNL     1      -4.188   2.970  26.452  0.00  0.00    -0.308 N 
ATOM     22  C   UNL     1      -5.277   3.000  25.594  0.00  0.00    +0.217 C 
ATOM     33  H   UNL     1      -3.854   2.078  26.804  0.00  0.00    +0.149 HD
BRANCH   6  24
ATOM     24  C   UNL     1      -3.469   4.160  26.844  0.00  0.00    +0.178 C 
BRANCH  24  26
ATOM      4  O   UNL     1      -1.249   3.381  26.229  0.00  0.00    -0.466 OA
ATOM     26  C   UNL     1      -2.202   4.334  26.056  0.00  0.00    +0.122 A 
ATOM     28  C   UNL     1      -1.775   5.287  25.160  0.00  0.00    +0.046 A 
ATOM     29  C   UNL     1      -0.477   4.894  24.757  0.00  0.00    +0.041 A 
ATOM     30  C   UNL     1      -0.203   3.728  25.435  0.00  0.00    +0.195 A 
ENDBRANCH  24  26
ENDBRANCH   6  24
ENDBRANCH  19  22
ENDBRANCH  14  19
TORSDOF 7
ENDMDL
