MODEL 1
REMARK VINA RESULT:      -0.5      0.000      0.000
REMARK  Name = 51137355
REMARK  6 active torsions:
REMARK  status: ('A' for Active; 'I' for Inactive)
REMARK    1  A    between atoms: S_1  and  C_19
REMARK    2  A    between atoms: S_1  and  C_23
REMARK    3  A    between atoms: N_5  and  C_13
REMARK    4  A    between atoms: C_9  and  C_14
REMARK    5  A    between atoms: C_13  and  C_15
REMARK    6  A    between atoms: C_18  and  C_22
REMARK                            x       y       z     vdW  Elec       q    Type
REMARK                         _______ _______ _______ _____ _____    ______ ____
ROOT
ATOM      5  N   UNL     1      -1.453  -2.843  24.338  0.00  0.00    -0.297 NA
ATOM      9  C   UNL     1       0.246  -1.311  23.828  0.00  0.00    +0.092 C 
ATOM     10  C   UNL     1      -1.254  -1.571  23.641  0.00  0.00    +0.097 C 
ATOM     11  C   UNL     1       0.622  -2.091  25.100  0.00  0.00    +0.029 C 
ATOM     12  C   UNL     1      -0.681  -2.721  25.575  0.00  0.00    +0.085 C 
ENDROOT
BRANCH   9  14
ATOM      2  O   UNL     1      -0.369   1.005  24.332  0.00  0.00    -0.420 OA
ATOM      6  N   UNL     1       1.695   0.770  23.500  0.00  0.00    -0.112 NA
ATOM      7  N   UNL     1       1.480   2.115  23.736  0.00  0.00    -0.107 NA
ATOM     14  C   UNL     1       0.589   0.161  23.862  0.00  0.00    +0.222 A 
ATOM     18  C   UNL     1       0.263   2.205  24.221  0.00  0.00    +0.250 A 
BRANCH  18  22
ATOM      8  N   UNL     1      -2.231   4.281  26.036  0.00  0.00    -0.263 NA
ATOM     22  C   UNL     1      -0.487   3.352  24.644  0.00  0.00    +0.057 A 
ATOM     24  C   UNL     1      -0.233   4.611  24.110  0.00  0.00    +0.016 A 
ATOM     25  C   UNL     1      -1.488   3.241  25.596  0.00  0.00    +0.124 A 
ATOM     26  C   UNL     1      -0.977   5.704  24.538  0.00  0.00    +0.020 A 
ATOM     27  C   UNL     1      -1.956   5.488  25.495  0.00  0.00    +0.111 A 
ENDBRANCH  18  22
ENDBRANCH   9  14
BRANCH   5  13
ATOM     13  C   UNL     1      -2.859  -3.125  24.588  0.00  0.00    +0.119 C 
BRANCH  13  15
ATOM     15  C   UNL     1      -3.654  -1.863  24.802  0.00  0.00    -0.033 A 
ATOM     16  C   UNL     1      -3.504  -1.137  25.984  0.00  0.00    +0.007 A 
ATOM     17  C   UNL     1      -4.539  -1.422  23.820  0.00  0.00    +0.007 A 
ATOM     19  C   UNL     1      -5.126   0.473  25.199  0.00  0.00    +0.088 A 
ATOM     20  C   UNL     1      -4.240   0.031  26.181  0.00  0.00    +0.027 A 
ATOM     21  C   UNL     1      -5.276  -0.255  24.018  0.00  0.00    +0.027 A 
BRANCH  19   1
ATOM      1  S   UNL     1      -6.044   1.937  25.447  0.00  0.00    -0.006 S 
ATOM      3  O   UNL     1      -7.205   1.919  24.567  0.00  0.00    -0.170 OA
ATOM      4  O   UNL     1      -6.226   2.115  26.880  0.00  0.00    -0.170 OA
ATOM     23  C   UNL     1      -4.974   3.233  24.867  0.00  0.00    +0.200 C 
ENDBRANCH  19   1
ENDBRANCH  13  15
ENDBRANCH   5  13
TORSDOF 5
ENDMDL
MODEL 2
REMARK VINA RESULT:      -0.2      2.675      7.246
REMARK  Name = 51137355
REMARK  6 active torsions:
REMARK  status: ('A' for Active; 'I' for Inactive)
REMARK    1  A    between atoms: S_1  and  C_19
REMARK    2  A    between atoms: S_1  and  C_23
REMARK    3  A    between atoms: N_5  and  C_13
REMARK    4  A    between atoms: C_9  and  C_14
REMARK    5  A    between atoms: C_13  and  C_15
REMARK    6  A    between atoms: C_18  and  C_22
REMARK                            x       y       z     vdW  Elec       q    Type
REMARK                         _______ _______ _______ _____ _____    ______ ____
ROOT
ATOM      5  N   UNL     1      -2.613   4.955  25.446  0.00  0.00    -0.297 NA
ATOM      9  C   UNL     1      -4.535   3.650  25.127  0.00  0.00    +0.092 C 
ATOM     10  C   UNL     1      -3.137   3.918  24.554  0.00  0.00    +0.097 C 
ATOM     11  C   UNL     1      -4.439   4.074  26.603  0.00  0.00    +0.029 C 
ATOM     12  C   UNL     1      -2.997   4.526  26.790  0.00  0.00    +0.085 C 
ENDROOT
BRANCH   9  14
ATOM      2  O   UNL     1      -4.038   1.276  24.794  0.00  0.00    -0.420 OA
ATOM      6  N   UNL     1      -6.223   1.759  24.794  0.00  0.00    -0.112 NA
ATOM      7  N   UNL     1      -6.086   0.398  24.597  0.00  0.00    -0.107 NA
ATOM     14  C   UNL     1      -5.002   2.231  24.903  0.00  0.00    +0.222 A 
ATOM     18  C   UNL     1      -4.795   0.161  24.605  0.00  0.00    +0.250 A 
BRANCH  18  22
ATOM      8  N   UNL     1      -2.037  -2.326  24.781  0.00  0.00    -0.263 NA
ATOM     22  C   UNL     1      -4.074  -1.068  24.447  0.00  0.00    +0.057 A 
ATOM     24  C   UNL     1      -4.662  -2.169  23.832  0.00  0.00    +0.016 A 
ATOM     25  C   UNL     1      -2.771  -1.197  24.900  0.00  0.00    +0.124 A 
ATOM     26  C   UNL     1      -3.938  -3.348  23.692  0.00  0.00    +0.020 A 
ATOM     27  C   UNL     1      -2.641  -3.374  24.179  0.00  0.00    +0.111 A 
ENDBRANCH  18  22
ENDBRANCH   9  14
BRANCH   5  13
ATOM     13  C   UNL     1      -1.175   5.129  25.309  0.00  0.00    +0.119 C 
BRANCH  13  15
ATOM     15  C   UNL     1      -0.506   3.884  24.787  0.00  0.00    -0.033 A 
ATOM     16  C   UNL     1      -0.507   2.719  25.556  0.00  0.00    +0.007 A 
ATOM     17  C   UNL     1       0.113   3.895  23.539  0.00  0.00    +0.007 A 
ATOM     19  C   UNL     1       0.731   1.577  23.824  0.00  0.00    +0.088 A 
ATOM     20  C   UNL     1       0.111   1.566  25.073  0.00  0.00    +0.027 A 
ATOM     21  C   UNL     1       0.732   2.742  23.057  0.00  0.00    +0.027 A 
BRANCH  19   1
ATOM      1  S   UNL     1       1.502   0.132  23.220  0.00  0.00    -0.006 S 
ATOM      3  O   UNL     1       1.415  -0.909  24.236  0.00  0.00    -0.170 OA
ATOM      4  O   UNL     1       0.991  -0.123  21.880  0.00  0.00    -0.170 OA
ATOM     23  C   UNL     1       3.219   0.573  23.076  0.00  0.00    +0.200 C 
ENDBRANCH  19   1
ENDBRANCH  13  15
ENDBRANCH   5  13
TORSDOF 5
ENDMDL
MODEL 3
REMARK VINA RESULT:       0.5      2.522      5.313
REMARK  Name = 51137355
REMARK  6 active torsions:
REMARK  status: ('A' for Active; 'I' for Inactive)
REMARK    1  A    between atoms: S_1  and  C_19
REMARK    2  A    between atoms: S_1  and  C_23
REMARK    3  A    between atoms: N_5  and  C_13
REMARK    4  A    between atoms: C_9  and  C_14
REMARK    5  A    between atoms: C_13  and  C_15
REMARK    6  A    between atoms: C_18  and  C_22
REMARK                            x       y       z     vdW  Elec       q    Type
REMARK                         _______ _______ _______ _____ _____    ______ ____
ROOT
ATOM      5  N   UNL     1      -3.599  -2.324  25.230  0.00  0.00    -0.297 NA
ATOM      9  C   UNL     1      -4.782  -0.305  25.371  0.00  0.00    +0.092 C 
ATOM     10  C   UNL     1      -3.523  -1.016  25.884  0.00  0.00    +0.097 C 
ATOM     11  C   UNL     1      -5.105  -0.998  24.037  0.00  0.00    +0.029 C 
ATOM     12  C   UNL     1      -4.005  -2.035  23.855  0.00  0.00    +0.085 C 
ENDROOT
BRANCH   9  14
ATOM      2  O   UNL     1      -3.354   1.665  25.094  0.00  0.00    -0.420 OA
ATOM      6  N   UNL     1      -5.523   2.143  25.365  0.00  0.00    -0.112 NA
ATOM      7  N   UNL     1      -4.838   3.334  25.222  0.00  0.00    -0.107 NA
ATOM     14  C   UNL     1      -4.617   1.195  25.284  0.00  0.00    +0.222 A 
ATOM     18  C   UNL     1      -3.576   3.007  25.066  0.00  0.00    +0.250 A 
BRANCH  18  22
ATOM      8  N   UNL     1      -0.113   4.025  24.174  0.00  0.00    -0.263 NA
ATOM     22  C   UNL     1      -2.418   3.832  24.874  0.00  0.00    +0.057 A 
ATOM     24  C   UNL     1      -2.445   5.187  25.185  0.00  0.00    +0.016 A 
ATOM     25  C   UNL     1      -1.238   3.304  24.377  0.00  0.00    +0.124 A 
ATOM     26  C   UNL     1      -1.307   5.962  24.990  0.00  0.00    +0.020 A 
ATOM     27  C   UNL     1      -0.177   5.338  24.487  0.00  0.00    +0.111 A 
ENDBRANCH  18  22
ENDBRANCH   9  14
BRANCH   5  13
ATOM     13  C   UNL     1      -2.340  -3.051  25.296  0.00  0.00    +0.119 C 
BRANCH  13  15
ATOM     15  C   UNL     1      -1.203  -2.258  24.706  0.00  0.00    -0.033 A 
ATOM     16  C   UNL     1       0.093  -2.432  25.193  0.00  0.00    +0.007 A 
ATOM     17  C   UNL     1      -1.446  -1.351  23.677  0.00  0.00    +0.007 A 
ATOM     19  C   UNL     1       0.903  -0.789  23.617  0.00  0.00    +0.088 A 
ATOM     20  C   UNL     1       1.146  -1.697  24.647  0.00  0.00    +0.027 A 
ATOM     21  C   UNL     1      -0.393  -0.616  23.132  0.00  0.00    +0.027 A 
BRANCH  19   1
ATOM      1  S   UNL     1       2.222   0.127  22.933  0.00  0.00    -0.006 S 
ATOM      3  O   UNL     1       2.198  -0.022  21.484  0.00  0.00    -0.170 OA
ATOM      4  O   UNL     1       2.198   1.458  23.522  0.00  0.00    -0.170 OA
ATOM     23  C   UNL     1       3.684  -0.702  23.513  0.00  0.00    +0.200 C 
ENDBRANCH  19   1
ENDBRANCH  13  15
ENDBRANCH   5  13
TORSDOF 5
ENDMDL
MODEL 4
REMARK VINA RESULT:       1.0      1.208      5.398
REMARK  Name = 51137355
REMARK  6 active torsions:
REMARK  status: ('A' for Active; 'I' for Inactive)
REMARK    1  A    between atoms: S_1  and  C_19
REMARK    2  A    between atoms: S_1  and  C_23
REMARK    3  A    between atoms: N_5  and  C_13
REMARK    4  A    between atoms: C_9  and  C_14
REMARK    5  A    between atoms: C_13  and  C_15
REMARK    6  A    between atoms: C_18  and  C_22
REMARK                            x       y       z     vdW  Elec       q    Type
REMARK                         _______ _______ _______ _____ _____    ______ ____
ROOT
ATOM      5  N   UNL     1      -0.610   4.920  24.903  0.00  0.00    -0.297 NA
ATOM      9  C   UNL     1       0.631   2.966  24.534  0.00  0.00    +0.092 C 
ATOM     10  C   UNL     1      -0.551   3.523  25.338  0.00  0.00    +0.097 C 
ATOM     11  C   UNL     1       0.727   3.877  23.298  0.00  0.00    +0.029 C 
ATOM     12  C   UNL     1      -0.414   4.873  23.454  0.00  0.00    +0.085 C 
ENDROOT
BRANCH   9  14
ATOM      2  O   UNL     1      -0.643   0.879  24.659  0.00  0.00    -0.420 OA
ATOM      6  N   UNL     1       1.316   0.689  23.594  0.00  0.00    -0.112 NA
ATOM      7  N   UNL     1       0.707  -0.552  23.592  0.00  0.00    -0.107 NA
ATOM     14  C   UNL     1       0.493   1.493  24.228  0.00  0.00    +0.222 A 
ATOM     18  C   UNL     1      -0.434  -0.393  24.223  0.00  0.00    +0.250 A 
BRANCH  18  22
ATOM      8  N   UNL     1      -2.515  -3.470  24.065  0.00  0.00    -0.263 NA
ATOM     22  C   UNL     1      -1.472  -1.338  24.519  0.00  0.00    +0.057 A 
ATOM     24  C   UNL     1      -2.421  -1.074  25.502  0.00  0.00    +0.016 A 
ATOM     25  C   UNL     1      -1.562  -2.539  23.836  0.00  0.00    +0.124 A 
ATOM     26  C   UNL     1      -3.416  -2.008  25.766  0.00  0.00    +0.020 A 
ATOM     27  C   UNL     1      -3.419  -3.180  25.027  0.00  0.00    +0.111 A 
ENDBRANCH  18  22
ENDBRANCH   9  14
BRANCH   5  13
ATOM     13  C   UNL     1      -1.862   5.564  25.273  0.00  0.00    +0.119 C 
BRANCH  13  15
ATOM     15  C   UNL     1      -3.009   4.589  25.292  0.00  0.00    -0.033 A 
ATOM     16  C   UNL     1      -3.482   4.046  24.096  0.00  0.00    +0.007 A 
ATOM     17  C   UNL     1      -3.599   4.229  26.502  0.00  0.00    +0.007 A 
ATOM     19  C   UNL     1      -5.135   2.783  25.324  0.00  0.00    +0.088 A 
ATOM     20  C   UNL     1      -4.544   3.143  24.113  0.00  0.00    +0.027 A 
ATOM     21  C   UNL     1      -4.662   3.326  26.519  0.00  0.00    +0.027 A 
BRANCH  19   1
ATOM      1  S   UNL     1      -6.463   1.649  25.345  0.00  0.00    -0.006 S 
ATOM      3  O   UNL     1      -6.870   1.425  26.725  0.00  0.00    -0.170 OA
ATOM      4  O   UNL     1      -7.445   2.091  24.365  0.00  0.00    -0.170 OA
ATOM     23  C   UNL     1      -5.753   0.127  24.760  0.00  0.00    +0.200 C 
ENDBRANCH  19   1
ENDBRANCH  13  15
ENDBRANCH   5  13
TORSDOF 5
ENDMDL
MODEL 5
REMARK VINA RESULT:       1.4      2.619      4.402
REMARK  Name = 51137355
REMARK  6 active torsions:
REMARK  status: ('A' for Active; 'I' for Inactive)
REMARK    1  A    between atoms: S_1  and  C_19
REMARK    2  A    between atoms: S_1  and  C_23
REMARK    3  A    between atoms: N_5  and  C_13
REMARK    4  A    between atoms: C_9  and  C_14
REMARK    5  A    between atoms: C_13  and  C_15
REMARK    6  A    between atoms: C_18  and  C_22
REMARK                            x       y       z     vdW  Elec       q    Type
REMARK                         _______ _______ _______ _____ _____    ______ ____
ROOT
ATOM      5  N   UNL     1      -3.375  -2.023  24.394  0.00  0.00    -0.297 NA
ATOM      9  C   UNL     1      -1.087  -1.812  23.927  0.00  0.00    +0.092 C 
ATOM     10  C   UNL     1      -2.472  -1.344  23.461  0.00  0.00    +0.097 C 
ATOM     11  C   UNL     1      -1.278  -2.183  25.408  0.00  0.00    +0.029 C 
ATOM     12  C   UNL     1      -2.741  -1.881  25.704  0.00  0.00    +0.085 C 
ENDROOT
BRANCH   9  14
ATOM      2  O   UNL     1       1.285  -1.232  23.745  0.00  0.00    -0.420 OA
ATOM      6  N   UNL     1      -0.105   0.479  23.356  0.00  0.00    -0.112 NA
ATOM      7  N   UNL     1       1.190   0.941  23.222  0.00  0.00    -0.107 NA
ATOM     14  C   UNL     1      -0.002  -0.795  23.662  0.00  0.00    +0.222 A 
ATOM     18  C   UNL     1       1.967  -0.090  23.457  0.00  0.00    +0.250 A 
BRANCH  18  22
ATOM      8  N   UNL     1       5.369  -1.534  23.865  0.00  0.00    -0.263 NA
ATOM     22  C   UNL     1       3.398  -0.196  23.458  0.00  0.00    +0.057 A 
ATOM     24  C   UNL     1       4.196   0.877  23.076  0.00  0.00    +0.016 A 
ATOM     25  C   UNL     1       4.028  -1.369  23.841  0.00  0.00    +0.124 A 
ATOM     26  C   UNL     1       5.580   0.746  23.088  0.00  0.00    +0.020 A 
ATOM     27  C   UNL     1       6.112  -0.470  23.487  0.00  0.00    +0.111 A 
ENDBRANCH  18  22
ENDBRANCH   9  14
BRANCH   5  13
ATOM     13  C   UNL     1      -4.720  -1.468  24.365  0.00  0.00    +0.119 C 
BRANCH  13  15
ATOM     15  C   UNL     1      -4.715   0.026  24.563  0.00  0.00    -0.033 A 
ATOM     16  C   UNL     1      -3.788   0.815  23.882  0.00  0.00    +0.007 A 
ATOM     17  C   UNL     1      -5.636   0.618  25.426  0.00  0.00    +0.007 A 
ATOM     19  C   UNL     1      -4.704   2.791  24.929  0.00  0.00    +0.088 A 
ATOM     20  C   UNL     1      -3.783   2.198  24.065  0.00  0.00    +0.027 A 
ATOM     21  C   UNL     1      -5.630   2.000  25.609  0.00  0.00    +0.027 A 
BRANCH  19   1
ATOM      1  S   UNL     1      -4.699   4.522  25.153  0.00  0.00    -0.006 S 
ATOM      3  O   UNL     1      -4.274   5.157  23.913  0.00  0.00    -0.170 OA
ATOM      4  O   UNL     1      -5.968   4.899  25.760  0.00  0.00    -0.170 OA
ATOM     23  C   UNL     1      -3.415   4.809  26.349  0.00  0.00    +0.200 C 
ENDBRANCH  19   1
ENDBRANCH  13  15
ENDBRANCH   5  13
TORSDOF 5
ENDMDL
MODEL 6
REMARK VINA RESULT:       2.2      2.515      5.308
REMARK  Name = 51137355
REMARK  6 active torsions:
REMARK  status: ('A' for Active; 'I' for Inactive)
REMARK    1  A    between atoms: S_1  and  C_19
REMARK    2  A    between atoms: S_1  and  C_23
REMARK    3  A    between atoms: N_5  and  C_13
REMARK    4  A    between atoms: C_9  and  C_14
REMARK    5  A    between atoms: C_13  and  C_15
REMARK    6  A    between atoms: C_18  and  C_22
REMARK                            x       y       z     vdW  Elec       q    Type
REMARK                         _______ _______ _______ _____ _____    ______ ____
ROOT
ATOM      5  N   UNL     1      -5.198   3.252  25.592  0.00  0.00    -0.297 NA
ATOM      9  C   UNL     1      -3.104   4.298  25.451  0.00  0.00    +0.092 C 
ATOM     10  C   UNL     1      -3.793   3.013  25.929  0.00  0.00    +0.097 C 
ATOM     11  C   UNL     1      -4.032   4.854  24.357  0.00  0.00    +0.029 C 
ATOM     12  C   UNL     1      -5.170   3.847  24.256  0.00  0.00    +0.085 C 
ENDROOT
BRANCH   9  14
ATOM      2  O   UNL     1      -1.354   2.828  24.574  0.00  0.00    -0.420 OA
ATOM      6  N   UNL     1      -0.664   4.914  24.998  0.00  0.00    -0.112 NA
ATOM      7  N   UNL     1       0.414   4.197  24.514  0.00  0.00    -0.107 NA
ATOM     14  C   UNL     1      -1.675   4.074  25.017  0.00  0.00    +0.222 A 
ATOM     18  C   UNL     1      -0.035   2.986  24.279  0.00  0.00    +0.250 A 
BRANCH  18  22
ATOM      8  N   UNL     1       2.678   0.812  22.961  0.00  0.00    -0.263 NA
ATOM     22  C   UNL     1       0.638   1.827  23.770  0.00  0.00    +0.057 A 
ATOM     24  C   UNL     1      -0.041   0.627  23.586  0.00  0.00    +0.016 A 
ATOM     25  C   UNL     1       1.985   1.867  23.445  0.00  0.00    +0.124 A 
ATOM     26  C   UNL     1       0.639  -0.480  23.090  0.00  0.00    +0.020 A 
ATOM     27  C   UNL     1       1.985  -0.337  22.796  0.00  0.00    +0.111 A 
ENDBRANCH  18  22
ENDBRANCH   9  14
BRANCH   5  13
ATOM     13  C   UNL     1      -5.995   2.035  25.642  0.00  0.00    +0.119 C 
BRANCH  13  15
ATOM     15  C   UNL     1      -5.159   0.807  25.391  0.00  0.00    -0.033 A 
ATOM     16  C   UNL     1      -4.504   0.182  26.452  0.00  0.00    +0.007 A 
ATOM     17  C   UNL     1      -5.040   0.297  24.099  0.00  0.00    +0.007 A 
ATOM     19  C   UNL     1      -3.611  -1.466  24.927  0.00  0.00    +0.088 A 
ATOM     20  C   UNL     1      -3.731  -0.955  26.220  0.00  0.00    +0.027 A 
ATOM     21  C   UNL     1      -4.266  -0.840  23.867  0.00  0.00    +0.027 A 
BRANCH  19   1
ATOM      1  S   UNL     1      -2.646  -2.892  24.639  0.00  0.00    -0.006 S 
ATOM      3  O   UNL     1      -3.183  -3.992  25.427  0.00  0.00    -0.170 OA
ATOM      4  O   UNL     1      -2.489  -3.044  23.199  0.00  0.00    -0.170 OA
ATOM     23  C   UNL     1      -1.053  -2.494  25.323  0.00  0.00    +0.200 C 
ENDBRANCH  19   1
ENDBRANCH  13  15
ENDBRANCH   5  13
TORSDOF 5
ENDMDL
MODEL 7
REMARK VINA RESULT:       2.7     19.338     21.011
REMARK  Name = 51137355
REMARK  6 active torsions:
REMARK  status: ('A' for Active; 'I' for Inactive)
REMARK    1  A    between atoms: S_1  and  C_19
REMARK    2  A    between atoms: S_1  and  C_23
REMARK    3  A    between atoms: N_5  and  C_13
REMARK    4  A    between atoms: C_9  and  C_14
REMARK    5  A    between atoms: C_13  and  C_15
REMARK    6  A    between atoms: C_18  and  C_22
REMARK                            x       y       z     vdW  Elec       q    Type
REMARK                         _______ _______ _______ _____ _____    ______ ____
ROOT
ATOM      5  N   UNL     1      16.350  -2.834  28.129  0.00  0.00    -0.297 NA
ATOM      9  C   UNL     1      15.546  -3.498  30.229  0.00  0.00    +0.092 C 
ATOM     10  C   UNL     1      15.663  -3.958  28.770  0.00  0.00    +0.097 C 
ATOM     11  C   UNL     1      16.690  -2.487  30.413  0.00  0.00    +0.029 C 
ATOM     12  C   UNL     1      17.403  -2.450  29.068  0.00  0.00    +0.085 C 
ENDROOT
BRANCH   9  14
ATOM      2  O   UNL     1      14.915  -5.788  30.825  0.00  0.00    -0.420 OA
ATOM      6  N   UNL     1      16.085  -4.723  32.408  0.00  0.00    -0.112 NA
ATOM      7  N   UNL     1      15.797  -5.993  32.871  0.00  0.00    -0.107 NA
ATOM     14  C   UNL     1      15.550  -4.647  31.210  0.00  0.00    +0.222 A 
ATOM     18  C   UNL     1      15.114  -6.579  31.915  0.00  0.00    +0.250 A 
BRANCH  18  22
ATOM      8  N   UNL     1      14.573 -10.191  32.607  0.00  0.00    -0.263 NA
ATOM     22  C   UNL     1      14.556  -7.898  31.845  0.00  0.00    +0.057 A 
ATOM     24  C   UNL     1      13.498  -8.183  30.987  0.00  0.00    +0.016 A 
ATOM     25  C   UNL     1      15.053  -8.928  32.626  0.00  0.00    +0.124 A 
ATOM     26  C   UNL     1      12.978  -9.472  30.940  0.00  0.00    +0.020 A 
ATOM     27  C   UNL     1      13.546 -10.431  31.763  0.00  0.00    +0.111 A 
ENDBRANCH  18  22
ENDBRANCH   9  14
BRANCH   5  13
ATOM     13  C   UNL     1      16.875  -3.180  26.817  0.00  0.00    +0.119 C 
BRANCH  13  15
ATOM     15  C   UNL     1      16.779  -4.659  26.546  0.00  0.00    -0.033 A 
ATOM     16  C   UNL     1      16.704  -5.123  25.233  0.00  0.00    +0.007 A 
ATOM     17  C   UNL     1      16.765  -5.562  27.608  0.00  0.00    +0.007 A 
ATOM     19  C   UNL     1      16.601  -7.397  26.044  0.00  0.00    +0.088 A 
ATOM     20  C   UNL     1      16.615  -6.492  24.982  0.00  0.00    +0.027 A 
ATOM     21  C   UNL     1      16.676  -6.931  27.357  0.00  0.00    +0.027 A 
BRANCH  19   1
ATOM      1  S   UNL     1      16.494  -9.110  25.729  0.00  0.00    -0.006 S 
ATOM      3  O   UNL     1      15.089  -9.484  25.628  0.00  0.00    -0.170 OA
ATOM      4  O   UNL     1      17.405  -9.423  24.637  0.00  0.00    -0.170 OA
ATOM     23  C   UNL     1      17.127  -9.872  27.206  0.00  0.00    +0.200 C 
ENDBRANCH  19   1
ENDBRANCH  13  15
ENDBRANCH   5  13
TORSDOF 5
ENDMDL
