MODEL 1
REMARK VINA RESULT:      -7.1      0.000      0.000
REMARK  Name = 75367066
REMARK  6 active torsions:
REMARK  status: ('A' for Active; 'I' for Inactive)
REMARK    1  A    between atoms: O_2  and  C_8
REMARK    2  A    between atoms: N_4  and  C_7
REMARK    3  A    between atoms: N_4  and  C_11
REMARK    4  A    between atoms: N_5  and  C_15
REMARK    5  A    between atoms: C_9  and  C_15
REMARK    6  A    between atoms: C_10  and  C_18
REMARK                            x       y       z     vdW  Elec       q    Type
REMARK                         _______ _______ _______ _____ _____    ______ ____
ROOT
ATOM      1  O   UNL     1      -1.156   0.976  22.869  0.00  0.00    -0.371 OA
ATOM      7  C   UNL     1      -1.102   2.843  24.336  0.00  0.00    +0.111 C 
ATOM      8  C   UNL     1      -0.480   1.648  25.034  0.00  0.00    +0.164 C 
ATOM      9  C   UNL     1      -0.120   0.769  23.844  0.00  0.00    +0.165 C 
ATOM     14  C   UNL     1      -1.882   2.168  23.219  0.00  0.00    +0.181 C 
ENDROOT
BRANCH   8   2
ATOM      2  O   UNL     1       0.659   1.995  25.797  0.00  0.00    -0.388 OA
ATOM     24  H   UNL     1       1.126   1.177  26.040  0.00  0.00    +0.210 HD
ENDBRANCH   8   2
BRANCH   7   4
ATOM      4  N   UNL     1      -1.943   3.653  25.203  0.00  0.00    -0.306 NA
ATOM     21  H   UNL     1      -1.755   4.643  25.048  0.00  0.00    +0.123 HD
BRANCH   4  11
ATOM      6  N   UNL     1      -5.998   2.641  25.998  0.00  0.00    -0.316 NA
ATOM     11  C   UNL     1      -3.356   3.374  24.962  0.00  0.00    +0.056 C 
ATOM     16  C   UNL     1      -4.248   4.375  25.707  0.00  0.00    +0.034 C 
ATOM     17  C   UNL     1      -3.697   1.943  25.392  0.00  0.00    +0.034 C 
ATOM     19  C   UNL     1      -5.725   4.009  25.551  0.00  0.00    +0.082 C 
ATOM     20  C   UNL     1      -5.194   1.672  25.248  0.00  0.00    +0.082 C 
ATOM     23  H   UNL     1      -6.987   2.434  25.864  0.00  0.00    +0.122 HD
ENDBRANCH   4  11
ENDBRANCH   7   4
BRANCH   9  15
ATOM     15  C   UNL     1      -0.031  -0.706  24.192  0.00  0.00    +0.138 C 
BRANCH  15   5
ATOM      3  O   UNL     1      -1.828  -0.879  26.472  0.00  0.00    -0.276 OA
ATOM      5  N   UNL     1      -1.331  -1.311  24.237  0.00  0.00    -0.313 N 
ATOM     18  C   UNL     1      -2.121  -1.345  25.377  0.00  0.00    +0.216 C 
ATOM     22  H   UNL     1      -1.691  -1.721  23.380  0.00  0.00    +0.149 HD
BRANCH  18  10
ATOM     10  C   UNL     1      -3.438  -2.024  25.195  0.00  0.00    +0.075 C 
ATOM     12  C   UNL     1      -3.593  -2.984  24.062  0.00  0.00    +0.013 C 
ATOM     13  C   UNL     1      -4.276  -1.649  24.019  0.00  0.00    +0.013 C 
ENDBRANCH  18  10
ENDBRANCH  15   5
ENDBRANCH   9  15
TORSDOF 6
ENDMDL
MODEL 2
REMARK VINA RESULT:      -6.6      1.741      4.723
REMARK  Name = 75367066
REMARK  6 active torsions:
REMARK  status: ('A' for Active; 'I' for Inactive)
REMARK    1  A    between atoms: O_2  and  C_8
REMARK    2  A    between atoms: N_4  and  C_7
REMARK    3  A    between atoms: N_4  and  C_11
REMARK    4  A    between atoms: N_5  and  C_15
REMARK    5  A    between atoms: C_9  and  C_15
REMARK    6  A    between atoms: C_10  and  C_18
REMARK                            x       y       z     vdW  Elec       q    Type
REMARK                         _______ _______ _______ _____ _____    ______ ____
ROOT
ATOM      1  O   UNL     1      -0.104   3.652  25.726  0.00  0.00    -0.371 OA
ATOM      7  C   UNL     1      -0.353   1.331  25.288  0.00  0.00    +0.111 C 
ATOM      8  C   UNL     1      -1.494   2.084  24.629  0.00  0.00    +0.164 C 
ATOM      9  C   UNL     1      -0.910   3.487  24.547  0.00  0.00    +0.165 C 
ATOM     14  C   UNL     1       0.140   2.355  26.298  0.00  0.00    +0.181 C 
ENDROOT
BRANCH   8   2
ATOM      2  O   UNL     1      -1.819   1.571  23.351  0.00  0.00    -0.388 OA
ATOM     24  H   UNL     1      -1.060   1.717  22.761  0.00  0.00    +0.210 HD
ENDBRANCH   8   2
BRANCH   7   4
ATOM      4  N   UNL     1      -0.759   0.079  25.905  0.00  0.00    -0.306 NA
ATOM     21  H   UNL     1      -1.201   0.259  26.806  0.00  0.00    +0.123 HD
BRANCH   4  11
ATOM      6  N   UNL     1      -3.520  -2.897  24.631  0.00  0.00    -0.316 NA
ATOM     11  C   UNL     1      -1.680  -0.652  25.039  0.00  0.00    +0.056 C 
ATOM     16  C   UNL     1      -3.095  -0.666  25.630  0.00  0.00    +0.034 C 
ATOM     17  C   UNL     1      -1.184  -2.086  24.824  0.00  0.00    +0.034 C 
ATOM     19  C   UNL     1      -4.030  -1.532  24.784  0.00  0.00    +0.082 C 
ATOM     20  C   UNL     1      -2.193  -2.895  24.010  0.00  0.00    +0.082 C 
ATOM     23  H   UNL     1      -4.163  -3.433  24.050  0.00  0.00    +0.122 HD
ENDBRANCH   4  11
ENDBRANCH   7   4
BRANCH   9  15
ATOM     15  C   UNL     1      -1.968   4.575  24.492  0.00  0.00    +0.138 C 
BRANCH  15   5
ATOM      3  O   UNL     1      -3.699   4.076  26.774  0.00  0.00    -0.276 OA
ATOM      5  N   UNL     1      -3.290   4.017  24.481  0.00  0.00    -0.313 N 
ATOM     18  C   UNL     1      -4.045   3.816  25.628  0.00  0.00    +0.216 C 
ATOM     22  H   UNL     1      -3.693   3.773  23.581  0.00  0.00    +0.149 HD
BRANCH  18  10
ATOM     10  C   UNL     1      -5.393   3.225  25.382  0.00  0.00    +0.075 C 
ATOM     12  C   UNL     1      -5.785   2.003  26.146  0.00  0.00    +0.013 C 
ATOM     13  C   UNL     1      -5.479   1.911  24.681  0.00  0.00    +0.013 C 
ENDBRANCH  18  10
ENDBRANCH  15   5
ENDBRANCH   9  15
TORSDOF 6
ENDMDL
MODEL 3
REMARK VINA RESULT:      -5.7      1.632      4.001
REMARK  Name = 75367066
REMARK  6 active torsions:
REMARK  status: ('A' for Active; 'I' for Inactive)
REMARK    1  A    between atoms: O_2  and  C_8
REMARK    2  A    between atoms: N_4  and  C_7
REMARK    3  A    between atoms: N_4  and  C_11
REMARK    4  A    between atoms: N_5  and  C_15
REMARK    5  A    between atoms: C_9  and  C_15
REMARK    6  A    between atoms: C_10  and  C_18
REMARK                            x       y       z     vdW  Elec       q    Type
REMARK                         _______ _______ _______ _____ _____    ______ ____
ROOT
ATOM      1  O   UNL     1      -2.239  -2.138  25.079  0.00  0.00    -0.371 OA
ATOM      7  C   UNL     1      -3.789  -0.759  23.924  0.00  0.00    +0.111 C 
ATOM      8  C   UNL     1      -2.563   0.063  24.277  0.00  0.00    +0.164 C 
ATOM      9  C   UNL     1      -1.529  -1.032  24.496  0.00  0.00    +0.165 C 
ATOM     14  C   UNL     1      -3.648  -1.934  24.876  0.00  0.00    +0.181 C 
ENDROOT
BRANCH   8   2
ATOM      2  O   UNL     1      -2.183   0.949  23.242  0.00  0.00    -0.388 OA
ATOM     24  H   UNL     1      -2.936   1.051  22.635  0.00  0.00    +0.210 HD
ENDBRANCH   8   2
BRANCH   7   4
ATOM      4  N   UNL     1      -5.042  -0.041  24.092  0.00  0.00    -0.306 NA
ATOM     21  H   UNL     1      -5.735  -0.645  24.532  0.00  0.00    +0.123 HD
BRANCH   4  11
ATOM      6  N   UNL     1      -5.758   3.819  25.732  0.00  0.00    -0.316 NA
ATOM     11  C   UNL     1      -4.847   1.160  24.900  0.00  0.00    +0.056 C 
ATOM     16  C   UNL     1      -6.008   1.355  25.882  0.00  0.00    +0.034 C 
ATOM     17  C   UNL     1      -4.707   2.391  23.997  0.00  0.00    +0.034 C 
ATOM     19  C   UNL     1      -5.863   2.675  26.641  0.00  0.00    +0.082 C 
ATOM     20  C   UNL     1      -4.613   3.669  24.830  0.00  0.00    +0.082 C 
ATOM     23  H   UNL     1      -5.648   4.673  26.277  0.00  0.00    +0.122 HD
ENDBRANCH   4  11
ENDBRANCH   7   4
BRANCH   9  15
ATOM     15  C   UNL     1      -0.393  -0.611  25.412  0.00  0.00    +0.138 C 
BRANCH  15   5
ATOM      3  O   UNL     1       0.732   1.758  24.157  0.00  0.00    -0.276 OA
ATOM      5  N   UNL     1      -0.540   0.754  25.831  0.00  0.00    -0.313 N 
ATOM     18  C   UNL     1       0.038   1.825  25.164  0.00  0.00    +0.216 C 
ATOM     22  H   UNL     1      -1.110   0.937  26.651  0.00  0.00    +0.149 HD
BRANCH  18  10
ATOM     10  C   UNL     1      -0.248   3.157  25.774  0.00  0.00    +0.075 C 
ATOM     12  C   UNL     1      -1.670   3.533  26.029  0.00  0.00    +0.013 C 
ATOM     13  C   UNL     1      -0.897   4.203  24.931  0.00  0.00    +0.013 C 
ENDBRANCH  18  10
ENDBRANCH  15   5
ENDBRANCH   9  15
TORSDOF 6
ENDMDL
MODEL 4
REMARK VINA RESULT:      -5.6      2.865      4.631
REMARK  Name = 75367066
REMARK  6 active torsions:
REMARK  status: ('A' for Active; 'I' for Inactive)
REMARK    1  A    between atoms: O_2  and  C_8
REMARK    2  A    between atoms: N_4  and  C_7
REMARK    3  A    between atoms: N_4  and  C_11
REMARK    4  A    between atoms: N_5  and  C_15
REMARK    5  A    between atoms: C_9  and  C_15
REMARK    6  A    between atoms: C_10  and  C_18
REMARK                            x       y       z     vdW  Elec       q    Type
REMARK                         _______ _______ _______ _____ _____    ______ ____
ROOT
ATOM      1  O   UNL     1       0.095  -0.594  24.471  0.00  0.00    -0.371 OA
ATOM      7  C   UNL     1      -1.627   1.037  24.607  0.00  0.00    +0.111 C 
ATOM      8  C   UNL     1      -0.855   1.239  23.316  0.00  0.00    +0.164 C 
ATOM      9  C   UNL     1      -0.208  -0.128  23.145  0.00  0.00    +0.165 C 
ATOM     14  C   UNL     1      -0.650   0.198  25.414  0.00  0.00    +0.181 C 
ENDROOT
BRANCH   8   2
ATOM      2  O   UNL     1      -1.694   1.566  22.225  0.00  0.00    -0.388 OA
ATOM     24  H   UNL     1      -2.609   1.341  22.465  0.00  0.00    +0.210 HD
ENDBRANCH   8   2
BRANCH   7   4
ATOM      4  N   UNL     1      -1.989   2.278  25.272  0.00  0.00    -0.306 NA
ATOM     21  H   UNL     1      -1.367   3.029  24.975  0.00  0.00    +0.123 HD
BRANCH   4  11
ATOM      6  N   UNL     1      -6.163   2.870  25.850  0.00  0.00    -0.316 NA
ATOM     11  C   UNL     1      -3.374   2.639  24.978  0.00  0.00    +0.056 C 
ATOM     16  C   UNL     1      -3.852   3.772  25.893  0.00  0.00    +0.034 C 
ATOM     17  C   UNL     1      -4.285   1.416  25.133  0.00  0.00    +0.034 C 
ATOM     19  C   UNL     1      -5.336   4.065  25.666  0.00  0.00    +0.082 C 
ATOM     20  C   UNL     1      -5.751   1.801  24.935  0.00  0.00    +0.082 C 
ATOM     23  H   UNL     1      -7.139   3.105  25.675  0.00  0.00    +0.122 HD
ENDBRANCH   4  11
ENDBRANCH   7   4
BRANCH   9  15
ATOM     15  C   UNL     1       1.061  -0.091  22.312  0.00  0.00    +0.138 C 
BRANCH  15   5
ATOM      3  O   UNL     1       3.740   0.730  21.536  0.00  0.00    -0.276 OA
ATOM      5  N   UNL     1       2.229  -0.019  23.143  0.00  0.00    -0.313 N 
ATOM     18  C   UNL     1       3.473   0.388  22.681  0.00  0.00    +0.216 C 
ATOM     22  H   UNL     1       2.127  -0.265  24.123  0.00  0.00    +0.149 HD
BRANCH  18  10
ATOM     10  C   UNL     1       4.545   0.389  23.720  0.00  0.00    +0.075 C 
ATOM     12  C   UNL     1       5.933   0.020  23.310  0.00  0.00    +0.013 C 
ATOM     13  C   UNL     1       5.120  -0.918  24.152  0.00  0.00    +0.013 C 
ENDBRANCH  18  10
ENDBRANCH  15   5
ENDBRANCH   9  15
TORSDOF 6
ENDMDL
MODEL 5
REMARK VINA RESULT:      -5.5      1.745      4.795
REMARK  Name = 75367066
REMARK  6 active torsions:
REMARK  status: ('A' for Active; 'I' for Inactive)
REMARK    1  A    between atoms: O_2  and  C_8
REMARK    2  A    between atoms: N_4  and  C_7
REMARK    3  A    between atoms: N_4  and  C_11
REMARK    4  A    between atoms: N_5  and  C_15
REMARK    5  A    between atoms: C_9  and  C_15
REMARK    6  A    between atoms: C_10  and  C_18
REMARK                            x       y       z     vdW  Elec       q    Type
REMARK                         _______ _______ _______ _____ _____    ______ ____
ROOT
ATOM      1  O   UNL     1      -0.628   1.787  26.457  0.00  0.00    -0.371 OA
ATOM      7  C   UNL     1      -0.000   0.165  24.840  0.00  0.00    +0.111 C 
ATOM      8  C   UNL     1      -0.047   1.530  24.179  0.00  0.00    +0.164 C 
ATOM      9  C   UNL     1       0.073   2.446  25.389  0.00  0.00    +0.165 C 
ATOM     14  C   UNL     1      -0.824   0.409  26.094  0.00  0.00    +0.181 C 
ENDROOT
BRANCH   8   2
ATOM      2  O   UNL     1       1.010   1.728  23.260  0.00  0.00    -0.388 OA
ATOM     24  H   UNL     1       1.352   2.630  23.377  0.00  0.00    +0.210 HD
ENDBRANCH   8   2
BRANCH   7   4
ATOM      4  N   UNL     1      -0.534  -0.904  24.012  0.00  0.00    -0.306 NA
ATOM     21  H   UNL     1       0.084  -1.714  24.044  0.00  0.00    +0.123 HD
BRANCH   4  11
ATOM      6  N   UNL     1      -4.476  -2.500  23.876  0.00  0.00    -0.316 NA
ATOM     11  C   UNL     1      -1.872  -1.286  24.457  0.00  0.00    +0.056 C 
ATOM     16  C   UNL     1      -2.065  -2.805  24.378  0.00  0.00    +0.034 C 
ATOM     17  C   UNL     1      -2.936  -0.574  23.613  0.00  0.00    +0.034 C 
ATOM     19  C   UNL     1      -3.503  -3.189  24.728  0.00  0.00    +0.082 C 
ATOM     20  C   UNL     1      -4.339  -1.046  23.994  0.00  0.00    +0.082 C 
ATOM     23  H   UNL     1      -5.418  -2.773  24.153  0.00  0.00    +0.122 HD
ENDBRANCH   4  11
ENDBRANCH   7   4
BRANCH   9  15
ATOM     15  C   UNL     1      -0.520   3.825  25.159  0.00  0.00    +0.138 C 
BRANCH  15   5
ATOM      3  O   UNL     1      -2.982   4.279  26.637  0.00  0.00    -0.276 OA
ATOM      5  N   UNL     1      -1.865   3.739  24.666  0.00  0.00    -0.313 N 
ATOM     18  C   UNL     1      -2.984   3.975  25.451  0.00  0.00    +0.216 C 
ATOM     22  H   UNL     1      -1.994   3.507  23.685  0.00  0.00    +0.149 HD
BRANCH  18  10
ATOM     10  C   UNL     1      -4.284   3.831  24.730  0.00  0.00    +0.075 C 
ATOM     12  C   UNL     1      -4.849   2.462  24.549  0.00  0.00    +0.013 C 
ATOM     13  C   UNL     1      -4.282   3.205  23.376  0.00  0.00    +0.013 C 
ENDBRANCH  18  10
ENDBRANCH  15   5
ENDBRANCH   9  15
TORSDOF 6
ENDMDL
MODEL 6
REMARK VINA RESULT:      -5.4      1.966      4.466
REMARK  Name = 75367066
REMARK  6 active torsions:
REMARK  status: ('A' for Active; 'I' for Inactive)
REMARK    1  A    between atoms: O_2  and  C_8
REMARK    2  A    between atoms: N_4  and  C_7
REMARK    3  A    between atoms: N_4  and  C_11
REMARK    4  A    between atoms: N_5  and  C_15
REMARK    5  A    between atoms: C_9  and  C_15
REMARK    6  A    between atoms: C_10  and  C_18
REMARK                            x       y       z     vdW  Elec       q    Type
REMARK                         _______ _______ _______ _____ _____    ______ ____
ROOT
ATOM      1  O   UNL     1      -4.076   3.487  25.994  0.00  0.00    -0.371 OA
ATOM      7  C   UNL     1      -2.022   3.515  24.803  0.00  0.00    +0.111 C 
ATOM      8  C   UNL     1      -2.932   2.465  24.194  0.00  0.00    +0.164 C 
ATOM      9  C   UNL     1      -4.294   2.938  24.683  0.00  0.00    +0.165 C 
ATOM     14  C   UNL     1      -2.667   3.720  26.164  0.00  0.00    +0.181 C 
ENDROOT
BRANCH   8   2
ATOM      2  O   UNL     1      -2.860   2.434  22.782  0.00  0.00    -0.388 OA
ATOM     24  H   UNL     1      -3.662   2.852  22.425  0.00  0.00    +0.210 HD
ENDBRANCH   8   2
BRANCH   7   4
ATOM      4  N   UNL     1      -0.631   3.101  24.894  0.00  0.00    -0.306 NA
ATOM     21  H   UNL     1      -0.349   3.028  25.871  0.00  0.00    +0.123 HD
BRANCH   4  11
ATOM      6  N   UNL     1       1.074  -0.686  23.967  0.00  0.00    -0.316 NA
ATOM     11  C   UNL     1      -0.427   1.819  24.224  0.00  0.00    +0.056 C 
ATOM     16  C   UNL     1      -0.612   0.652  25.201  0.00  0.00    +0.034 C 
ATOM     17  C   UNL     1       0.971   1.764  23.596  0.00  0.00    +0.034 C 
ATOM     19  C   UNL     1      -0.280  -0.680  24.527  0.00  0.00    +0.082 C 
ATOM     20  C   UNL     1       1.240   0.389  22.986  0.00  0.00    +0.082 C 
ATOM     23  H   UNL     1       1.247  -1.583  23.516  0.00  0.00    +0.122 HD
ENDBRANCH   4  11
ENDBRANCH   7   4
BRANCH   9  15
ATOM     15  C   UNL     1      -5.325   1.826  24.756  0.00  0.00    +0.138 C 
BRANCH  15   5
ATOM      3  O   UNL     1      -4.052  -0.327  23.274  0.00  0.00    -0.276 OA
ATOM      5  N   UNL     1      -4.754   0.619  25.284  0.00  0.00    -0.313 N 
ATOM     18  C   UNL     1      -4.164  -0.356  24.493  0.00  0.00    +0.216 C 
ATOM     22  H   UNL     1      -4.774   0.488  26.291  0.00  0.00    +0.149 HD
BRANCH  18  10
ATOM     10  C   UNL     1      -3.634  -1.527  25.253  0.00  0.00    +0.075 C 
ATOM     12  C   UNL     1      -2.526  -2.325  24.649  0.00  0.00    +0.013 C 
ATOM     13  C   UNL     1      -3.910  -2.898  24.732  0.00  0.00    +0.013 C 
ENDBRANCH  18  10
ENDBRANCH  15   5
ENDBRANCH   9  15
TORSDOF 6
ENDMDL
MODEL 7
REMARK VINA RESULT:      -4.7     14.695     16.922
REMARK  Name = 75367066
REMARK  6 active torsions:
REMARK  status: ('A' for Active; 'I' for Inactive)
REMARK    1  A    between atoms: O_2  and  C_8
REMARK    2  A    between atoms: N_4  and  C_7
REMARK    3  A    between atoms: N_4  and  C_11
REMARK    4  A    between atoms: N_5  and  C_15
REMARK    5  A    between atoms: C_9  and  C_15
REMARK    6  A    between atoms: C_10  and  C_18
REMARK                            x       y       z     vdW  Elec       q    Type
REMARK                         _______ _______ _______ _____ _____    ______ ____
ROOT
ATOM      1  O   UNL     1      -8.680  -9.466  10.838  0.00  0.00    -0.371 OA
ATOM      7  C   UNL     1      -8.654  -9.804  13.189  0.00  0.00    +0.111 C 
ATOM      8  C   UNL     1      -7.238  -9.922  12.657  0.00  0.00    +0.164 C 
ATOM      9  C   UNL     1      -7.360  -9.181  11.332  0.00  0.00    +0.165 C 
ATOM     14  C   UNL     1      -9.470  -9.991  11.920  0.00  0.00    +0.181 C 
ENDROOT
BRANCH   8   2
ATOM      2  O   UNL     1      -6.283  -9.323  13.511  0.00  0.00    -0.388 OA
ATOM     24  H   UNL     1      -6.680  -8.526  13.902  0.00  0.00    +0.210 HD
ENDBRANCH   8   2
BRANCH   7   4
ATOM      4  N   UNL     1      -8.976 -10.781  14.216  0.00  0.00    -0.306 NA
ATOM     21  H   UNL     1      -8.138 -11.295  14.486  0.00  0.00    +0.123 HD
BRANCH   4  11
ATOM      6  N   UNL     1      -9.271  -8.290  17.653  0.00  0.00    -0.316 NA
ATOM     11  C   UNL     1      -9.555 -10.130  15.389  0.00  0.00    +0.056 C 
ATOM     16  C   UNL     1      -9.584  -8.607  15.212  0.00  0.00    +0.034 C 
ATOM     17  C   UNL     1      -8.761 -10.500  16.647  0.00  0.00    +0.034 C 
ATOM     19  C   UNL     1     -10.078  -7.921  16.487  0.00  0.00    +0.082 C 
ATOM     20  C   UNL     1      -9.288  -9.740  17.865  0.00  0.00    +0.082 C 
ATOM     23  H   UNL     1      -9.642  -7.825  18.480  0.00  0.00    +0.122 HD
ENDBRANCH   4  11
ENDBRANCH   7   4
BRANCH   9  15
ATOM     15  C   UNL     1      -6.325  -9.610  10.308  0.00  0.00    +0.138 C 
BRANCH  15   5
ATOM      3  O   UNL     1      -3.498  -8.939  10.188  0.00  0.00    -0.276 OA
ATOM      5  N   UNL     1      -5.233 -10.306  10.928  0.00  0.00    -0.313 N 
ATOM     18  C   UNL     1      -3.909  -9.908  10.814  0.00  0.00    +0.216 C 
ATOM     22  H   UNL     1      -5.453 -11.123  11.490  0.00  0.00    +0.149 HD
BRANCH  18  10
ATOM     10  C   UNL     1      -2.940 -10.778  11.544  0.00  0.00    +0.075 C 
ATOM     12  C   UNL     1      -2.687 -10.506  12.989  0.00  0.00    +0.013 C 
ATOM     13  C   UNL     1      -1.635 -10.192  11.967  0.00  0.00    +0.013 C 
ENDBRANCH  18  10
ENDBRANCH  15   5
ENDBRANCH   9  15
TORSDOF 6
ENDMDL
MODEL 8
REMARK VINA RESULT:      -3.1      2.691      6.141
REMARK  Name = 75367066
REMARK  6 active torsions:
REMARK  status: ('A' for Active; 'I' for Inactive)
REMARK    1  A    between atoms: O_2  and  C_8
REMARK    2  A    between atoms: N_4  and  C_7
REMARK    3  A    between atoms: N_4  and  C_11
REMARK    4  A    between atoms: N_5  and  C_15
REMARK    5  A    between atoms: C_9  and  C_15
REMARK    6  A    between atoms: C_10  and  C_18
REMARK                            x       y       z     vdW  Elec       q    Type
REMARK                         _______ _______ _______ _____ _____    ______ ____
ROOT
ATOM      1  O   UNL     1      -0.929   1.871  26.038  0.00  0.00    -0.371 OA
ATOM      7  C   UNL     1       0.475   1.360  24.192  0.00  0.00    +0.111 C 
ATOM      8  C   UNL     1      -0.204   2.693  23.942  0.00  0.00    +0.164 C 
ATOM      9  C   UNL     1      -0.594   3.093  25.358  0.00  0.00    +0.165 C 
ATOM     14  C   UNL     1      -0.413   0.767  25.274  0.00  0.00    +0.181 C 
ENDROOT
BRANCH   8   2
ATOM      2  O   UNL     1       0.659   3.641  23.345  0.00  0.00    -0.388 OA
ATOM     24  H   UNL     1       0.373   4.530  23.616  0.00  0.00    +0.210 HD
ENDBRANCH   8   2
BRANCH   7   4
ATOM      4  N   UNL     1       0.563   0.518  23.009  0.00  0.00    -0.306 NA
ATOM     21  H   UNL     1       0.207   1.019  22.196  0.00  0.00    +0.123 HD
BRANCH   4  11
ATOM      6  N   UNL     1       4.699  -0.175  23.729  0.00  0.00    -0.316 NA
ATOM     11  C   UNL     1       1.943   0.104  22.770  0.00  0.00    +0.056 C 
ATOM     16  C   UNL     1       2.361  -1.005  23.744  0.00  0.00    +0.034 C 
ATOM     17  C   UNL     1       2.888   1.304  22.899  0.00  0.00    +0.034 C 
ATOM     19  C   UNL     1       3.840  -1.352  23.571  0.00  0.00    +0.082 C 
ATOM     20  C   UNL     1       4.346   0.866  22.759  0.00  0.00    +0.082 C 
ATOM     23  H   UNL     1       5.671  -0.448  23.591  0.00  0.00    +0.122 HD
ENDBRANCH   4  11
ENDBRANCH   7   4
BRANCH   9  15
ATOM     15  C   UNL     1      -1.774   4.048  25.409  0.00  0.00    +0.138 C 
BRANCH  15   5
ATOM      3  O   UNL     1      -4.145   3.517  23.812  0.00  0.00    -0.276 OA
ATOM      5  N   UNL     1      -2.973   3.375  25.821  0.00  0.00    -0.313 N 
ATOM     18  C   UNL     1      -4.059   3.166  24.983  0.00  0.00    +0.216 C 
ATOM     22  H   UNL     1      -3.014   3.022  26.772  0.00  0.00    +0.149 HD
BRANCH  18  10
ATOM     10  C   UNL     1      -5.199   2.443  25.620  0.00  0.00    +0.075 C 
ATOM     12  C   UNL     1      -5.291   0.963  25.442  0.00  0.00    +0.013 C 
ATOM     13  C   UNL     1      -6.259   1.869  24.741  0.00  0.00    +0.013 C 
ENDBRANCH  18  10
ENDBRANCH  15   5
ENDBRANCH   9  15
TORSDOF 6
ENDMDL
