MODEL 1
REMARK VINA RESULT:      -3.4      0.000      0.000
REMARK  Name = 7142810
REMARK  6 active torsions:
REMARK  status: ('A' for Active; 'I' for Inactive)
REMARK    1  A    between atoms: N_4  and  C_14
REMARK    2  A    between atoms: N_6  and  C_18
REMARK    3  A    between atoms: C_14  and  C_17
REMARK    4  A    between atoms: C_17  and  C_20
REMARK    5  A    between atoms: C_20  and  C_21
REMARK    6  A    between atoms: C_22  and  C_27
REMARK                            x       y       z     vdW  Elec       q    Type
REMARK                         _______ _______ _______ _____ _____    ______ ____
ROOT
ATOM      2  O   UNL     1       0.334   2.801  25.781  0.00  0.00    -0.266 OA
ATOM      4  N   UNL     1      -4.632   2.189  25.487  0.00  0.00    -0.301 NA
ATOM      5  N   UNL     1      -1.685   3.069  24.638  0.00  0.00    -0.310 N 
ATOM      7  C   UNL     1      -3.622   4.483  25.543  0.00  0.00    +0.024 C 
ATOM      8  C   UNL     1      -3.862   3.324  23.399  0.00  0.00    +0.050 C 
ATOM      9  C   UNL     1      -3.961   4.691  24.074  0.00  0.00    +0.017 C 
ATOM     10  C   UNL     1      -4.611   3.483  26.179  0.00  0.00    +0.089 C 
ATOM     11  C   UNL     1      -4.875   2.354  24.046  0.00  0.00    +0.094 C 
ATOM     12  C   UNL     1      -2.162   4.018  25.653  0.00  0.00    +0.130 C 
ATOM     13  C   UNL     1      -2.453   2.773  23.507  0.00  0.00    +0.026 A 
ATOM     15  C   UNL     1      -1.953   1.988  22.537  0.00  0.00    +0.024 A 
ATOM     16  C   UNL     1      -0.384   2.555  24.812  0.00  0.00    +0.273 A 
ATOM     18  C   UNL     1       0.127   1.667  23.720  0.00  0.00    +0.099 A 
ATOM     19  C   UNL     1      -0.637   1.425  22.649  0.00  0.00    +0.030 A 
ENDROOT
BRANCH  18   6
ATOM      3  O   UNL     1       1.305  -0.233  22.005  0.00  0.00    -0.269 OA
ATOM      6  N   UNL     1       1.377   1.140  23.856  0.00  0.00    -0.277 N 
ATOM     22  C   UNL     1       1.921   0.198  22.981  0.00  0.00    +0.255 C 
ATOM     32  H   UNL     1       1.993   1.633  24.496  0.00  0.00    +0.155 HD
BRANCH  22  27
ATOM      1  S   UNL     1       4.547   0.868  22.958  0.00  0.00    -0.092 S 
ATOM     27  C   UNL     1       3.298  -0.225  23.281  0.00  0.00    +0.074 A 
ATOM     29  C   UNL     1       3.698  -1.407  23.797  0.00  0.00    +0.021 A 
ATOM     30  C   UNL     1       5.116  -1.435  23.942  0.00  0.00    +0.008 A 
ATOM     31  C   UNL     1       5.702  -0.263  23.523  0.00  0.00    +0.046 A 
ENDBRANCH  22  27
ENDBRANCH  18   6
BRANCH   4  14
ATOM     14  C   UNL     1      -5.617   1.291  26.085  0.00  0.00    +0.085 C 
BRANCH  14  17
ATOM     17  C   UNL     1      -5.110  -0.150  26.052  0.00  0.00    +0.020 C 
BRANCH  17  20
ATOM     20  C   UNL     1      -4.452  -0.473  24.709  0.00  0.00    +0.036 C 
BRANCH  20  21
ATOM     21  C   UNL     1      -3.047  -0.989  24.885  0.00  0.00    -0.047 A 
ATOM     23  C   UNL     1      -2.193  -0.352  25.773  0.00  0.00    +0.003 A 
ATOM     24  C   UNL     1      -2.630  -2.094  24.157  0.00  0.00    +0.003 A 
ATOM     25  C   UNL     1      -0.892  -0.829  25.937  0.00  0.00    +0.000 A 
ATOM     26  C   UNL     1      -1.330  -2.572  24.321  0.00  0.00    +0.000 A 
ATOM     28  C   UNL     1      -0.461  -1.939  25.211  0.00  0.00    +0.000 A 
ENDBRANCH  20  21
ENDBRANCH  17  20
ENDBRANCH  14  17
ENDBRANCH   4  14
TORSDOF 6
ENDMDL
MODEL 2
REMARK VINA RESULT:      -0.2      1.006      1.368
REMARK  Name = 7142810
REMARK  6 active torsions:
REMARK  status: ('A' for Active; 'I' for Inactive)
REMARK    1  A    between atoms: N_4  and  C_14
REMARK    2  A    between atoms: N_6  and  C_18
REMARK    3  A    between atoms: C_14  and  C_17
REMARK    4  A    between atoms: C_17  and  C_20
REMARK    5  A    between atoms: C_20  and  C_21
REMARK    6  A    between atoms: C_22  and  C_27
REMARK                            x       y       z     vdW  Elec       q    Type
REMARK                         _______ _______ _______ _____ _____    ______ ____
ROOT
ATOM      2  O   UNL     1       0.444   2.288  26.039  0.00  0.00    -0.266 OA
ATOM      4  N   UNL     1      -4.520   2.544  25.391  0.00  0.00    -0.301 NA
ATOM      5  N   UNL     1      -1.416   3.064  24.859  0.00  0.00    -0.310 N 
ATOM      7  C   UNL     1      -3.182   4.603  25.899  0.00  0.00    +0.024 C 
ATOM      8  C   UNL     1      -3.427   3.869  23.575  0.00  0.00    +0.050 C 
ATOM      9  C   UNL     1      -3.371   5.103  24.473  0.00  0.00    +0.017 C 
ATOM     10  C   UNL     1      -4.358   3.686  26.299  0.00  0.00    +0.089 C 
ATOM     11  C   UNL     1      -4.623   2.982  23.990  0.00  0.00    +0.094 C 
ATOM     12  C   UNL     1      -1.823   3.897  26.000  0.00  0.00    +0.130 C 
ATOM     13  C   UNL     1      -2.131   3.086  23.657  0.00  0.00    +0.026 A 
ATOM     15  C   UNL     1      -1.681   2.401  22.591  0.00  0.00    +0.024 A 
ATOM     16  C   UNL     1      -0.226   2.324  25.007  0.00  0.00    +0.273 A 
ATOM     18  C   UNL     1       0.229   1.557  23.804  0.00  0.00    +0.099 A 
ATOM     19  C   UNL     1      -0.478   1.622  22.670  0.00  0.00    +0.030 A 
ENDROOT
BRANCH  18   6
ATOM      3  O   UNL     1       2.716   2.205  22.649  0.00  0.00    -0.269 OA
ATOM      6  N   UNL     1       1.371   0.820  23.909  0.00  0.00    -0.277 N 
ATOM     22  C   UNL     1       2.583   1.180  23.318  0.00  0.00    +0.255 C 
ATOM     32  H   UNL     1       1.367   0.106  24.632  0.00  0.00    +0.155 HD
BRANCH  22  27
ATOM      1  S   UNL     1       3.382  -1.392  23.629  0.00  0.00    -0.092 S 
ATOM     27  C   UNL     1       3.709   0.266  23.574  0.00  0.00    +0.074 A 
ATOM     29  C   UNL     1       5.002   0.596  23.776  0.00  0.00    +0.021 A 
ATOM     30  C   UNL     1       5.790  -0.572  23.990  0.00  0.00    +0.008 A 
ATOM     31  C   UNL     1       5.034  -1.722  23.937  0.00  0.00    +0.046 A 
ENDBRANCH  22  27
ENDBRANCH  18   6
BRANCH   4  14
ATOM     14  C   UNL     1      -5.673   1.732  25.771  0.00  0.00    +0.085 C 
BRANCH  14  17
ATOM     17  C   UNL     1      -5.441   0.271  25.389  0.00  0.00    +0.020 C 
BRANCH  17  20
ATOM     20  C   UNL     1      -4.449   0.154  24.230  0.00  0.00    +0.036 C 
BRANCH  20  21
ATOM     21  C   UNL     1      -3.427  -0.925  24.476  0.00  0.00    -0.047 A 
ATOM     23  C   UNL     1      -3.836  -2.249  24.546  0.00  0.00    +0.003 A 
ATOM     24  C   UNL     1      -2.092  -0.579  24.628  0.00  0.00    +0.003 A 
ATOM     25  C   UNL     1      -2.890  -3.249  24.772  0.00  0.00    +0.000 A 
ATOM     26  C   UNL     1      -1.146  -1.579  24.854  0.00  0.00    +0.000 A 
ATOM     28  C   UNL     1      -1.545  -2.914  24.927  0.00  0.00    +0.000 A 
ENDBRANCH  20  21
ENDBRANCH  17  20
ENDBRANCH  14  17
ENDBRANCH   4  14
TORSDOF 6
ENDMDL
