MODEL 1
REMARK VINA RESULT:      10.8      0.000      0.000
REMARK  Name = 11912182
REMARK  8 active torsions:
REMARK  status: ('A' for Active; 'I' for Inactive)
REMARK    1  A    between atoms: O_4  and  C_30
REMARK    2  A    between atoms: O_4  and  C_34
REMARK    3  A    between atoms: O_5  and  C_33
REMARK    4  A    between atoms: O_5  and  C_35
REMARK    5  A    between atoms: N_6  and  C_13
REMARK    6  A    between atoms: N_7  and  C_14
REMARK    7  A    between atoms: N_8  and  C_20
REMARK    8  A    between atoms: C_19  and  C_23
REMARK                            x       y       z     vdW  Elec       q    Type
REMARK                         _______ _______ _______ _____ _____    ______ ____
ROOT
ATOM      1  O   UNL     1      -4.243  -0.978  23.263  0.00  0.00    -0.370 OA
ATOM      2  O   UNL     1      -3.542  -0.981  26.303  0.00  0.00    -0.370 OA
ATOM     11  C   UNL     1      -3.754   0.068  25.343  0.00  0.00    +0.171 C 
ATOM     12  C   UNL     1      -3.169  -0.404  24.026  0.00  0.00    +0.171 C 
ATOM     13  C   UNL     1      -5.228   0.227  25.057  0.00  0.00    +0.130 C 
ATOM     14  C   UNL     1      -2.177  -1.472  24.425  0.00  0.00    +0.131 C 
ATOM     15  C   UNL     1      -5.473  -0.818  23.984  0.00  0.00    +0.185 C 
ATOM     16  C   UNL     1      -2.806  -2.046  25.683  0.00  0.00    +0.185 C 
ENDROOT
BRANCH  13   6
ATOM      6  N   UNL     1      -5.492   1.550  24.537  0.00  0.00    -0.306 N 
ATOM      9  N   UNL     1      -3.458   2.362  25.310  0.00  0.00    -0.214 NA
ATOM     10  N   UNL     1      -5.002   3.782  24.123  0.00  0.00    -0.223 NA
ATOM     17  C   UNL     1      -4.612   2.611  24.661  0.00  0.00    +0.216 A 
ATOM     19  C   UNL     1      -2.625   3.419  25.414  0.00  0.00    +0.076 A 
ATOM     21  C   UNL     1      -4.121   4.794  24.262  0.00  0.00    +0.116 A 
ATOM     22  C   UNL     1      -2.905   4.669  24.904  0.00  0.00    +0.048 A 
ATOM     36  H   UNL     1      -6.338   1.717  24.005  0.00  0.00    +0.149 HD
BRANCH  19  23
ATOM     23  C   UNL     1      -1.387   3.155  26.107  0.00  0.00    +0.001 A 
ATOM     26  C   UNL     1      -1.370   3.086  27.500  0.00  0.00    +0.013 A 
ATOM     27  C   UNL     1      -0.207   2.972  25.385  0.00  0.00    +0.013 A 
ATOM     31  C   UNL     1      -0.174   2.834  28.172  0.00  0.00    +0.046 A 
ATOM     32  C   UNL     1       0.989   2.720  26.057  0.00  0.00    +0.046 A 
ATOM     33  C   UNL     1       1.006   2.650  27.451  0.00  0.00    +0.120 A 
BRANCH  33   5
ATOM      5  O   UNL     1       2.172   2.403  28.106  0.00  0.00    -0.495 OA
ATOM     35  C   UNL     1       2.138   2.451  29.533  0.00  0.00    +0.277 C 
ENDBRANCH  33   5
ENDBRANCH  19  23
ENDBRANCH  13   6
BRANCH  14   7
ATOM      3  O   UNL     1       0.172  -1.701  22.801  0.00  0.00    -0.252 OA
ATOM      7  N   UNL     1      -0.880  -0.904  24.700  0.00  0.00    -0.292 N 
ATOM      8  N   UNL     1       1.338  -0.404  24.374  0.00  0.00    -0.269 N 
ATOM     18  C   UNL     1       0.222  -1.063  23.851  0.00  0.00    +0.304 C 
ATOM     37  H   UNL     1      -0.777  -0.307  25.515  0.00  0.00    +0.151 HD
ATOM     38  H   UNL     1       1.210   0.078  25.259  0.00  0.00    +0.156 HD
BRANCH   8  20
ATOM     20  C   UNL     1       2.638  -0.326  23.820  0.00  0.00    +0.035 A 
ATOM     24  C   UNL     1       3.544  -1.368  24.020  0.00  0.00    +0.027 A 
ATOM     25  C   UNL     1       3.012   0.791  23.073  0.00  0.00    +0.027 A 
ATOM     28  C   UNL     1       4.825  -1.293  23.474  0.00  0.00    +0.047 A 
ATOM     29  C   UNL     1       4.293   0.866  22.527  0.00  0.00    +0.047 A 
ATOM     30  C   UNL     1       5.200  -0.176  22.728  0.00  0.00    +0.120 A 
BRANCH  30   4
ATOM      4  O   UNL     1       6.449  -0.102  22.192  0.00  0.00    -0.495 OA
ATOM     34  C   UNL     1       7.546  -0.383  23.059  0.00  0.00    +0.277 C 
ENDBRANCH  30   4
ENDBRANCH   8  20
ENDBRANCH  14   7
TORSDOF 6
ENDMDL
MODEL 2
REMARK VINA RESULT:      11.5      2.027      4.193
REMARK  Name = 11912182
REMARK  8 active torsions:
REMARK  status: ('A' for Active; 'I' for Inactive)
REMARK    1  A    between atoms: O_4  and  C_30
REMARK    2  A    between atoms: O_4  and  C_34
REMARK    3  A    between atoms: O_5  and  C_33
REMARK    4  A    between atoms: O_5  and  C_35
REMARK    5  A    between atoms: N_6  and  C_13
REMARK    6  A    between atoms: N_7  and  C_14
REMARK    7  A    between atoms: N_8  and  C_20
REMARK    8  A    between atoms: C_19  and  C_23
REMARK                            x       y       z     vdW  Elec       q    Type
REMARK                         _______ _______ _______ _____ _____    ______ ____
ROOT
ATOM      1  O   UNL     1      -3.544   3.408  26.941  0.00  0.00    -0.370 OA
ATOM      2  O   UNL     1      -2.496   5.119  24.552  0.00  0.00    -0.370 OA
ATOM     11  C   UNL     1      -3.483   4.080  24.660  0.00  0.00    +0.171 C 
ATOM     12  C   UNL     1      -2.966   3.072  25.668  0.00  0.00    +0.171 C 
ATOM     13  C   UNL     1      -4.745   4.619  25.289  0.00  0.00    +0.130 C 
ATOM     14  C   UNL     1      -1.473   3.305  25.689  0.00  0.00    +0.131 C 
ATOM     15  C   UNL     1      -4.452   4.506  26.773  0.00  0.00    +0.185 C 
ATOM     16  C   UNL     1      -1.371   4.788  25.380  0.00  0.00    +0.185 C 
ENDROOT
BRANCH  13   6
ATOM      6  N   UNL     1      -5.871   3.783  24.937  0.00  0.00    -0.306 N 
ATOM      9  N   UNL     1      -4.564   1.863  24.934  0.00  0.00    -0.214 NA
ATOM     10  N   UNL     1      -6.921   1.772  24.435  0.00  0.00    -0.223 NA
ATOM     17  C   UNL     1      -5.782   2.413  24.762  0.00  0.00    +0.216 A 
ATOM     19  C   UNL     1      -4.514   0.526  24.755  0.00  0.00    +0.076 A 
ATOM     21  C   UNL     1      -6.797   0.439  24.272  0.00  0.00    +0.116 A 
ATOM     22  C   UNL     1      -5.608  -0.245  24.421  0.00  0.00    +0.048 A 
ATOM     36  H   UNL     1      -6.794   4.195  24.860  0.00  0.00    +0.149 HD
BRANCH  19  23
ATOM     23  C   UNL     1      -3.211  -0.067  24.941  0.00  0.00    +0.001 A 
ATOM     26  C   UNL     1      -2.459  -0.455  23.833  0.00  0.00    +0.013 A 
ATOM     27  C   UNL     1      -2.705  -0.254  26.227  0.00  0.00    +0.013 A 
ATOM     31  C   UNL     1      -1.200  -1.030  24.010  0.00  0.00    +0.046 A 
ATOM     32  C   UNL     1      -1.448  -0.830  26.405  0.00  0.00    +0.046 A 
ATOM     33  C   UNL     1      -0.694  -1.218  25.297  0.00  0.00    +0.120 A 
BRANCH  33   5
ATOM      5  O   UNL     1       0.534  -1.777  25.469  0.00  0.00    -0.495 OA
ATOM     35  C   UNL     1       0.599  -3.203  25.503  0.00  0.00    +0.277 C 
ENDBRANCH  33   5
ENDBRANCH  19  23
ENDBRANCH  13   6
BRANCH  14   7
ATOM      3  O   UNL     1       1.263   2.456  25.714  0.00  0.00    -0.252 OA
ATOM      7  N   UNL     1      -0.806   2.513  24.684  0.00  0.00    -0.292 N 
ATOM      8  N   UNL     1       0.907   1.378  23.658  0.00  0.00    -0.269 N 
ATOM     18  C   UNL     1       0.539   2.139  24.772  0.00  0.00    +0.304 C 
ATOM     37  H   UNL     1      -1.356   2.156  23.908  0.00  0.00    +0.151 HD
ATOM     38  H   UNL     1       0.185   1.207  22.965  0.00  0.00    +0.156 HD
BRANCH   8  20
ATOM     20  C   UNL     1       2.172   0.814  23.372  0.00  0.00    +0.035 A 
ATOM     24  C   UNL     1       3.246   1.642  23.043  0.00  0.00    +0.027 A 
ATOM     25  C   UNL     1       2.347  -0.569  23.421  0.00  0.00    +0.027 A 
ATOM     28  C   UNL     1       4.494   1.087  22.762  0.00  0.00    +0.047 A 
ATOM     29  C   UNL     1       3.595  -1.124  23.140  0.00  0.00    +0.047 A 
ATOM     30  C   UNL     1       4.668  -0.296  22.810  0.00  0.00    +0.120 A 
BRANCH  30   4
ATOM      4  O   UNL     1       5.887  -0.839  22.538  0.00  0.00    -0.495 OA
ATOM     34  C   UNL     1       7.011  -0.286  23.219  0.00  0.00    +0.277 C 
ENDBRANCH  30   4
ENDBRANCH   8  20
ENDBRANCH  14   7
TORSDOF 6
ENDMDL
MODEL 3
REMARK VINA RESULT:      11.8      2.134      5.677
REMARK  Name = 11912182
REMARK  8 active torsions:
REMARK  status: ('A' for Active; 'I' for Inactive)
REMARK    1  A    between atoms: O_4  and  C_30
REMARK    2  A    between atoms: O_4  and  C_34
REMARK    3  A    between atoms: O_5  and  C_33
REMARK    4  A    between atoms: O_5  and  C_35
REMARK    5  A    between atoms: N_6  and  C_13
REMARK    6  A    between atoms: N_7  and  C_14
REMARK    7  A    between atoms: N_8  and  C_20
REMARK    8  A    between atoms: C_19  and  C_23
REMARK                            x       y       z     vdW  Elec       q    Type
REMARK                         _______ _______ _______ _____ _____    ______ ____
ROOT
ATOM      1  O   UNL     1      -5.570   2.699  25.346  0.00  0.00    -0.370 OA
ATOM      2  O   UNL     1      -3.652   2.851  22.890  0.00  0.00    -0.370 OA
ATOM     11  C   UNL     1      -3.859   1.867  23.917  0.00  0.00    +0.171 C 
ATOM     12  C   UNL     1      -4.142   2.615  25.205  0.00  0.00    +0.171 C 
ATOM     13  C   UNL     1      -5.128   1.092  23.653  0.00  0.00    +0.130 C 
ATOM     14  C   UNL     1      -3.555   3.988  24.970  0.00  0.00    +0.131 C 
ATOM     15  C   UNL     1      -6.193   1.977  24.273  0.00  0.00    +0.185 C 
ATOM     16  C   UNL     1      -3.724   4.161  23.471  0.00  0.00    +0.185 C 
ENDROOT
BRANCH  13   6
ATOM      6  N   UNL     1      -5.080  -0.183  24.332  0.00  0.00    -0.306 N 
ATOM      9  N   UNL     1      -2.762  -0.262  24.220  0.00  0.00    -0.214 NA
ATOM     10  N   UNL     1      -4.025  -2.036  25.255  0.00  0.00    -0.223 NA
ATOM     17  C   UNL     1      -3.904  -0.856  24.615  0.00  0.00    +0.216 A 
ATOM     19  C   UNL     1      -1.635  -0.946  24.512  0.00  0.00    +0.076 A 
ATOM     21  C   UNL     1      -2.860  -2.663  25.515  0.00  0.00    +0.116 A 
ATOM     22  C   UNL     1      -1.623  -2.162  25.164  0.00  0.00    +0.048 A 
ATOM     36  H   UNL     1      -5.939  -0.599  24.673  0.00  0.00    +0.149 HD
BRANCH  19  23
ATOM     23  C   UNL     1      -0.409  -0.312  24.092  0.00  0.00    +0.001 A 
ATOM     26  C   UNL     1      -0.161   1.018  24.432  0.00  0.00    +0.013 A 
ATOM     27  C   UNL     1       0.527  -1.026  23.344  0.00  0.00    +0.013 A 
ATOM     31  C   UNL     1       1.023   1.634  24.025  0.00  0.00    +0.046 A 
ATOM     32  C   UNL     1       1.710  -0.411  22.936  0.00  0.00    +0.046 A 
ATOM     33  C   UNL     1       1.959   0.919  23.277  0.00  0.00    +0.120 A 
BRANCH  33   5
ATOM      5  O   UNL     1       3.114   1.520  22.882  0.00  0.00    -0.495 OA
ATOM     35  C   UNL     1       4.294   0.716  22.876  0.00  0.00    +0.277 C 
ENDBRANCH  33   5
ENDBRANCH  19  23
ENDBRANCH  13   6
BRANCH  14   7
ATOM      3  O   UNL     1      -2.366   2.767  27.273  0.00  0.00    -0.252 OA
ATOM      7  N   UNL     1      -2.164   4.033  25.349  0.00  0.00    -0.292 N 
ATOM      8  N   UNL     1      -0.284   3.621  26.603  0.00  0.00    -0.269 N 
ATOM     18  C   UNL     1      -1.661   3.407  26.495  0.00  0.00    +0.304 C 
ATOM     37  H   UNL     1      -1.506   4.486  24.721  0.00  0.00    +0.151 HD
ATOM     38  H   UNL     1       0.150   4.177  25.872  0.00  0.00    +0.156 HD
BRANCH   8  20
ATOM     20  C   UNL     1       0.590   3.156  27.614  0.00  0.00    +0.035 A 
ATOM     24  C   UNL     1       0.070   2.659  28.810  0.00  0.00    +0.027 A 
ATOM     25  C   UNL     1       1.970   3.194  27.416  0.00  0.00    +0.027 A 
ATOM     28  C   UNL     1       0.930   2.201  29.807  0.00  0.00    +0.047 A 
ATOM     29  C   UNL     1       2.830   2.735  28.413  0.00  0.00    +0.047 A 
ATOM     30  C   UNL     1       2.310   2.239  29.609  0.00  0.00    +0.120 A 
BRANCH  30   4
ATOM      4  O   UNL     1       3.151   1.789  30.581  0.00  0.00    -0.495 OA
ATOM     34  C   UNL     1       2.567   1.438  31.834  0.00  0.00    +0.277 C 
ENDBRANCH  30   4
ENDBRANCH   8  20
ENDBRANCH  14   7
TORSDOF 6
ENDMDL
