MODEL 1
REMARK VINA RESULT:      -0.7      0.000      0.000
REMARK  Name = 45783568
REMARK  10 active torsions:
REMARK  status: ('A' for Active; 'I' for Inactive)
REMARK    1  A    between atoms: O_2  and  C_29
REMARK    2  A    between atoms: O_2  and  C_30
REMARK    3  A    between atoms: O_3  and  C_31
REMARK    4  A    between atoms: O_3  and  C_32
REMARK    5  A    between atoms: N_4  and  C_13
REMARK    6  A    between atoms: N_5  and  C_22
REMARK    7  A    between atoms: C_9  and  C_14
REMARK    8  A    between atoms: C_13  and  C_15
REMARK    9  A    between atoms: C_20  and  C_25
REMARK   10  A    between atoms: C_30  and  C_31
REMARK                            x       y       z     vdW  Elec       q    Type
REMARK                         _______ _______ _______ _____ _____    ______ ____
ROOT
ATOM      4  N   UNL     1      -4.971   2.393  25.343  0.00  0.00    -0.287 NA
ATOM      9  C   UNL     1      -4.332   3.109  24.220  0.00  0.00    +0.146 C 
ATOM     10  C   UNL     1      -4.742   4.581  24.411  0.00  0.00    +0.030 C 
ATOM     11  C   UNL     1      -6.167   3.159  25.694  0.00  0.00    +0.085 C 
ATOM     12  C   UNL     1      -5.658   4.584  25.627  0.00  0.00    +0.017 C 
ENDROOT
BRANCH   9  14
ATOM      1  O   UNL     1      -2.084   3.914  24.737  0.00  0.00    -0.336 OA
ATOM      6  N   UNL     1      -2.129   1.927  23.704  0.00  0.00    -0.190 NA
ATOM      7  N   UNL     1      -0.747   3.520  24.591  0.00  0.00    -0.056 NA
ATOM     14  C   UNL     1      -2.831   2.920  24.189  0.00  0.00    +0.245 A 
ATOM     20  C   UNL     1      -0.857   2.341  23.973  0.00  0.00    +0.204 A 
BRANCH  20  25
ATOM      8  N   UNL     1       2.685   1.356  23.412  0.00  0.00    -0.221 NA
ATOM     25  C   UNL     1       0.284   1.549  23.613  0.00  0.00    +0.041 A 
ATOM     26  C   UNL     1       0.132   0.254  23.130  0.00  0.00    +0.018 A 
ATOM     27  C   UNL     1       1.570   2.049  23.734  0.00  0.00    +0.126 A 
ATOM     28  C   UNL     1       1.255  -0.491  22.787  0.00  0.00    +0.068 A 
ATOM     29  C   UNL     1       2.499   0.101  22.945  0.00  0.00    +0.215 A 
BRANCH  29   2
ATOM      2  O   UNL     1       3.621  -0.612  22.614  0.00  0.00    -0.474 OA
BRANCH   2  30
ATOM     30  C   UNL     1       4.216  -1.386  23.649  0.00  0.00    +0.258 C 
BRANCH  30  31
ATOM     31  C   UNL     1       5.306  -0.567  24.314  0.00  0.00    +0.200 C 
BRANCH  31   3
ATOM      3  O   UNL     1       6.010   0.165  23.317  0.00  0.00    -0.380 OA
ATOM     32  C   UNL     1       7.181  -0.519  22.897  0.00  0.00    +0.194 C 
ENDBRANCH  31   3
ENDBRANCH  30  31
ENDBRANCH   2  30
ENDBRANCH  29   2
ENDBRANCH  20  25
ENDBRANCH   9  14
BRANCH   4  13
ATOM     13  C   UNL     1      -5.282   1.003  25.035  0.00  0.00    +0.122 C 
BRANCH  13  15
ATOM      5  N   UNL     1      -2.102  -0.666  25.839  0.00  0.00    -0.349 N 
ATOM     15  C   UNL     1      -4.078   0.112  25.193  0.00  0.00    -0.008 A 
ATOM     16  C   UNL     1      -3.877  -1.157  24.580  0.00  0.00    +0.004 A 
ATOM     17  C   UNL     1      -2.969   0.387  25.960  0.00  0.00    +0.091 A 
ATOM     18  C   UNL     1      -2.630  -1.623  25.003  0.00  0.00    +0.049 A 
ATOM     19  C   UNL     1      -4.639  -1.955  23.705  0.00  0.00    +0.010 A 
ATOM     21  C   UNL     1      -2.106  -2.853  24.591  0.00  0.00    +0.026 A 
ATOM     22  C   UNL     1      -0.819  -0.745  26.502  0.00  0.00    +0.149 C 
ATOM     23  C   UNL     1      -4.127  -3.189  23.285  0.00  0.00    +0.001 A 
ATOM     24  C   UNL     1      -2.880  -3.629  23.723  0.00  0.00    +0.002 A 
ENDBRANCH  13  15
ENDBRANCH   4  13
TORSDOF 8
ENDMDL
MODEL 2
REMARK VINA RESULT:       0.6      1.352      2.297
REMARK  Name = 45783568
REMARK  10 active torsions:
REMARK  status: ('A' for Active; 'I' for Inactive)
REMARK    1  A    between atoms: O_2  and  C_29
REMARK    2  A    between atoms: O_2  and  C_30
REMARK    3  A    between atoms: O_3  and  C_31
REMARK    4  A    between atoms: O_3  and  C_32
REMARK    5  A    between atoms: N_4  and  C_13
REMARK    6  A    between atoms: N_5  and  C_22
REMARK    7  A    between atoms: C_9  and  C_14
REMARK    8  A    between atoms: C_13  and  C_15
REMARK    9  A    between atoms: C_20  and  C_25
REMARK   10  A    between atoms: C_30  and  C_31
REMARK                            x       y       z     vdW  Elec       q    Type
REMARK                         _______ _______ _______ _____ _____    ______ ____
ROOT
ATOM      4  N   UNL     1      -4.216   2.349  25.626  0.00  0.00    -0.287 NA
ATOM      9  C   UNL     1      -3.940   2.900  24.284  0.00  0.00    +0.146 C 
ATOM     10  C   UNL     1      -3.627   4.388  24.529  0.00  0.00    +0.030 C 
ATOM     11  C   UNL     1      -4.731   3.458  26.430  0.00  0.00    +0.085 C 
ATOM     12  C   UNL     1      -3.812   4.592  26.026  0.00  0.00    +0.017 C 
ENDROOT
BRANCH   9  14
ATOM      1  O   UNL     1      -3.157   1.450  22.480  0.00  0.00    -0.336 OA
ATOM      6  N   UNL     1      -1.539   2.138  23.868  0.00  0.00    -0.190 NA
ATOM      7  N   UNL     1      -1.969   0.879  22.006  0.00  0.00    -0.056 NA
ATOM     14  C   UNL     1      -2.815   2.175  23.577  0.00  0.00    +0.245 A 
ATOM     20  C   UNL     1      -1.061   1.331  22.876  0.00  0.00    +0.204 A 
BRANCH  20  25
ATOM      8  N   UNL     1       2.611   1.442  23.448  0.00  0.00    -0.221 NA
ATOM     25  C   UNL     1       0.330   0.996  22.784  0.00  0.00    +0.041 A 
ATOM     26  C   UNL     1       0.762  -0.051  21.976  0.00  0.00    +0.018 A 
ATOM     27  C   UNL     1       1.286   1.706  23.492  0.00  0.00    +0.126 A 
ATOM     28  C   UNL     1       2.118  -0.353  21.905  0.00  0.00    +0.068 A 
ATOM     29  C   UNL     1       2.995   0.418  22.653  0.00  0.00    +0.215 A 
BRANCH  29   2
ATOM      2  O   UNL     1       4.335   0.141  22.599  0.00  0.00    -0.474 OA
BRANCH   2  30
ATOM     30  C   UNL     1       5.166   0.817  23.536  0.00  0.00    +0.258 C 
BRANCH  30  31
ATOM     31  C   UNL     1       5.572  -0.154  24.628  0.00  0.00    +0.200 C 
BRANCH  31   3
ATOM      3  O   UNL     1       5.753  -1.445  24.058  0.00  0.00    -0.380 OA
ATOM     32  C   UNL     1       4.536  -2.177  24.031  0.00  0.00    +0.194 C 
ENDBRANCH  31   3
ENDBRANCH  30  31
ENDBRANCH   2  30
ENDBRANCH  29   2
ENDBRANCH  20  25
ENDBRANCH   9  14
BRANCH   4  13
ATOM     13  C   UNL     1      -5.132   1.216  25.605  0.00  0.00    +0.122 C 
BRANCH  13  15
ATOM      5  N   UNL     1      -4.137  -1.926  23.965  0.00  0.00    -0.349 N 
ATOM     15  C   UNL     1      -4.474  -0.026  25.064  0.00  0.00    -0.008 A 
ATOM     16  C   UNL     1      -3.142  -0.459  25.320  0.00  0.00    +0.004 A 
ATOM     17  C   UNL     1      -5.060  -0.949  24.228  0.00  0.00    +0.091 A 
ATOM     18  C   UNL     1      -2.958  -1.652  24.619  0.00  0.00    +0.049 A 
ATOM     19  C   UNL     1      -2.074   0.053  26.082  0.00  0.00    +0.010 A 
ATOM     21  C   UNL     1      -1.752  -2.362  24.643  0.00  0.00    +0.026 A 
ATOM     22  C   UNL     1      -4.384  -3.074  23.120  0.00  0.00    +0.149 C 
ATOM     23  C   UNL     1      -0.862  -0.647  26.116  0.00  0.00    +0.001 A 
ATOM     24  C   UNL     1      -0.706  -1.836  25.406  0.00  0.00    +0.002 A 
ENDBRANCH  13  15
ENDBRANCH   4  13
TORSDOF 8
ENDMDL
MODEL 3
REMARK VINA RESULT:       2.3      1.592      4.407
REMARK  Name = 45783568
REMARK  10 active torsions:
REMARK  status: ('A' for Active; 'I' for Inactive)
REMARK    1  A    between atoms: O_2  and  C_29
REMARK    2  A    between atoms: O_2  and  C_30
REMARK    3  A    between atoms: O_3  and  C_31
REMARK    4  A    between atoms: O_3  and  C_32
REMARK    5  A    between atoms: N_4  and  C_13
REMARK    6  A    between atoms: N_5  and  C_22
REMARK    7  A    between atoms: C_9  and  C_14
REMARK    8  A    between atoms: C_13  and  C_15
REMARK    9  A    between atoms: C_20  and  C_25
REMARK   10  A    between atoms: C_30  and  C_31
REMARK                            x       y       z     vdW  Elec       q    Type
REMARK                         _______ _______ _______ _____ _____    ______ ____
ROOT
ATOM      4  N   UNL     1      -4.369  -1.660  23.903  0.00  0.00    -0.287 NA
ATOM      9  C   UNL     1      -3.489  -1.801  25.081  0.00  0.00    +0.146 C 
ATOM     10  C   UNL     1      -3.226  -3.314  25.193  0.00  0.00    +0.030 C 
ATOM     11  C   UNL     1      -5.118  -2.912  23.795  0.00  0.00    +0.085 C 
ATOM     12  C   UNL     1      -4.046  -3.944  24.076  0.00  0.00    +0.017 C 
ENDROOT
BRANCH   9  14
ATOM      1  O   UNL     1      -2.021  -0.020  25.882  0.00  0.00    -0.336 OA
ATOM      6  N   UNL     1      -1.253  -1.092  24.072  0.00  0.00    -0.190 NA
ATOM      7  N   UNL     1      -0.796   0.580  25.564  0.00  0.00    -0.056 NA
ATOM     14  C   UNL     1      -2.215  -0.994  24.955  0.00  0.00    +0.245 A 
ATOM     20  C   UNL     1      -0.406  -0.106  24.487  0.00  0.00    +0.204 A 
BRANCH  20  25
ATOM      8  N   UNL     1       2.740   1.607  23.487  0.00  0.00    -0.221 NA
ATOM     25  C   UNL     1       0.824   0.167  23.801  0.00  0.00    +0.041 A 
ATOM     26  C   UNL     1       1.300  -0.693  22.817  0.00  0.00    +0.018 A 
ATOM     27  C   UNL     1       1.575   1.293  24.096  0.00  0.00    +0.126 A 
ATOM     28  C   UNL     1       2.495  -0.404  22.167  0.00  0.00    +0.068 A 
ATOM     29  C   UNL     1       3.171   0.748  22.536  0.00  0.00    +0.215 A 
BRANCH  29   2
ATOM      2  O   UNL     1       4.351   1.056  21.911  0.00  0.00    -0.474 OA
BRANCH   2  30
ATOM     30  C   UNL     1       5.526   0.435  22.419  0.00  0.00    +0.258 C 
BRANCH  30  31
ATOM     31  C   UNL     1       5.514   0.520  23.933  0.00  0.00    +0.200 C 
BRANCH  31   3
ATOM      3  O   UNL     1       5.749  -0.776  24.473  0.00  0.00    -0.380 OA
ATOM     32  C   UNL     1       4.805  -1.721  23.989  0.00  0.00    +0.194 C 
ENDBRANCH  31   3
ENDBRANCH  30  31
ENDBRANCH   2  30
ENDBRANCH  29   2
ENDBRANCH  20  25
ENDBRANCH   9  14
BRANCH   4  13
ATOM     13  C   UNL     1      -5.248  -0.500  23.978  0.00  0.00    +0.122 C 
BRANCH  13  15
ATOM      5  N   UNL     1      -2.998   2.312  23.223  0.00  0.00    -0.349 N 
ATOM     15  C   UNL     1      -4.482   0.791  23.865  0.00  0.00    -0.008 A 
ATOM     16  C   UNL     1      -4.727   1.989  24.595  0.00  0.00    +0.004 A 
ATOM     17  C   UNL     1      -3.412   1.021  23.030  0.00  0.00    +0.091 A 
ATOM     18  C   UNL     1      -3.782   2.926  24.173  0.00  0.00    +0.049 A 
ATOM     19  C   UNL     1      -5.665   2.364  25.576  0.00  0.00    +0.010 A 
ATOM     21  C   UNL     1      -3.729   4.227  24.686  0.00  0.00    +0.026 A 
ATOM     22  C   UNL     1      -1.892   2.926  22.521  0.00  0.00    +0.149 C 
ATOM     23  C   UNL     1      -5.624   3.663  26.098  0.00  0.00    +0.001 A 
ATOM     24  C   UNL     1      -4.670   4.578  25.658  0.00  0.00    +0.002 A 
ENDBRANCH  13  15
ENDBRANCH   4  13
TORSDOF 8
ENDMDL
MODEL 4
REMARK VINA RESULT:       2.7      1.843      4.787
REMARK  Name = 45783568
REMARK  10 active torsions:
REMARK  status: ('A' for Active; 'I' for Inactive)
REMARK    1  A    between atoms: O_2  and  C_29
REMARK    2  A    between atoms: O_2  and  C_30
REMARK    3  A    between atoms: O_3  and  C_31
REMARK    4  A    between atoms: O_3  and  C_32
REMARK    5  A    between atoms: N_4  and  C_13
REMARK    6  A    between atoms: N_5  and  C_22
REMARK    7  A    between atoms: C_9  and  C_14
REMARK    8  A    between atoms: C_13  and  C_15
REMARK    9  A    between atoms: C_20  and  C_25
REMARK   10  A    between atoms: C_30  and  C_31
REMARK                            x       y       z     vdW  Elec       q    Type
REMARK                         _______ _______ _______ _____ _____    ______ ____
ROOT
ATOM      4  N   UNL     1      -3.266  -0.974  24.735  0.00  0.00    -0.287 NA
ATOM      9  C   UNL     1      -2.047  -1.804  24.646  0.00  0.00    +0.146 C 
ATOM     10  C   UNL     1      -2.464  -3.023  23.803  0.00  0.00    +0.030 C 
ATOM     11  C   UNL     1      -4.399  -1.893  24.624  0.00  0.00    +0.085 C 
ATOM     12  C   UNL     1      -3.945  -2.820  23.516  0.00  0.00    +0.017 C 
ENDROOT
BRANCH   9  14
ATOM      1  O   UNL     1      -1.175  -0.040  23.198  0.00  0.00    -0.336 OA
ATOM      6  N   UNL     1       0.409  -1.238  24.234  0.00  0.00    -0.190 NA
ATOM      7  N   UNL     1       0.052   0.493  22.782  0.00  0.00    -0.056 NA
ATOM     14  C   UNL     1      -0.874  -1.054  24.051  0.00  0.00    +0.245 A 
ATOM     20  C   UNL     1       0.936  -0.266  23.435  0.00  0.00    +0.204 A 
BRANCH  20  25
ATOM      8  N   UNL     1       4.587  -0.948  23.625  0.00  0.00    -0.221 NA
ATOM     25  C   UNL     1       2.353  -0.078  23.314  0.00  0.00    +0.041 A 
ATOM     26  C   UNL     1       2.877   1.101  22.794  0.00  0.00    +0.018 A 
ATOM     27  C   UNL     1       3.243  -1.062  23.712  0.00  0.00    +0.126 A 
ATOM     28  C   UNL     1       4.255   1.256  22.688  0.00  0.00    +0.068 A 
ATOM     29  C   UNL     1       5.060   0.211  23.115  0.00  0.00    +0.215 A 
BRANCH  29   2
ATOM      2  O   UNL     1       6.421   0.339  23.022  0.00  0.00    -0.474 OA
BRANCH   2  30
ATOM     30  C   UNL     1       7.198  -0.778  23.436  0.00  0.00    +0.258 C 
BRANCH  30  31
ATOM     31  C   UNL     1       8.353  -0.962  22.470  0.00  0.00    +0.200 C 
BRANCH  31   3
ATOM      3  O   UNL     1       9.307   0.071  22.685  0.00  0.00    -0.380 OA
ATOM     32  C   UNL     1       9.689   0.152  24.051  0.00  0.00    +0.194 C 
ENDBRANCH  31   3
ENDBRANCH  30  31
ENDBRANCH   2  30
ENDBRANCH  29   2
ENDBRANCH  20  25
ENDBRANCH   9  14
BRANCH   4  13
ATOM     13  C   UNL     1      -3.327  -0.171  25.949  0.00  0.00    +0.122 C 
BRANCH  13  15
ATOM      5  N   UNL     1      -4.429   3.260  25.204  0.00  0.00    -0.349 N 
ATOM     15  C   UNL     1      -3.498   1.293  25.644  0.00  0.00    -0.008 A 
ATOM     16  C   UNL     1      -2.459   2.254  25.492  0.00  0.00    +0.004 A 
ATOM     17  C   UNL     1      -4.698   1.942  25.460  0.00  0.00    +0.091 A 
ATOM     18  C   UNL     1      -3.070   3.479  25.217  0.00  0.00    +0.049 A 
ATOM     19  C   UNL     1      -1.053   2.197  25.563  0.00  0.00    +0.010 A 
ATOM     21  C   UNL     1      -2.342   4.655  25.008  0.00  0.00    +0.026 A 
ATOM     22  C   UNL     1      -5.440   4.265  24.957  0.00  0.00    +0.149 C 
ATOM     23  C   UNL     1      -0.312   3.367  25.356  0.00  0.00    +0.001 A 
ATOM     24  C   UNL     1      -0.948   4.576  25.083  0.00  0.00    +0.002 A 
ENDBRANCH  13  15
ENDBRANCH   4  13
TORSDOF 8
ENDMDL
