MODEL 1
REMARK VINA RESULT:      -0.2      0.000      0.000
REMARK  Name = 45361626
REMARK  10 active torsions:
REMARK  status: ('A' for Active; 'I' for Inactive)
REMARK    1  A    between atoms: O_2  and  C_12
REMARK    2  A    between atoms: N_5  and  C_16
REMARK    3  A    between atoms: N_6  and  C_26
REMARK    4  A    between atoms: C_9  and  C_19
REMARK    5  A    between atoms: C_11  and  C_21
REMARK    6  A    between atoms: C_15  and  C_20
REMARK    7  A    between atoms: C_20  and  C_22
REMARK    8  A    between atoms: C_20  and  C_23
REMARK    9  A    between atoms: C_24  and  C_25
REMARK   10  A    between atoms: C_26  and  C_29
REMARK                            x       y       z     vdW  Elec       q    Type
REMARK                         _______ _______ _______ _____ _____    ______ ____
ROOT
ATOM      9  C   UNL     1      -3.013  -1.371  24.852  0.00  0.00    -0.027 C 
ATOM     10  C   UNL     1      -2.649  -0.045  24.105  0.00  0.00    +0.028 C 
ATOM     11  C   UNL     1      -1.106   0.239  24.192  0.00  0.00    +0.012 C 
ATOM     12  C   UNL     1      -3.571   1.126  24.552  0.00  0.00    +0.122 C 
ATOM     13  C   UNL     1      -4.516  -1.680  24.651  0.00  0.00    +0.007 C 
ATOM     14  C   UNL     1      -2.207  -2.537  24.233  0.00  0.00    +0.009 C 
ATOM     15  C   UNL     1      -5.073   0.773  24.447  0.00  0.00    +0.029 C 
ATOM     16  C   UNL     1      -0.304  -0.971  23.636  0.00  0.00    +0.076 C 
ATOM     17  C   UNL     1      -5.423  -0.551  25.124  0.00  0.00    +0.007 C 
ATOM     18  C   UNL     1      -0.703  -2.305  24.266  0.00  0.00    +0.023 C 
ATOM     19  C   UNL     1      -2.719  -1.297  26.372  0.00  0.00    +0.011 C 
ATOM     21  C   UNL     1      -0.673   1.516  23.452  0.00  0.00    +0.010 C 
ENDROOT
BRANCH  16   5
ATOM      4  O   UNL     1       1.586  -0.225  21.608  0.00  0.00    -0.270 OA
ATOM      5  N   UNL     1       1.123  -0.792  23.807  0.00  0.00    -0.308 N 
ATOM     24  C   UNL     1       1.955  -0.429  22.762  0.00  0.00    +0.247 C 
ATOM     36  H   UNL     1       1.516  -1.042  24.709  0.00  0.00    +0.149 HD
BRANCH  24  25
ATOM      7  N   UNL     1       5.409  -1.267  24.006  0.00  0.00    -0.243 NA
ATOM      8  N   UNL     1       5.432   0.972  23.119  0.00  0.00    -0.243 NA
ATOM     25  C   UNL     1       3.397  -0.312  23.094  0.00  0.00    +0.073 A 
ATOM     27  C   UNL     1       4.100  -1.340  23.691  0.00  0.00    +0.127 A 
ATOM     28  C   UNL     1       4.121   0.831  22.829  0.00  0.00    +0.127 A 
ATOM     32  C   UNL     1       6.005  -0.099  23.697  0.00  0.00    +0.221 A 
ENDBRANCH  24  25
ENDBRANCH  16   5
BRANCH  12   2
ATOM      2  O   UNL     1      -3.356   2.253  23.702  0.00  0.00    -0.391 OA
ATOM     37  H   UNL     1      -2.627   2.039  23.095  0.00  0.00    +0.210 HD
ENDBRANCH  12   2
BRANCH  15  20
ATOM     20  C   UNL     1      -5.959   1.889  25.014  0.00  0.00    +0.077 C 
ATOM     22  C   UNL     1      -7.172   2.105  24.115  0.00  0.00    +0.017 C 
BRANCH  20  23
ATOM      3  O   UNL     1      -5.193   4.089  24.352  0.00  0.00    -0.276 OA
ATOM      6  N   UNL     1      -4.368   3.171  26.316  0.00  0.00    -0.311 N 
ATOM     23  C   UNL     1      -5.147   3.171  25.168  0.00  0.00    +0.216 C 
ATOM     38  H   UNL     1      -4.426   2.397  26.969  0.00  0.00    +0.149 HD
BRANCH   6  26
ATOM     26  C   UNL     1      -3.510   4.276  26.678  0.00  0.00    +0.141 C 
BRANCH  26  29
ATOM      1 CL   UNL     1      -2.484   6.293  24.580  0.00  0.00    -0.083 Cl
ATOM     29  C   UNL     1      -2.115   4.099  26.154  0.00  0.00    -0.012 A 
ATOM     30  C   UNL     1      -1.573   4.966  25.205  0.00  0.00    +0.046 A 
ATOM     31  C   UNL     1      -1.355   3.036  26.641  0.00  0.00    +0.006 A 
ATOM     33  C   UNL     1      -0.272   4.770  24.744  0.00  0.00    +0.020 A 
ATOM     34  C   UNL     1      -0.054   2.839  26.178  0.00  0.00    +0.000 A 
ATOM     35  C   UNL     1       0.488   3.706  25.230  0.00  0.00    +0.001 A 
ENDBRANCH  26  29
ENDBRANCH   6  26
ENDBRANCH  20  23
ENDBRANCH  15  20
TORSDOF 7
ENDMDL
