MODEL 1
REMARK VINA RESULT:      -4.8      0.000      0.000
REMARK  Name = 56774638
REMARK  8 active torsions:
REMARK  status: ('A' for Active; 'I' for Inactive)
REMARK    1  A    between atoms: O_2  and  C_16
REMARK    2  A    between atoms: N_5  and  C_11
REMARK    3  A    between atoms: N_6  and  C_25
REMARK    4  A    between atoms: N_7  and  C_27
REMARK    5  A    between atoms: C_8  and  C_11
REMARK    6  A    between atoms: C_15  and  C_16
REMARK    7  A    between atoms: C_16  and  C_20
REMARK    8  A    between atoms: C_27  and  C_28
REMARK                            x       y       z     vdW  Elec       q    Type
REMARK                         _______ _______ _______ _____ _____    ______ ____
ROOT
ATOM     16  C   UNL     1      -3.441   3.547  26.457  0.00  0.00    +0.167 C 
ENDROOT
BRANCH  16  15
ATOM      1  O   UNL     1      -3.994   4.451  23.721  0.00  0.00    -0.369 OA
ATOM      3  O   UNL     1      -3.252   1.004  22.941  0.00  0.00    -0.273 OA
ATOM      5  N   UNL     1      -4.280   1.893  24.831  0.00  0.00    -0.291 N 
ATOM     15  C   UNL     1      -4.623   3.101  25.590  0.00  0.00    +0.135 C 
ATOM     17  C   UNL     1      -5.054   4.210  24.638  0.00  0.00    +0.185 C 
ATOM     18  C   UNL     1      -3.718   1.964  23.557  0.00  0.00    +0.242 C 
ATOM     19  C   UNL     1      -3.783   3.332  22.889  0.00  0.00    +0.255 C 
BRANCH   5  11
ATOM     11  C   UNL     1      -4.375   0.613  25.522  0.00  0.00    +0.112 C 
BRANCH  11   8
ATOM      8  C   UNL     1      -3.669  -0.488  24.734  0.00  0.00    +0.006 C 
ATOM      9  C   UNL     1      -2.569  -1.141  25.581  0.00  0.00    +0.005 C 
ATOM     10  C   UNL     1      -4.676  -1.535  24.243  0.00  0.00    +0.005 C 
ATOM     12  C   UNL     1      -1.883  -2.282  24.834  0.00  0.00    +0.000 C 
ATOM     13  C   UNL     1      -3.986  -2.676  23.497  0.00  0.00    +0.000 C 
ATOM     14  C   UNL     1      -2.889  -3.317  24.340  0.00  0.00    +0.000 C 
ENDBRANCH  11   8
ENDBRANCH   5  11
ENDBRANCH  16  15
BRANCH  16  20
ATOM     20  C   UNL     1      -2.118   3.229  25.806  0.00  0.00    -0.017 A 
ATOM     21  C   UNL     1      -1.492   4.180  25.000  0.00  0.00    +0.008 A 
ATOM     22  C   UNL     1      -1.521   1.986  26.013  0.00  0.00    +0.008 A 
ATOM     23  C   UNL     1      -0.268   3.886  24.399  0.00  0.00    +0.024 A 
ATOM     24  C   UNL     1      -0.297   1.693  25.412  0.00  0.00    +0.024 A 
ATOM     25  C   UNL     1       0.330   2.643  24.605  0.00  0.00    +0.035 A 
BRANCH  25   6
ATOM      4  O   UNL     1       1.346   0.083  23.413  0.00  0.00    -0.253 OA
ATOM      6  N   UNL     1       1.555   2.350  24.004  0.00  0.00    -0.269 N 
ATOM      7  N   UNL     1       3.289   1.245  22.945  0.00  0.00    -0.299 N 
ATOM     26  C   UNL     1       1.992   1.128  23.455  0.00  0.00    +0.304 C 
ATOM     30  H   UNL     1       2.216   3.121  23.957  0.00  0.00    +0.156 HD
ATOM     31  H   UNL     1       3.757   2.145  23.007  0.00  0.00    +0.150 HD
BRANCH   7  27
ATOM     27  C   UNL     1       3.994   0.149  22.322  0.00  0.00    +0.102 C 
ATOM     28  C   UNL     1       5.248  -0.212  23.090  0.00  0.00    +0.024 C 
ENDBRANCH   7  27
ENDBRANCH  25   6
ENDBRANCH  16  20
BRANCH  16   2
ATOM      2  O   UNL     1      -3.532   4.948  26.692  0.00  0.00    -0.385 OA
ATOM     29  H   UNL     1      -3.051   5.151  27.512  0.00  0.00    +0.210 HD
ENDBRANCH  16   2
TORSDOF 7
ENDMDL
MODEL 2
REMARK VINA RESULT:      -4.8      1.669      2.432
REMARK  Name = 56774638
REMARK  8 active torsions:
REMARK  status: ('A' for Active; 'I' for Inactive)
REMARK    1  A    between atoms: O_2  and  C_16
REMARK    2  A    between atoms: N_5  and  C_11
REMARK    3  A    between atoms: N_6  and  C_25
REMARK    4  A    between atoms: N_7  and  C_27
REMARK    5  A    between atoms: C_8  and  C_11
REMARK    6  A    between atoms: C_15  and  C_16
REMARK    7  A    between atoms: C_16  and  C_20
REMARK    8  A    between atoms: C_27  and  C_28
REMARK                            x       y       z     vdW  Elec       q    Type
REMARK                         _______ _______ _______ _____ _____    ______ ____
ROOT
ATOM     16  C   UNL     1      -2.978   2.610  24.004  0.00  0.00    +0.167 C 
ENDROOT
BRANCH  16  15
ATOM      1  O   UNL     1      -4.720   4.356  25.594  0.00  0.00    -0.369 OA
ATOM      3  O   UNL     1      -7.183   1.847  24.775  0.00  0.00    -0.273 OA
ATOM      5  N   UNL     1      -4.902   1.592  25.164  0.00  0.00    -0.291 N 
ATOM     15  C   UNL     1      -3.607   2.254  25.355  0.00  0.00    +0.135 C 
ATOM     17  C   UNL     1      -3.778   3.494  26.223  0.00  0.00    +0.185 C 
ATOM     18  C   UNL     1      -6.092   2.316  25.102  0.00  0.00    +0.242 C 
ATOM     19  C   UNL     1      -6.000   3.766  25.561  0.00  0.00    +0.255 C 
BRANCH   5  11
ATOM     11  C   UNL     1      -4.891   0.168  24.855  0.00  0.00    +0.112 C 
BRANCH  11   8
ATOM      8  C   UNL     1      -3.462  -0.366  24.787  0.00  0.00    +0.006 C 
ATOM      9  C   UNL     1      -2.863  -0.492  26.194  0.00  0.00    +0.005 C 
ATOM     10  C   UNL     1      -3.420  -1.711  24.052  0.00  0.00    +0.005 C 
ATOM     12  C   UNL     1      -1.452  -1.074  26.157  0.00  0.00    +0.000 C 
ATOM     13  C   UNL     1      -2.007  -2.292  24.018  0.00  0.00    +0.000 C 
ATOM     14  C   UNL     1      -1.412  -2.408  25.418  0.00  0.00    +0.000 C 
ENDBRANCH  11   8
ENDBRANCH   5  11
ENDBRANCH  16  15
BRANCH  16  20
ATOM     20  C   UNL     1      -1.663   1.904  23.795  0.00  0.00    -0.017 A 
ATOM     21  C   UNL     1      -0.602   2.131  24.672  0.00  0.00    +0.008 A 
ATOM     22  C   UNL     1      -1.507   1.022  22.726  0.00  0.00    +0.008 A 
ATOM     23  C   UNL     1       0.615   1.476  24.479  0.00  0.00    +0.024 A 
ATOM     24  C   UNL     1      -0.291   0.368  22.533  0.00  0.00    +0.024 A 
ATOM     25  C   UNL     1       0.770   0.594  23.410  0.00  0.00    +0.035 A 
BRANCH  25   6
ATOM      4  O   UNL     1       3.544   1.699  23.113  0.00  0.00    -0.253 OA
ATOM      6  N   UNL     1       1.987  -0.061  23.218  0.00  0.00    -0.269 N 
ATOM      7  N   UNL     1       4.237  -0.496  22.906  0.00  0.00    -0.299 N 
ATOM     26  C   UNL     1       3.273   0.501  23.083  0.00  0.00    +0.304 C 
ATOM     30  H   UNL     1       1.938  -1.075  23.170  0.00  0.00    +0.156 HD
ATOM     31  H   UNL     1       3.938  -1.467  22.902  0.00  0.00    +0.150 HD
BRANCH   7  27
ATOM     27  C   UNL     1       5.644  -0.213  22.740  0.00  0.00    +0.102 C 
ATOM     28  C   UNL     1       6.312   0.069  24.069  0.00  0.00    +0.024 C 
ENDBRANCH   7  27
ENDBRANCH  25   6
ENDBRANCH  16  20
BRANCH  16   2
ATOM      2  O   UNL     1      -3.879   2.259  22.959  0.00  0.00    -0.385 OA
ATOM     29  H   UNL     1      -4.123   3.070  22.482  0.00  0.00    +0.210 HD
ENDBRANCH  16   2
TORSDOF 7
ENDMDL
MODEL 3
REMARK VINA RESULT:      -2.5      1.939      4.419
REMARK  Name = 56774638
REMARK  8 active torsions:
REMARK  status: ('A' for Active; 'I' for Inactive)
REMARK    1  A    between atoms: O_2  and  C_16
REMARK    2  A    between atoms: N_5  and  C_11
REMARK    3  A    between atoms: N_6  and  C_25
REMARK    4  A    between atoms: N_7  and  C_27
REMARK    5  A    between atoms: C_8  and  C_11
REMARK    6  A    between atoms: C_15  and  C_16
REMARK    7  A    between atoms: C_16  and  C_20
REMARK    8  A    between atoms: C_27  and  C_28
REMARK                            x       y       z     vdW  Elec       q    Type
REMARK                         _______ _______ _______ _____ _____    ______ ____
ROOT
ATOM     16  C   UNL     1      -4.026   0.268  24.479  0.00  0.00    +0.167 C 
ENDROOT
BRANCH  16  15
ATOM      1  O   UNL     1      -6.742   1.358  24.261  0.00  0.00    -0.369 OA
ATOM      3  O   UNL     1      -5.926   2.759  27.487  0.00  0.00    -0.273 OA
ATOM      5  N   UNL     1      -4.535   2.372  25.661  0.00  0.00    -0.291 N 
ATOM     15  C   UNL     1      -4.385   1.751  24.340  0.00  0.00    +0.135 C 
ATOM     17  C   UNL     1      -5.663   1.932  23.531  0.00  0.00    +0.185 C 
ATOM     18  C   UNL     1      -5.765   2.411  26.317  0.00  0.00    +0.242 C 
ATOM     19  C   UNL     1      -6.975   2.068  25.457  0.00  0.00    +0.255 C 
BRANCH   5  11
ATOM     11  C   UNL     1      -3.321   2.787  26.352  0.00  0.00    +0.112 C 
BRANCH  11   8
ATOM      8  C   UNL     1      -2.342   3.451  25.385  0.00  0.00    +0.006 C 
ATOM      9  C   UNL     1      -2.454   4.980  25.466  0.00  0.00    +0.005 C 
ATOM     10  C   UNL     1      -0.906   2.992  25.667  0.00  0.00    +0.005 C 
ATOM     12  C   UNL     1      -1.447   5.669  24.548  0.00  0.00    +0.000 C 
ATOM     13  C   UNL     1       0.099   3.685  24.747  0.00  0.00    +0.000 C 
ATOM     14  C   UNL     1      -0.022   5.204  24.825  0.00  0.00    +0.000 C 
ENDBRANCH  11   8
ENDBRANCH   5  11
ENDBRANCH  16  15
BRANCH  16  20
ATOM     20  C   UNL     1      -2.565   0.017  24.200  0.00  0.00    -0.017 A 
ATOM     21  C   UNL     1      -1.886  -0.986  24.891  0.00  0.00    +0.008 A 
ATOM     22  C   UNL     1      -1.895   0.787  23.250  0.00  0.00    +0.008 A 
ATOM     23  C   UNL     1      -0.535  -1.219  24.632  0.00  0.00    +0.024 A 
ATOM     24  C   UNL     1      -0.545   0.555  22.991  0.00  0.00    +0.024 A 
ATOM     25  C   UNL     1       0.135  -0.448  23.681  0.00  0.00    +0.035 A 
BRANCH  25   6
ATOM      4  O   UNL     1       2.415   1.478  23.372  0.00  0.00    -0.253 OA
ATOM      6  N   UNL     1       1.487  -0.682  23.423  0.00  0.00    -0.269 N 
ATOM      7  N   UNL     1       3.746  -0.380  23.028  0.00  0.00    -0.299 N 
ATOM     26  C   UNL     1       2.528   0.258  23.285  0.00  0.00    +0.304 C 
ATOM     30  H   UNL     1       1.752  -1.658  23.321  0.00  0.00    +0.156 HD
ATOM     31  H   UNL     1       3.763  -1.395  22.980  0.00  0.00    +0.150 HD
BRANCH   7  27
ATOM     27  C   UNL     1       4.987   0.334  22.842  0.00  0.00    +0.102 C 
ATOM     28  C   UNL     1       5.787   0.400  24.125  0.00  0.00    +0.024 C 
ENDBRANCH   7  27
ENDBRANCH  25   6
ENDBRANCH  16  20
BRANCH  16   2
ATOM      2  O   UNL     1      -4.341  -0.171  25.796  0.00  0.00    -0.385 OA
ATOM     29  H   UNL     1      -4.026   0.501  26.425  0.00  0.00    +0.210 HD
ENDBRANCH  16   2
TORSDOF 7
ENDMDL
MODEL 4
REMARK VINA RESULT:      -1.6      1.080      1.145
REMARK  Name = 56774638
REMARK  8 active torsions:
REMARK  status: ('A' for Active; 'I' for Inactive)
REMARK    1  A    between atoms: O_2  and  C_16
REMARK    2  A    between atoms: N_5  and  C_11
REMARK    3  A    between atoms: N_6  and  C_25
REMARK    4  A    between atoms: N_7  and  C_27
REMARK    5  A    between atoms: C_8  and  C_11
REMARK    6  A    between atoms: C_15  and  C_16
REMARK    7  A    between atoms: C_16  and  C_20
REMARK    8  A    between atoms: C_27  and  C_28
REMARK                            x       y       z     vdW  Elec       q    Type
REMARK                         _______ _______ _______ _____ _____    ______ ____
ROOT
ATOM     16  C   UNL     1      -3.013   2.964  26.156  0.00  0.00    +0.167 C 
ENDROOT
BRANCH  16  15
ATOM      1  O   UNL     1      -3.205   4.101  23.458  0.00  0.00    -0.369 OA
ATOM      3  O   UNL     1      -3.689   0.639  22.550  0.00  0.00    -0.273 OA
ATOM      5  N   UNL     1      -4.360   1.759  24.478  0.00  0.00    -0.291 N 
ATOM     15  C   UNL     1      -4.271   2.983  25.282  0.00  0.00    +0.135 C 
ATOM     17  C   UNL     1      -4.289   4.206  24.374  0.00  0.00    +0.185 C 
ATOM     18  C   UNL     1      -3.800   1.678  23.204  0.00  0.00    +0.242 C 
ATOM     19  C   UNL     1      -3.386   3.008  22.585  0.00  0.00    +0.255 C 
BRANCH   5  11
ATOM     11  C   UNL     1      -4.893   0.566  25.124  0.00  0.00    +0.112 C 
BRANCH  11   8
ATOM      8  C   UNL     1      -4.005  -0.646  24.851  0.00  0.00    +0.006 C 
ATOM      9  C   UNL     1      -3.672  -1.378  26.158  0.00  0.00    +0.005 C 
ATOM     10  C   UNL     1      -4.674  -1.595  23.849  0.00  0.00    +0.005 C 
ATOM     12  C   UNL     1      -2.828  -2.625  25.908  0.00  0.00    +0.000 C 
ATOM     13  C   UNL     1      -3.827  -2.843  23.601  0.00  0.00    +0.000 C 
ATOM     14  C   UNL     1      -3.492  -3.562  24.904  0.00  0.00    +0.000 C 
ENDBRANCH  11   8
ENDBRANCH   5  11
ENDBRANCH  16  15
BRANCH  16  20
ATOM     20  C   UNL     1      -1.866   2.265  25.471  0.00  0.00    -0.017 A 
ATOM     21  C   UNL     1      -0.879   3.012  24.827  0.00  0.00    +0.008 A 
ATOM     22  C   UNL     1      -1.791   0.872  25.484  0.00  0.00    +0.008 A 
ATOM     23  C   UNL     1       0.183   2.365  24.194  0.00  0.00    +0.024 A 
ATOM     24  C   UNL     1      -0.729   0.226  24.851  0.00  0.00    +0.024 A 
ATOM     25  C   UNL     1       0.258   0.972  24.207  0.00  0.00    +0.035 A 
BRANCH  25   6
ATOM      4  O   UNL     1       2.991   1.979  23.485  0.00  0.00    -0.253 OA
ATOM      6  N   UNL     1       1.321   0.326  23.573  0.00  0.00    -0.269 N 
ATOM      7  N   UNL     1       3.377  -0.129  22.619  0.00  0.00    -0.299 N 
ATOM     26  C   UNL     1       2.593   0.840  23.253  0.00  0.00    +0.304 C 
ATOM     30  H   UNL     1       1.153  -0.641  23.310  0.00  0.00    +0.156 HD
ATOM     31  H   UNL     1       2.983  -1.053  22.470  0.00  0.00    +0.150 HD
BRANCH   7  27
ATOM     27  C   UNL     1       4.730   0.117  22.176  0.00  0.00    +0.102 C 
ATOM     28  C   UNL     1       5.735  -0.187  23.268  0.00  0.00    +0.024 C 
ENDBRANCH   7  27
ENDBRANCH  25   6
ENDBRANCH  16  20
BRANCH  16   2
ATOM      2  O   UNL     1      -2.638   4.300  26.470  0.00  0.00    -0.385 OA
ATOM     29  H   UNL     1      -1.865   4.270  27.060  0.00  0.00    +0.210 HD
ENDBRANCH  16   2
TORSDOF 7
ENDMDL
