MODEL 1
REMARK VINA RESULT:       7.6      0.000      0.000
REMARK  Name = 11941480
REMARK  6 active torsions:
REMARK  status: ('A' for Active; 'I' for Inactive)
REMARK    1  A    between atoms: N_8  and  C_11
REMARK    2  A    between atoms: N_10  and  C_24
REMARK    3  A    between atoms: C_22  and  C_25
REMARK    4  A    between atoms: C_24  and  C_26
REMARK    5  A    between atoms: C_24  and  C_27
REMARK    6  A    between atoms: C_30  and  C_33
REMARK                            x       y       z     vdW  Elec       q    Type
REMARK                         _______ _______ _______ _____ _____    ______ ____
ROOT
ATOM      4  O   UNL     1      -5.043  -0.583  26.416  0.00  0.00    -0.273 OA
ATOM      5  O   UNL     1      -2.751   1.069  21.968  0.00  0.00    -0.270 OA
ATOM      7  N   UNL     1      -3.829   1.286  23.988  0.00  0.00    -0.284 N 
ATOM      9  N   UNL     1      -2.973  -1.036  25.579  0.00  0.00    -0.283 N 
ATOM     11  C   UNL     1      -5.010   2.175  25.834  0.00  0.00    +0.105 C 
ATOM     12  C   UNL     1      -3.839   1.264  25.440  0.00  0.00    +0.183 C 
ATOM     13  C   UNL     1      -5.950   2.090  24.631  0.00  0.00    +0.043 C 
ATOM     14  C   UNL     1      -4.999   1.965  23.450  0.00  0.00    +0.111 C 
ATOM     15  C   UNL     1      -4.035  -0.190  25.824  0.00  0.00    +0.240 C 
ATOM     16  C   UNL     1      -2.784   0.884  23.184  0.00  0.00    +0.249 C 
ATOM     17  C   UNL     1      -1.650   0.164  23.820  0.00  0.00    +0.059 A 
ATOM     18  C   UNL     1      -1.788  -0.773  24.858  0.00  0.00    +0.046 A 
ATOM     20  C   UNL     1      -0.395   0.334  23.206  0.00  0.00    +0.023 A 
ATOM     21  C   UNL     1      -0.681  -1.565  25.208  0.00  0.00    +0.024 A 
ATOM     22  C   UNL     1       0.704  -0.426  23.600  0.00  0.00    -0.017 A 
ATOM     23  C   UNL     1       0.558  -1.387  24.594  0.00  0.00    +0.010 A 
ATOM     35  H   UNL     1      -3.017  -1.938  26.049  0.00  0.00    +0.155 HD
ENDROOT
BRANCH  11   8
ATOM      6  O   UNL     1      -2.660   3.425  24.719  0.00  0.00    -0.253 OA
ATOM      8  N   UNL     1      -4.559   3.531  26.051  0.00  0.00    -0.294 N 
ATOM     10  N   UNL     1      -3.208   5.378  25.845  0.00  0.00    -0.297 N 
ATOM     19  C   UNL     1      -3.407   4.053  25.469  0.00  0.00    +0.300 C 
ATOM     34  H   UNL     1      -5.140   4.153  26.604  0.00  0.00    +0.151 HD
ATOM     36  H   UNL     1      -3.920   5.833  26.408  0.00  0.00    +0.150 HD
BRANCH  10  24
ATOM     24  C   UNL     1      -2.086   6.163  25.385  0.00  0.00    +0.068 C 
ATOM     26  C   UNL     1      -2.442   6.891  24.097  0.00  0.00    +0.027 C 
ATOM     27  C   UNL     1      -0.857   5.282  25.200  0.00  0.00    +0.027 C 
ENDBRANCH  10  24
ENDBRANCH  11   8
BRANCH  22  25
ATOM     25  C   UNL     1       1.987  -0.234  22.959  0.00  0.00    -0.017 A 
ATOM     28  C   UNL     1       3.153  -0.211  23.724  0.00  0.00    +0.021 A 
ATOM     29  C   UNL     1       2.058  -0.072  21.575  0.00  0.00    +0.008 A 
ATOM     30  C   UNL     1       4.389  -0.026  23.106  0.00  0.00    +0.055 A 
ATOM     31  C   UNL     1       3.294   0.113  20.957  0.00  0.00    +0.001 A 
ATOM     32  C   UNL     1       4.459   0.136  21.722  0.00  0.00    +0.012 A 
BRANCH  30  33
ATOM      1  F   UNL     1       5.666  -0.952  24.904  0.00  0.00    -0.166 F 
ATOM      2  F   UNL     1       6.772  -0.211  23.191  0.00  0.00    -0.166 F 
ATOM      3  F   UNL     1       5.826   1.188  24.560  0.00  0.00    -0.166 F 
ATOM     33  C   UNL     1       5.637  -0.003  23.923  0.00  0.00    +0.417 C 
ENDBRANCH  30  33
ENDBRANCH  22  25
TORSDOF 4
ENDMDL
