MODEL 1
REMARK VINA RESULT:      -1.9      0.000      0.000
REMARK  Name = 45784224
REMARK  5 active torsions:
REMARK  status: ('A' for Active; 'I' for Inactive)
REMARK    1  A    between atoms: N_1  and  C_9
REMARK    2  A    between atoms: N_4  and  C_21
REMARK    3  A    between atoms: C_5  and  C_10
REMARK    4  A    between atoms: C_9  and  C_11
REMARK    5  A    between atoms: C_22  and  C_26
REMARK                            x       y       z     vdW  Elec       q    Type
REMARK                         _______ _______ _______ _____ _____    ______ ____
ROOT
ATOM      1  N   UNL     1      -3.214  -0.697  24.734  0.00  0.00    -0.297 NA
ATOM      5  C   UNL     1      -1.159  -1.240  23.743  0.00  0.00    +0.070 C 
ATOM      6  C   UNL     1      -2.187  -0.107  23.873  0.00  0.00    +0.096 C 
ATOM      7  C   UNL     1      -1.368  -2.102  24.999  0.00  0.00    +0.028 C 
ATOM      8  C   UNL     1      -2.472  -1.401  25.780  0.00  0.00    +0.085 C 
ENDROOT
BRANCH   5  10
ATOM      2  N   UNL     1       1.333  -1.508  23.868  0.00  0.00    -0.342 N 
ATOM      3  N   UNL     1       0.608   0.436  23.069  0.00  0.00    -0.232 NA
ATOM     10  C   UNL     1       0.251  -0.735  23.546  0.00  0.00    +0.113 A 
ATOM     13  C   UNL     1       2.463  -0.786  23.579  0.00  0.00    +0.066 A 
ATOM     15  C   UNL     1       1.984   0.423  23.083  0.00  0.00    +0.089 A 
ATOM     18  C   UNL     1       3.822  -1.078  23.707  0.00  0.00    +0.031 A 
ATOM     19  C   UNL     1       2.900   1.412  22.684  0.00  0.00    +0.030 A 
ATOM     22  C   UNL     1       4.720  -0.082  23.305  0.00  0.00    -0.048 A 
ATOM     24  C   UNL     1       4.269   1.140  22.803  0.00  0.00    +0.005 A 
ATOM     26  C   UNL     1       6.188  -0.335  23.417  0.00  0.00    +0.044 C 
ATOM     27  H   UNL     1       1.309  -2.443  24.250  0.00  0.00    +0.167 HD
ENDBRANCH   5  10
BRANCH   1   9
ATOM      9  C   UNL     1      -4.125   0.301  25.276  0.00  0.00    +0.121 C 
BRANCH   9  11
ATOM      4  N   UNL     1      -3.672   3.799  24.229  0.00  0.00    -0.349 N 
ATOM     11  C   UNL     1      -3.676   1.702  24.957  0.00  0.00    -0.008 A 
ATOM     12  C   UNL     1      -2.402   2.268  25.239  0.00  0.00    +0.004 A 
ATOM     14  C   UNL     1      -4.436   2.666  24.335  0.00  0.00    +0.091 A 
ATOM     16  C   UNL     1      -2.426   3.584  24.773  0.00  0.00    +0.049 A 
ATOM     17  C   UNL     1      -1.228   1.787  25.851  0.00  0.00    +0.010 A 
ATOM     20  C   UNL     1      -1.330   4.446  24.886  0.00  0.00    +0.026 A 
ATOM     21  C   UNL     1      -4.127   5.034  23.628  0.00  0.00    +0.149 C 
ATOM     23  C   UNL     1      -0.123   2.638  25.970  0.00  0.00    +0.001 A 
ATOM     25  C   UNL     1      -0.175   3.946  25.495  0.00  0.00    +0.002 A 
ENDBRANCH   9  11
ENDBRANCH   1   9
TORSDOF 3
ENDMDL
MODEL 2
REMARK VINA RESULT:      -1.4     14.922     16.562
REMARK  Name = 45784224
REMARK  5 active torsions:
REMARK  status: ('A' for Active; 'I' for Inactive)
REMARK    1  A    between atoms: N_1  and  C_9
REMARK    2  A    between atoms: N_4  and  C_21
REMARK    3  A    between atoms: C_5  and  C_10
REMARK    4  A    between atoms: C_9  and  C_11
REMARK    5  A    between atoms: C_22  and  C_26
REMARK                            x       y       z     vdW  Elec       q    Type
REMARK                         _______ _______ _______ _____ _____    ______ ____
ROOT
ATOM      1  N   UNL     1      -5.602 -10.501  14.388  0.00  0.00    -0.297 NA
ATOM      5  C   UNL     1      -3.367 -10.781  13.732  0.00  0.00    +0.070 C 
ATOM      6  C   UNL     1      -4.727 -10.269  13.237  0.00  0.00    +0.096 C 
ATOM      7  C   UNL     1      -3.443 -10.669  15.264  0.00  0.00    +0.028 C 
ATOM      8  C   UNL     1      -4.817 -10.078  15.549  0.00  0.00    +0.085 C 
ENDROOT
BRANCH   5  10
ATOM      2  N   UNL     1      -1.518  -9.085  13.774  0.00  0.00    -0.342 N 
ATOM      3  N   UNL     1      -1.713 -10.256  11.894  0.00  0.00    -0.232 NA
ATOM     10  C   UNL     1      -2.200 -10.060  13.099  0.00  0.00    +0.113 A 
ATOM     13  C   UNL     1      -0.524  -8.624  12.949  0.00  0.00    +0.066 A 
ATOM     15  C   UNL     1      -0.667  -9.369  11.783  0.00  0.00    +0.089 A 
ATOM     18  C   UNL     1       0.458  -7.646  13.118  0.00  0.00    +0.031 A 
ATOM     19  C   UNL     1       0.212  -9.142  10.710  0.00  0.00    +0.030 A 
ATOM     22  C   UNL     1       1.325  -7.432  12.040  0.00  0.00    -0.048 A 
ATOM     24  C   UNL     1       1.206  -8.165  10.858  0.00  0.00    +0.005 A 
ATOM     26  C   UNL     1       2.397  -6.400  12.160  0.00  0.00    +0.044 C 
ATOM     27  H   UNL     1      -1.708  -8.761  14.712  0.00  0.00    +0.167 HD
ENDBRANCH   5  10
BRANCH   1   9
ATOM      9  C   UNL     1      -6.864  -9.785  14.281  0.00  0.00    +0.121 C 
BRANCH   9  11
ATOM      4  N   UNL     1      -8.737 -10.230  11.145  0.00  0.00    -0.349 N 
ATOM     11  C   UNL     1      -7.413  -9.823  12.879  0.00  0.00    -0.008 A 
ATOM     12  C   UNL     1      -6.810  -9.263  11.718  0.00  0.00    +0.004 A 
ATOM     14  C   UNL     1      -8.596 -10.411  12.495  0.00  0.00    +0.091 A 
ATOM     16  C   UNL     1      -7.661  -9.532  10.645  0.00  0.00    +0.049 A 
ATOM     17  C   UNL     1      -5.619  -8.550  11.477  0.00  0.00    +0.010 A 
ATOM     20  C   UNL     1      -7.380  -9.123   9.337  0.00  0.00    +0.026 A 
ATOM     21  C   UNL     1      -9.862 -10.710  10.372  0.00  0.00    +0.149 C 
ATOM     23  C   UNL     1      -5.324  -8.135  10.174  0.00  0.00    +0.001 A 
ATOM     25  C   UNL     1      -6.192  -8.418   9.122  0.00  0.00    +0.002 A 
ENDBRANCH   9  11
ENDBRANCH   1   9
TORSDOF 3
ENDMDL
MODEL 3
REMARK VINA RESULT:      -0.3      1.149      2.283
REMARK  Name = 45784224
REMARK  5 active torsions:
REMARK  status: ('A' for Active; 'I' for Inactive)
REMARK    1  A    between atoms: N_1  and  C_9
REMARK    2  A    between atoms: N_4  and  C_21
REMARK    3  A    between atoms: C_5  and  C_10
REMARK    4  A    between atoms: C_9  and  C_11
REMARK    5  A    between atoms: C_22  and  C_26
REMARK                            x       y       z     vdW  Elec       q    Type
REMARK                         _______ _______ _______ _____ _____    ______ ____
ROOT
ATOM      1  N   UNL     1      -2.795  -1.332  24.451  0.00  0.00    -0.297 NA
ATOM      5  C   UNL     1      -0.516  -1.817  24.182  0.00  0.00    +0.070 C 
ATOM      6  C   UNL     1      -1.699  -1.112  23.504  0.00  0.00    +0.096 C 
ATOM      7  C   UNL     1      -0.869  -1.820  25.678  0.00  0.00    +0.028 C 
ATOM      8  C   UNL     1      -2.207  -1.098  25.770  0.00  0.00    +0.085 C 
ENDROOT
BRANCH   5  10
ATOM      2  N   UNL     1       1.994  -1.797  24.180  0.00  0.00    -0.342 N 
ATOM      3  N   UNL     1       1.012  -0.046  23.224  0.00  0.00    -0.232 NA
ATOM     10  C   UNL     1       0.816  -1.188  23.844  0.00  0.00    +0.113 A 
ATOM     13  C   UNL     1       3.017  -0.994  23.746  0.00  0.00    +0.066 A 
ATOM     15  C   UNL     1       2.379   0.092  23.154  0.00  0.00    +0.089 A 
ATOM     18  C   UNL     1       4.406  -1.120  23.819  0.00  0.00    +0.031 A 
ATOM     19  C   UNL     1       3.155   1.123  22.595  0.00  0.00    +0.030 A 
ATOM     22  C   UNL     1       5.162  -0.085  23.259  0.00  0.00    -0.048 A 
ATOM     24  C   UNL     1       4.550   1.017  22.657  0.00  0.00    +0.005 A 
ATOM     26  C   UNL     1       6.653  -0.162  23.305  0.00  0.00    +0.044 C 
ATOM     27  H   UNL     1       2.096  -2.680  24.661  0.00  0.00    +0.167 HD
ENDBRANCH   5  10
BRANCH   1   9
ATOM      9  C   UNL     1      -3.936  -0.467  24.191  0.00  0.00    +0.121 C 
BRANCH   9  11
ATOM      4  N   UNL     1      -2.480   2.895  24.528  0.00  0.00    -0.349 N 
ATOM     11  C   UNL     1      -3.603   0.984  24.417  0.00  0.00    -0.008 A 
ATOM     12  C   UNL     1      -4.492   1.995  24.876  0.00  0.00    +0.004 A 
ATOM     14  C   UNL     1      -2.374   1.567  24.212  0.00  0.00    +0.091 A 
ATOM     16  C   UNL     1      -3.762   3.184  24.937  0.00  0.00    +0.049 A 
ATOM     17  C   UNL     1      -5.851   2.014  25.246  0.00  0.00    +0.010 A 
ATOM     20  C   UNL     1      -4.326   4.396  25.352  0.00  0.00    +0.026 A 
ATOM     21  C   UNL     1      -1.391   3.843  24.440  0.00  0.00    +0.149 C 
ATOM     23  C   UNL     1      -6.428   3.219  25.663  0.00  0.00    +0.001 A 
ATOM     25  C   UNL     1      -5.676   4.390  25.715  0.00  0.00    +0.002 A 
ENDBRANCH   9  11
ENDBRANCH   1   9
TORSDOF 3
ENDMDL
MODEL 4
REMARK VINA RESULT:       1.4     15.074     16.724
REMARK  Name = 45784224
REMARK  5 active torsions:
REMARK  status: ('A' for Active; 'I' for Inactive)
REMARK    1  A    between atoms: N_1  and  C_9
REMARK    2  A    between atoms: N_4  and  C_21
REMARK    3  A    between atoms: C_5  and  C_10
REMARK    4  A    between atoms: C_9  and  C_11
REMARK    5  A    between atoms: C_22  and  C_26
REMARK                            x       y       z     vdW  Elec       q    Type
REMARK                         _______ _______ _______ _____ _____    ______ ____
ROOT
ATOM      1  N   UNL     1      -4.289  -9.949  10.807  0.00  0.00    -0.297 NA
ATOM      5  C   UNL     1      -1.957  -9.896  11.055  0.00  0.00    +0.070 C 
ATOM      6  C   UNL     1      -3.126  -9.172  10.372  0.00  0.00    +0.096 C 
ATOM      7  C   UNL     1      -2.588 -10.592  12.273  0.00  0.00    +0.028 C 
ATOM      8  C   UNL     1      -4.061 -10.204  12.230  0.00  0.00    +0.085 C 
ENDROOT
BRANCH   5  10
ATOM      2  N   UNL     1       0.477  -9.287  11.008  0.00  0.00    -0.342 N 
ATOM      3  N   UNL     1      -0.865  -7.828  12.014  0.00  0.00    -0.232 NA
ATOM     10  C   UNL     1      -0.802  -8.976  11.377  0.00  0.00    +0.113 A 
ATOM     13  C   UNL     1       1.294  -8.271  11.435  0.00  0.00    +0.066 A 
ATOM     15  C   UNL     1       0.433  -7.373  12.059  0.00  0.00    +0.089 A 
ATOM     18  C   UNL     1       2.671  -8.066  11.331  0.00  0.00    +0.031 A 
ATOM     19  C   UNL     1       0.957  -6.196  12.619  0.00  0.00    +0.030 A 
ATOM     22  C   UNL     1       3.176  -6.889  11.894  0.00  0.00    -0.048 A 
ATOM     24  C   UNL     1       2.337  -5.970  12.527  0.00  0.00    +0.005 A 
ATOM     26  C   UNL     1       4.642  -6.613  11.816  0.00  0.00    +0.044 C 
ATOM     27  H   UNL     1       0.773 -10.116  10.510  0.00  0.00    +0.167 HD
ENDBRANCH   5  10
BRANCH   1   9
ATOM      9  C   UNL     1      -5.544  -9.254  10.563  0.00  0.00    +0.121 C 
BRANCH   9  11
ATOM      4  N   UNL     1      -7.442  -9.910  13.646  0.00  0.00    -0.349 N 
ATOM     11  C   UNL     1      -6.550  -9.515  11.653  0.00  0.00    -0.008 A 
ATOM     12  C   UNL     1      -7.961  -9.607  11.498  0.00  0.00    +0.004 A 
ATOM     14  C   UNL     1      -6.261  -9.705  12.984  0.00  0.00    +0.091 A 
ATOM     16  C   UNL     1      -8.497  -9.856  12.763  0.00  0.00    +0.049 A 
ATOM     17  C   UNL     1      -8.837  -9.502  10.400  0.00  0.00    +0.010 A 
ATOM     20  C   UNL     1      -9.870 -10.006  12.986  0.00  0.00    +0.026 A 
ATOM     21  C   UNL     1      -7.548 -10.149  15.069  0.00  0.00    +0.149 C 
ATOM     23  C   UNL     1     -10.214  -9.650  10.607  0.00  0.00    +0.001 A 
ATOM     25  C   UNL     1     -10.719  -9.898  11.881  0.00  0.00    +0.002 A 
ENDBRANCH   9  11
ENDBRANCH   1   9
TORSDOF 3
ENDMDL
MODEL 5
REMARK VINA RESULT:       1.7     15.432     17.010
REMARK  Name = 45784224
REMARK  5 active torsions:
REMARK  status: ('A' for Active; 'I' for Inactive)
REMARK    1  A    between atoms: N_1  and  C_9
REMARK    2  A    between atoms: N_4  and  C_21
REMARK    3  A    between atoms: C_5  and  C_10
REMARK    4  A    between atoms: C_9  and  C_11
REMARK    5  A    between atoms: C_22  and  C_26
REMARK                            x       y       z     vdW  Elec       q    Type
REMARK                         _______ _______ _______ _____ _____    ______ ____
ROOT
ATOM      1  N   UNL     1      -5.229  -9.534  11.451  0.00  0.00    -0.297 NA
ATOM      5  C   UNL     1      -2.946  -9.985  11.164  0.00  0.00    +0.070 C 
ATOM      6  C   UNL     1      -4.047  -8.985  10.783  0.00  0.00    +0.096 C 
ATOM      7  C   UNL     1      -3.435 -10.623  12.475  0.00  0.00    +0.028 C 
ATOM      8  C   UNL     1      -4.760  -9.937  12.778  0.00  0.00    +0.085 C 
ENDROOT
BRANCH   5  10
ATOM      2  N   UNL     1      -1.344  -8.250  12.016  0.00  0.00    -0.342 N 
ATOM      3  N   UNL     1      -0.492  -9.745  10.609  0.00  0.00    -0.232 NA
ATOM     10  C   UNL     1      -1.576  -9.351  11.238  0.00  0.00    +0.113 A 
ATOM     13  C   UNL     1      -0.022  -7.912  11.878  0.00  0.00    +0.066 A 
ATOM     15  C   UNL     1       0.488  -8.860  10.996  0.00  0.00    +0.089 A 
ATOM     18  C   UNL     1       0.748  -6.889  12.434  0.00  0.00    +0.031 A 
ATOM     19  C   UNL     1       1.845  -8.800  10.634  0.00  0.00    +0.030 A 
ATOM     22  C   UNL     1       2.096  -6.845  12.062  0.00  0.00    -0.048 A 
ATOM     24  C   UNL     1       2.637  -7.782  11.179  0.00  0.00    +0.005 A 
ATOM     26  C   UNL     1       2.973  -5.773  12.623  0.00  0.00    +0.044 C 
ATOM     27  H   UNL     1      -2.023  -7.769  12.590  0.00  0.00    +0.167 HD
ENDBRANCH   5  10
BRANCH   1   9
ATOM      9  C   UNL     1      -6.324  -8.577  11.517  0.00  0.00    +0.121 C 
BRANCH   9  11
ATOM      4  N   UNL     1      -9.515 -10.182  10.632  0.00  0.00    -0.349 N 
ATOM     11  C   UNL     1      -7.667  -9.255  11.439  0.00  0.00    -0.008 A 
ATOM     12  C   UNL     1      -8.468  -9.676  12.536  0.00  0.00    +0.004 A 
ATOM     14  C   UNL     1      -8.336  -9.580  10.282  0.00  0.00    +0.091 A 
ATOM     16  C   UNL     1      -9.621 -10.254  12.003  0.00  0.00    +0.049 A 
ATOM     17  C   UNL     1      -8.322  -9.621  13.936  0.00  0.00    +0.010 A 
ATOM     20  C   UNL     1     -10.641 -10.781  12.803  0.00  0.00    +0.026 A 
ATOM     21  C   UNL     1     -10.496 -10.666   9.685  0.00  0.00    +0.149 C 
ATOM     23  C   UNL     1      -9.334 -10.145  14.749  0.00  0.00    +0.001 A 
ATOM     25  C   UNL     1     -10.475 -10.715  14.189  0.00  0.00    +0.002 A 
ENDBRANCH   9  11
ENDBRANCH   1   9
TORSDOF 3
ENDMDL
MODEL 6
REMARK VINA RESULT:       2.0      1.548      3.277
REMARK  Name = 45784224
REMARK  5 active torsions:
REMARK  status: ('A' for Active; 'I' for Inactive)
REMARK    1  A    between atoms: N_1  and  C_9
REMARK    2  A    between atoms: N_4  and  C_21
REMARK    3  A    between atoms: C_5  and  C_10
REMARK    4  A    between atoms: C_9  and  C_11
REMARK    5  A    between atoms: C_22  and  C_26
REMARK                            x       y       z     vdW  Elec       q    Type
REMARK                         _______ _______ _______ _____ _____    ______ ____
ROOT
ATOM      1  N   UNL     1      -1.092   1.909  24.270  0.00  0.00    -0.297 NA
ATOM      5  C   UNL     1       0.581   0.703  23.153  0.00  0.00    +0.070 C 
ATOM      6  C   UNL     1       0.318   2.024  23.889  0.00  0.00    +0.096 C 
ATOM      7  C   UNL     1      -0.468  -0.272  23.714  0.00  0.00    +0.028 C 
ATOM      8  C   UNL     1      -1.243   0.535  24.749  0.00  0.00    +0.085 C 
ENDROOT
BRANCH   5  10
ATOM      2  N   UNL     1       3.059   1.095  23.088  0.00  0.00    -0.342 N 
ATOM      3  N   UNL     1       2.420  -0.981  23.562  0.00  0.00    -0.232 NA
ATOM     10  C   UNL     1       2.012   0.235  23.276  0.00  0.00    +0.113 A 
ATOM     13  C   UNL     1       4.219   0.386  23.266  0.00  0.00    +0.066 A 
ATOM     15  C   UNL     1       3.795  -0.906  23.560  0.00  0.00    +0.089 A 
ATOM     18  C   UNL     1       5.564   0.753  23.195  0.00  0.00    +0.031 A 
ATOM     19  C   UNL     1       4.753  -1.905  23.802  0.00  0.00    +0.030 A 
ATOM     22  C   UNL     1       6.505  -0.254  23.439  0.00  0.00    -0.048 A 
ATOM     24  C   UNL     1       6.109  -1.559  23.737  0.00  0.00    +0.005 A 
ATOM     26  C   UNL     1       7.960   0.077  23.379  0.00  0.00    +0.044 C 
ATOM     27  H   UNL     1       2.993   2.078  22.860  0.00  0.00    +0.167 HD
ENDBRANCH   5  10
BRANCH   1   9
ATOM      9  C   UNL     1      -1.479   2.891  25.272  0.00  0.00    +0.121 C 
BRANCH   9  11
ATOM      4  N   UNL     1      -4.950   4.092  25.478  0.00  0.00    -0.349 N 
ATOM     11  C   UNL     1      -2.968   3.111  25.297  0.00  0.00    -0.008 A 
ATOM     12  C   UNL     1      -3.972   2.130  25.065  0.00  0.00    +0.004 A 
ATOM     14  C   UNL     1      -3.600   4.307  25.548  0.00  0.00    +0.091 A 
ATOM     16  C   UNL     1      -5.206   2.772  25.184  0.00  0.00    +0.049 A 
ATOM     17  C   UNL     1      -3.950   0.754  24.762  0.00  0.00    +0.010 A 
ATOM     20  C   UNL     1      -6.424   2.104  25.017  0.00  0.00    +0.026 A 
ATOM     21  C   UNL     1      -5.950   5.117  25.686  0.00  0.00    +0.149 C 
ATOM     23  C   UNL     1      -5.161   0.073  24.593  0.00  0.00    +0.001 A 
ATOM     25  C   UNL     1      -6.378   0.740  24.719  0.00  0.00    +0.002 A 
ENDBRANCH   9  11
ENDBRANCH   1   9
TORSDOF 3
ENDMDL
