MODEL 1
REMARK VINA RESULT:       7.7      0.000      0.000
REMARK  Name = 11941652
REMARK  6 active torsions:
REMARK  status: ('A' for Active; 'I' for Inactive)
REMARK    1  A    between atoms: N_6  and  C_13
REMARK    2  A    between atoms: N_7  and  C_14
REMARK    3  A    between atoms: N_8  and  C_20
REMARK    4  A    between atoms: C_19  and  C_23
REMARK    5  A    between atoms: C_28  and  C_32
REMARK    6  A    between atoms: C_32  and  C_33
REMARK                            x       y       z     vdW  Elec       q    Type
REMARK                         _______ _______ _______ _____ _____    ______ ____
ROOT
ATOM      1  O   UNL     1      -4.834  -0.581  23.498  0.00  0.00    -0.370 OA
ATOM      2  O   UNL     1      -3.047  -0.871  26.041  0.00  0.00    -0.370 OA
ATOM     11  C   UNL     1      -3.752   0.236  25.454  0.00  0.00    +0.171 C 
ATOM     12  C   UNL     1      -3.646   0.093  23.949  0.00  0.00    +0.171 C 
ATOM     13  C   UNL     1      -5.232   0.121  25.732  0.00  0.00    +0.130 C 
ATOM     14  C   UNL     1      -2.434  -0.789  23.749  0.00  0.00    +0.131 C 
ATOM     15  C   UNL     1      -5.711  -0.788  24.615  0.00  0.00    +0.185 C 
ATOM     16  C   UNL     1      -2.453  -1.656  24.995  0.00  0.00    +0.185 C 
ENDROOT
BRANCH  13   6
ATOM      6  N   UNL     1      -5.860   1.420  25.625  0.00  0.00    -0.306 N 
ATOM      9  N   UNL     1      -3.796   2.531  25.530  0.00  0.00    -0.211 NA
ATOM     10  N   UNL     1      -5.868   3.758  25.428  0.00  0.00    -0.223 NA
ATOM     17  C   UNL     1      -5.153   2.605  25.525  0.00  0.00    +0.216 A 
ATOM     19  C   UNL     1      -3.138   3.706  25.431  0.00  0.00    +0.111 A 
ATOM     21  C   UNL     1      -5.147   4.894  25.331  0.00  0.00    +0.116 A 
ATOM     22  C   UNL     1      -3.767   4.930  25.328  0.00  0.00    +0.051 A 
ATOM     34  H   UNL     1      -6.869   1.482  25.567  0.00  0.00    +0.149 HD
BRANCH  19  23
ATOM      4  O   UNL     1      -1.215   2.429  25.932  0.00  0.00    -0.461 OA
ATOM     23  C   UNL     1      -1.704   3.596  25.440  0.00  0.00    +0.153 A 
ATOM     29  C   UNL     1      -0.683   4.428  25.054  0.00  0.00    +0.051 A 
ATOM     30  C   UNL     1       0.517   3.728  25.325  0.00  0.00    +0.042 A 
ATOM     31  C   UNL     1       0.139   2.517  25.858  0.00  0.00    +0.196 A 
ENDBRANCH  19  23
ENDBRANCH  13   6
BRANCH  14   7
ATOM      3  O   UNL     1       0.239  -1.786  23.495  0.00  0.00    -0.252 OA
ATOM      7  N   UNL     1      -1.225  -0.006  23.675  0.00  0.00    -0.292 N 
ATOM      8  N   UNL     1       1.025   0.426  23.502  0.00  0.00    -0.269 N 
ATOM     18  C   UNL     1       0.049  -0.573  23.550  0.00  0.00    +0.304 C 
ATOM     35  H   UNL     1      -1.306   1.006  23.646  0.00  0.00    +0.151 HD
ATOM     36  H   UNL     1       0.696   1.386  23.563  0.00  0.00    +0.156 HD
BRANCH   8  20
ATOM     20  C   UNL     1       2.425   0.268  23.381  0.00  0.00    +0.035 A 
ATOM     24  C   UNL     1       3.186   1.319  22.897  0.00  0.00    +0.024 A 
ATOM     25  C   UNL     1       3.005  -0.934  23.750  0.00  0.00    +0.024 A 
ATOM     26  C   UNL     1       4.567   1.162  22.777  0.00  0.00    +0.013 A 
ATOM     27  C   UNL     1       4.387  -1.090  23.631  0.00  0.00    +0.013 A 
ATOM     28  C   UNL     1       5.168  -0.042  23.145  0.00  0.00    +0.017 A 
BRANCH  28  32
ATOM      5  O   UNL     1       7.104  -1.035  22.234  0.00  0.00    -0.292 OA
ATOM     32  C   UNL     1       6.607  -0.205  23.021  0.00  0.00    +0.160 C 
ATOM     33  C   UNL     1       7.552   0.647  23.863  0.00  0.00    +0.091 C 
ENDBRANCH  28  32
ENDBRANCH   8  20
ENDBRANCH  14   7
TORSDOF 5
ENDMDL
MODEL 2
REMARK VINA RESULT:       9.9      1.502      3.655
REMARK  Name = 11941652
REMARK  6 active torsions:
REMARK  status: ('A' for Active; 'I' for Inactive)
REMARK    1  A    between atoms: N_6  and  C_13
REMARK    2  A    between atoms: N_7  and  C_14
REMARK    3  A    between atoms: N_8  and  C_20
REMARK    4  A    between atoms: C_19  and  C_23
REMARK    5  A    between atoms: C_28  and  C_32
REMARK    6  A    between atoms: C_32  and  C_33
REMARK                            x       y       z     vdW  Elec       q    Type
REMARK                         _______ _______ _______ _____ _____    ______ ____
ROOT
ATOM      1  O   UNL     1      -3.415   3.358  26.727  0.00  0.00    -0.370 OA
ATOM      2  O   UNL     1      -2.652   5.090  24.245  0.00  0.00    -0.370 OA
ATOM     11  C   UNL     1      -3.472   3.921  24.416  0.00  0.00    +0.171 C 
ATOM     12  C   UNL     1      -2.804   3.051  25.462  0.00  0.00    +0.171 C 
ATOM     13  C   UNL     1      -4.796   4.296  25.038  0.00  0.00    +0.130 C 
ATOM     14  C   UNL     1      -1.362   3.503  25.450  0.00  0.00    +0.131 C 
ATOM     15  C   UNL     1      -4.477   4.300  26.522  0.00  0.00    +0.185 C 
ATOM     16  C   UNL     1      -1.484   4.969  25.071  0.00  0.00    +0.185 C 
ENDROOT
BRANCH  13   6
ATOM      6  N   UNL     1      -5.788   3.286  24.741  0.00  0.00    -0.306 N 
ATOM      9  N   UNL     1      -4.224   1.544  24.916  0.00  0.00    -0.211 NA
ATOM     10  N   UNL     1      -6.533   1.088  24.395  0.00  0.00    -0.223 NA
ATOM     17  C   UNL     1      -5.506   1.932  24.682  0.00  0.00    +0.216 A 
ATOM     19  C   UNL     1      -3.986   0.218  24.851  0.00  0.00    +0.111 A 
ATOM     21  C   UNL     1      -6.223  -0.225  24.346  0.00  0.00    +0.116 A 
ATOM     22  C   UNL     1      -4.955  -0.723  24.567  0.00  0.00    +0.051 A 
ATOM     34  H   UNL     1      -6.755   3.559  24.618  0.00  0.00    +0.149 HD
BRANCH  19  23
ATOM      4  O   UNL     1      -1.933  -0.600  24.016  0.00  0.00    -0.461 OA
ATOM     23  C   UNL     1      -2.621  -0.162  25.101  0.00  0.00    +0.153 A 
ATOM     29  C   UNL     1      -1.829  -0.185  26.222  0.00  0.00    +0.051 A 
ATOM     30  C   UNL     1      -0.568  -0.670  25.801  0.00  0.00    +0.042 A 
ATOM     31  C   UNL     1      -0.682  -0.907  24.451  0.00  0.00    +0.196 A 
ENDBRANCH  19  23
ENDBRANCH  13   6
BRANCH  14   7
ATOM      3  O   UNL     1       1.195   2.277  25.852  0.00  0.00    -0.252 OA
ATOM      7  N   UNL     1      -0.593   2.773  24.473  0.00  0.00    -0.292 N 
ATOM      8  N   UNL     1       1.160   1.559  23.617  0.00  0.00    -0.269 N 
ATOM     18  C   UNL     1       0.655   2.201  24.751  0.00  0.00    +0.304 C 
ATOM     35  H   UNL     1      -1.004   2.609  23.558  0.00  0.00    +0.151 HD
ATOM     36  H   UNL     1       0.583   1.591  22.781  0.00  0.00    +0.156 HD
BRANCH   8  20
ATOM     20  C   UNL     1       2.385   0.864  23.486  0.00  0.00    +0.035 A 
ATOM     24  C   UNL     1       3.538   1.574  23.190  0.00  0.00    +0.024 A 
ATOM     25  C   UNL     1       2.407  -0.509  23.657  0.00  0.00    +0.024 A 
ATOM     26  C   UNL     1       4.745   0.888  23.059  0.00  0.00    +0.013 A 
ATOM     27  C   UNL     1       3.615  -1.195  23.528  0.00  0.00    +0.013 A 
ATOM     28  C   UNL     1       4.785  -0.496  23.229  0.00  0.00    +0.017 A 
BRANCH  28  32
ATOM      5  O   UNL     1       6.100  -2.453  23.175  0.00  0.00    -0.292 OA
ATOM     32  C   UNL     1       6.044  -1.210  23.095  0.00  0.00    +0.160 C 
ATOM     33  C   UNL     1       7.341  -0.444  22.851  0.00  0.00    +0.091 C 
ENDBRANCH  28  32
ENDBRANCH   8  20
ENDBRANCH  14   7
TORSDOF 5
ENDMDL
MODEL 3
REMARK VINA RESULT:      10.0      1.659      2.216
REMARK  Name = 11941652
REMARK  6 active torsions:
REMARK  status: ('A' for Active; 'I' for Inactive)
REMARK    1  A    between atoms: N_6  and  C_13
REMARK    2  A    between atoms: N_7  and  C_14
REMARK    3  A    between atoms: N_8  and  C_20
REMARK    4  A    between atoms: C_19  and  C_23
REMARK    5  A    between atoms: C_28  and  C_32
REMARK    6  A    between atoms: C_32  and  C_33
REMARK                            x       y       z     vdW  Elec       q    Type
REMARK                         _______ _______ _______ _____ _____    ______ ____
ROOT
ATOM      1  O   UNL     1      -5.101  -0.214  23.809  0.00  0.00    -0.370 OA
ATOM      2  O   UNL     1      -3.302  -0.677  26.316  0.00  0.00    -0.370 OA
ATOM     11  C   UNL     1      -3.291   0.302  25.264  0.00  0.00    +0.171 C 
ATOM     12  C   UNL     1      -3.687  -0.407  23.984  0.00  0.00    +0.171 C 
ATOM     13  C   UNL     1      -4.389   1.316  25.480  0.00  0.00    +0.130 C 
ATOM     14  C   UNL     1      -3.385  -1.861  24.261  0.00  0.00    +0.131 C 
ATOM     15  C   UNL     1      -5.594   0.640  24.850  0.00  0.00    +0.185 C 
ATOM     16  C   UNL     1      -3.616  -1.962  25.758  0.00  0.00    +0.185 C 
ENDROOT
BRANCH  13   6
ATOM      6  N   UNL     1      -4.079   2.542  24.777  0.00  0.00    -0.306 N 
ATOM      9  N   UNL     1      -2.061   2.827  25.941  0.00  0.00    -0.211 NA
ATOM     10  N   UNL     1      -2.763   4.417  24.271  0.00  0.00    -0.223 NA
ATOM     17  C   UNL     1      -2.933   3.284  25.003  0.00  0.00    +0.216 A 
ATOM     19  C   UNL     1      -0.955   3.575  26.135  0.00  0.00    +0.111 A 
ATOM     21  C   UNL     1      -1.635   5.116  24.516  0.00  0.00    +0.116 A 
ATOM     22  C   UNL     1      -0.686   4.740  25.446  0.00  0.00    +0.051 A 
ATOM     34  H   UNL     1      -4.695   2.863  24.040  0.00  0.00    +0.149 HD
BRANCH  19  23
ATOM      4  O   UNL     1       1.244   2.965  26.743  0.00  0.00    -0.461 OA
ATOM     23  C   UNL     1      -0.052   3.067  27.133  0.00  0.00    +0.153 A 
ATOM     29  C   UNL     1      -0.205   2.648  28.431  0.00  0.00    +0.051 A 
ATOM     30  C   UNL     1       1.083   2.261  28.872  0.00  0.00    +0.042 A 
ATOM     31  C   UNL     1       1.930   2.473  27.809  0.00  0.00    +0.196 A 
ENDBRANCH  19  23
ENDBRANCH  13   6
BRANCH  14   7
ATOM      3  O   UNL     1      -1.128  -0.100  24.360  0.00  0.00    -0.252 OA
ATOM      7  N   UNL     1      -2.022  -2.186  23.919  0.00  0.00    -0.292 N 
ATOM      8  N   UNL     1       0.230  -1.859  23.604  0.00  0.00    -0.269 N 
ATOM     18  C   UNL     1      -0.972  -1.263  23.995  0.00  0.00    +0.304 C 
ATOM     35  H   UNL     1      -1.801  -3.146  23.673  0.00  0.00    +0.151 HD
ATOM     36  H   UNL     1       0.184  -2.837  23.327  0.00  0.00    +0.156 HD
BRANCH   8  20
ATOM     20  C   UNL     1       1.514  -1.268  23.541  0.00  0.00    +0.035 A 
ATOM     24  C   UNL     1       1.658  -0.024  22.950  0.00  0.00    +0.024 A 
ATOM     25  C   UNL     1       2.598  -1.945  24.074  0.00  0.00    +0.024 A 
ATOM     26  C   UNL     1       2.924   0.559  22.888  0.00  0.00    +0.013 A 
ATOM     27  C   UNL     1       3.864  -1.361  24.013  0.00  0.00    +0.013 A 
ATOM     28  C   UNL     1       4.027  -0.109  23.420  0.00  0.00    +0.017 A 
BRANCH  28  32
ATOM      5  O   UNL     1       5.543   1.670  23.737  0.00  0.00    -0.292 OA
ATOM     32  C   UNL     1       5.347   0.499  23.357  0.00  0.00    +0.160 C 
ATOM     33  C   UNL     1       6.533  -0.294  22.818  0.00  0.00    +0.091 C 
ENDBRANCH  28  32
ENDBRANCH   8  20
ENDBRANCH  14   7
TORSDOF 5
ENDMDL
