MODEL 1
REMARK VINA RESULT:       2.9      0.000      0.000
REMARK  Name = 7128128
REMARK  15 active torsions:
REMARK  status: ('A' for Active; 'I' for Inactive)
REMARK    1  A    between atoms: S_1  and  C_20
REMARK    2  A    between atoms: S_1  and  C_26
REMARK    3  A    between atoms: O_5  and  C_22
REMARK    4  A    between atoms: O_5  and  C_29
REMARK    5  A    between atoms: O_7  and  C_30
REMARK    6  A    between atoms: O_7  and  C_33
REMARK    7  A    between atoms: N_9  and  C_12
REMARK    8  A    between atoms: N_10  and  C_18
REMARK    9  A    between atoms: N_11  and  C_25
REMARK   10  A    between atoms: C_13  and  C_16
REMARK   11  A    between atoms: C_17  and  C_20
REMARK   12  A    between atoms: C_18  and  C_19
REMARK   13  A    between atoms: C_18  and  C_22
REMARK   14  A    between atoms: C_19  and  C_23
REMARK   15  A    between atoms: C_19  and  C_24
REMARK                            x       y       z     vdW  Elec       q    Type
REMARK                         _______ _______ _______ _____ _____    ______ ____
ROOT
ATOM      3  O   UNL     1      -2.826  -0.775  26.111  0.00  0.00    -0.275 OA
ATOM      8  N   UNL     1      -2.825   0.394  24.113  0.00  0.00    -0.287 N 
ATOM     12  C   UNL     1      -1.468   2.132  23.240  0.00  0.00    +0.105 C 
ATOM     13  C   UNL     1      -1.895   1.438  24.533  0.00  0.00    +0.182 C 
ATOM     14  C   UNL     1      -2.663   1.917  22.309  0.00  0.00    +0.043 C 
ATOM     15  C   UNL     1      -3.196   0.548  22.709  0.00  0.00    +0.110 C 
ATOM     17  C   UNL     1      -3.157  -0.677  24.927  0.00  0.00    +0.226 C 
ENDROOT
BRANCH  12   9
ATOM      4  O   UNL     1       0.724   1.052  24.735  0.00  0.00    -0.252 OA
ATOM      9  N   UNL     1      -0.269   1.531  22.703  0.00  0.00    -0.294 N 
ATOM     11  N   UNL     1       1.786   0.509  22.713  0.00  0.00    -0.269 N 
ATOM     21  C   UNL     1       0.758   1.026  23.507  0.00  0.00    +0.304 C 
ATOM     34  H   UNL     1      -0.196   1.411  21.697  0.00  0.00    +0.151 HD
ATOM     36  H   UNL     1       1.657   0.567  21.706  0.00  0.00    +0.156 HD
BRANCH  11  25
ATOM     25  C   UNL     1       2.995  -0.089  23.139  0.00  0.00    +0.038 A 
ATOM     27  C   UNL     1       4.186   0.635  23.093  0.00  0.00    +0.069 A 
ATOM     28  C   UNL     1       2.995  -1.405  23.605  0.00  0.00    +0.023 A 
ATOM     30  C   UNL     1       5.378   0.045  23.513  0.00  0.00    +0.122 A 
ATOM     31  C   UNL     1       4.188  -1.995  24.025  0.00  0.00    +0.005 A 
ATOM     32  C   UNL     1       5.378  -1.270  23.979  0.00  0.00    +0.046 A 
BRANCH  30   7
ATOM      7  O   UNL     1       6.540   0.751  23.469  0.00  0.00    -0.495 OA
ATOM     33  C   UNL     1       7.748   0.006  23.332  0.00  0.00    +0.277 C 
ENDBRANCH  30   7
ENDBRANCH  11  25
ENDBRANCH  12   9
BRANCH  13  16
ATOM      2  O   UNL     1      -2.111   3.117  26.219  0.00  0.00    -0.274 OA
ATOM     10  N   UNL     1      -4.036   2.240  25.247  0.00  0.00    -0.301 N 
ATOM     16  C   UNL     1      -2.669   2.365  25.423  0.00  0.00    +0.236 C 
ATOM     35  H   UNL     1      -4.389   1.566  24.573  0.00  0.00    +0.150 HD
BRANCH  10  18
ATOM     18  C   UNL     1      -5.003   3.005  26.000  0.00  0.00    +0.184 C 
BRANCH  18  19
ATOM     19  C   UNL     1      -6.382   2.312  26.065  0.00  0.00    +0.014 C 
ATOM     23  C   UNL     1      -6.565   1.442  27.312  0.00  0.00    +0.009 C 
ATOM     24  C   UNL     1      -6.645   1.483  24.805  0.00  0.00    +0.009 C 
ENDBRANCH  18  19
BRANCH  18  22
ATOM      6  O   UNL     1      -6.130   5.115  25.639  0.00  0.00    -0.249 OA
ATOM     22  C   UNL     1      -5.123   4.432  25.476  0.00  0.00    +0.328 C 
BRANCH  22   5
ATOM      5  O   UNL     1      -3.999   4.837  24.822  0.00  0.00    -0.467 OA
ATOM     29  C   UNL     1      -4.110   4.940  23.399  0.00  0.00    +0.280 C 
ENDBRANCH  22   5
ENDBRANCH  18  22
ENDBRANCH  10  18
ENDBRANCH  13  16
BRANCH  17  20
ATOM     20  C   UNL     1      -3.986  -1.757  24.276  0.00  0.00    +0.164 C 
BRANCH  20   1
ATOM      1  S   UNL     1      -3.073  -3.301  24.409  0.00  0.00    -0.155 S 
ATOM     26  C   UNL     1      -1.393  -2.649  24.243  0.00  0.00    +0.085 C 
ENDBRANCH  20   1
ENDBRANCH  17  20
TORSDOF 10
ENDMDL
MODEL 2
REMARK VINA RESULT:       3.5      1.054      1.961
REMARK  Name = 7128128
REMARK  15 active torsions:
REMARK  status: ('A' for Active; 'I' for Inactive)
REMARK    1  A    between atoms: S_1  and  C_20
REMARK    2  A    between atoms: S_1  and  C_26
REMARK    3  A    between atoms: O_5  and  C_22
REMARK    4  A    between atoms: O_5  and  C_29
REMARK    5  A    between atoms: O_7  and  C_30
REMARK    6  A    between atoms: O_7  and  C_33
REMARK    7  A    between atoms: N_9  and  C_12
REMARK    8  A    between atoms: N_10  and  C_18
REMARK    9  A    between atoms: N_11  and  C_25
REMARK   10  A    between atoms: C_13  and  C_16
REMARK   11  A    between atoms: C_17  and  C_20
REMARK   12  A    between atoms: C_18  and  C_19
REMARK   13  A    between atoms: C_18  and  C_22
REMARK   14  A    between atoms: C_19  and  C_23
REMARK   15  A    between atoms: C_19  and  C_24
REMARK                            x       y       z     vdW  Elec       q    Type
REMARK                         _______ _______ _______ _____ _____    ______ ____
ROOT
ATOM      3  O   UNL     1      -3.085  -0.565  26.047  0.00  0.00    -0.275 OA
ATOM      8  N   UNL     1      -2.828   0.407  23.961  0.00  0.00    -0.287 N 
ATOM     12  C   UNL     1      -1.192   1.843  23.019  0.00  0.00    +0.105 C 
ATOM     13  C   UNL     1      -1.770   1.338  24.342  0.00  0.00    +0.182 C 
ATOM     14  C   UNL     1      -2.369   1.722  22.048  0.00  0.00    +0.043 C 
ATOM     15  C   UNL     1      -3.116   0.487  22.532  0.00  0.00    +0.110 C 
ATOM     17  C   UNL     1      -3.350  -0.526  24.844  0.00  0.00    +0.226 C 
ENDROOT
BRANCH  12   9
ATOM      4  O   UNL     1       1.236   1.384  24.468  0.00  0.00    -0.252 OA
ATOM      9  N   UNL     1      -0.077   1.028  22.599  0.00  0.00    -0.294 N 
ATOM     11  N   UNL     1       1.981   0.018  22.710  0.00  0.00    -0.269 N 
ATOM     21  C   UNL     1       1.077   0.855  23.370  0.00  0.00    +0.304 C 
ATOM     34  H   UNL     1      -0.160   0.504  21.733  0.00  0.00    +0.151 HD
ATOM     36  H   UNL     1       1.695  -0.336  21.801  0.00  0.00    +0.156 HD
BRANCH  11  25
ATOM     25  C   UNL     1       3.258  -0.401  23.152  0.00  0.00    +0.038 A 
ATOM     27  C   UNL     1       4.340   0.477  23.090  0.00  0.00    +0.069 A 
ATOM     28  C   UNL     1       3.434  -1.693  23.649  0.00  0.00    +0.023 A 
ATOM     30  C   UNL     1       5.599   0.063  23.526  0.00  0.00    +0.122 A 
ATOM     31  C   UNL     1       4.694  -2.106  24.085  0.00  0.00    +0.005 A 
ATOM     32  C   UNL     1       5.775  -1.228  24.023  0.00  0.00    +0.046 A 
BRANCH  30   7
ATOM      7  O   UNL     1       6.656   0.920  23.466  0.00  0.00    -0.495 OA
ATOM     33  C   UNL     1       7.960   0.342  23.449  0.00  0.00    +0.277 C 
ENDBRANCH  30   7
ENDBRANCH  11  25
ENDBRANCH  12   9
BRANCH  13  16
ATOM      2  O   UNL     1      -2.238   2.605  26.313  0.00  0.00    -0.274 OA
ATOM     10  N   UNL     1      -3.269   3.206  24.313  0.00  0.00    -0.301 N 
ATOM     16  C   UNL     1      -2.431   2.444  25.109  0.00  0.00    +0.236 C 
ATOM     35  H   UNL     1      -3.370   2.968  23.331  0.00  0.00    +0.150 HD
BRANCH  10  18
ATOM     18  C   UNL     1      -4.041   4.319  24.816  0.00  0.00    +0.184 C 
BRANCH  18  19
ATOM     19  C   UNL     1      -3.212   5.246  25.732  0.00  0.00    +0.014 C 
ATOM     23  C   UNL     1      -1.778   5.463  25.236  0.00  0.00    +0.009 C 
ATOM     24  C   UNL     1      -3.193   4.731  27.173  0.00  0.00    +0.009 C 
ENDBRANCH  18  19
BRANCH  18  22
ATOM      6  O   UNL     1      -6.233   4.617  25.794  0.00  0.00    -0.249 OA
ATOM     22  C   UNL     1      -5.317   3.852  25.509  0.00  0.00    +0.328 C 
BRANCH  22   5
ATOM      5  O   UNL     1      -5.306   2.514  25.762  0.00  0.00    -0.467 OA
ATOM     29  C   UNL     1      -6.253   1.733  25.027  0.00  0.00    +0.280 C 
ENDBRANCH  22   5
ENDBRANCH  18  22
ENDBRANCH  10  18
ENDBRANCH  13  16
BRANCH  17  20
ATOM     20  C   UNL     1      -4.304  -1.528  24.242  0.00  0.00    +0.164 C 
BRANCH  20   1
ATOM      1  S   UNL     1      -3.541  -3.152  24.364  0.00  0.00    -0.155 S 
ATOM     26  C   UNL     1      -1.803  -2.651  24.297  0.00  0.00    +0.085 C 
ENDBRANCH  20   1
ENDBRANCH  17  20
TORSDOF 10
ENDMDL
MODEL 3
REMARK VINA RESULT:       5.4      2.301      3.425
REMARK  Name = 7128128
REMARK  15 active torsions:
REMARK  status: ('A' for Active; 'I' for Inactive)
REMARK    1  A    between atoms: S_1  and  C_20
REMARK    2  A    between atoms: S_1  and  C_26
REMARK    3  A    between atoms: O_5  and  C_22
REMARK    4  A    between atoms: O_5  and  C_29
REMARK    5  A    between atoms: O_7  and  C_30
REMARK    6  A    between atoms: O_7  and  C_33
REMARK    7  A    between atoms: N_9  and  C_12
REMARK    8  A    between atoms: N_10  and  C_18
REMARK    9  A    between atoms: N_11  and  C_25
REMARK   10  A    between atoms: C_13  and  C_16
REMARK   11  A    between atoms: C_17  and  C_20
REMARK   12  A    between atoms: C_18  and  C_19
REMARK   13  A    between atoms: C_18  and  C_22
REMARK   14  A    between atoms: C_19  and  C_23
REMARK   15  A    between atoms: C_19  and  C_24
REMARK                            x       y       z     vdW  Elec       q    Type
REMARK                         _______ _______ _______ _____ _____    ______ ____
ROOT
ATOM      3  O   UNL     1      -1.264   4.286  25.659  0.00  0.00    -0.275 OA
ATOM      8  N   UNL     1      -1.220   2.045  25.082  0.00  0.00    -0.287 N 
ATOM     12  C   UNL     1      -1.067   0.894  23.014  0.00  0.00    +0.105 C 
ATOM     13  C   UNL     1      -1.421   2.239  23.649  0.00  0.00    +0.182 C 
ATOM     14  C   UNL     1      -1.368  -0.115  24.126  0.00  0.00    +0.043 C 
ATOM     15  C   UNL     1      -1.017   0.635  25.404  0.00  0.00    +0.110 C 
ATOM     17  C   UNL     1      -1.085   3.106  25.964  0.00  0.00    +0.226 C 
ENDROOT
BRANCH  12   9
ATOM      4  O   UNL     1       1.028  -0.556  24.324  0.00  0.00    -0.252 OA
ATOM      9  N   UNL     1       0.324   0.854  22.632  0.00  0.00    -0.294 N 
ATOM     11  N   UNL     1       2.542   0.269  22.730  0.00  0.00    -0.269 N 
ATOM     21  C   UNL     1       1.288   0.117  23.328  0.00  0.00    +0.304 C 
ATOM     34  H   UNL     1       0.607   1.330  21.780  0.00  0.00    +0.151 HD
ATOM     36  H   UNL     1       2.586   0.866  21.908  0.00  0.00    +0.156 HD
BRANCH  11  25
ATOM     25  C   UNL     1       3.770  -0.309  23.129  0.00  0.00    +0.038 A 
ATOM     27  C   UNL     1       4.953   0.421  23.017  0.00  0.00    +0.069 A 
ATOM     28  C   UNL     1       3.797  -1.610  23.633  0.00  0.00    +0.023 A 
ATOM     30  C   UNL     1       6.164  -0.149  23.411  0.00  0.00    +0.122 A 
ATOM     31  C   UNL     1       5.008  -2.180  24.026  0.00  0.00    +0.005 A 
ATOM     32  C   UNL     1       6.191  -1.449  23.915  0.00  0.00    +0.046 A 
BRANCH  30   7
ATOM      7  O   UNL     1       7.319   0.564  23.303  0.00  0.00    -0.495 OA
ATOM     33  C   UNL     1       8.512  -0.171  23.035  0.00  0.00    +0.277 C 
ENDBRANCH  30   7
ENDBRANCH  11  25
ENDBRANCH  12   9
BRANCH  13  16
ATOM      2  O   UNL     1      -3.342   2.828  22.358  0.00  0.00    -0.274 OA
ATOM     10  N   UNL     1      -3.568   2.564  24.660  0.00  0.00    -0.301 N 
ATOM     16  C   UNL     1      -2.872   2.568  23.463  0.00  0.00    +0.236 C 
ATOM     35  H   UNL     1      -3.070   2.356  25.521  0.00  0.00    +0.150 HD
BRANCH  10  18
ATOM     18  C   UNL     1      -4.977   2.871  24.757  0.00  0.00    +0.184 C 
BRANCH  18  19
ATOM     19  C   UNL     1      -5.285   3.878  25.886  0.00  0.00    +0.014 C 
ATOM     23  C   UNL     1      -6.096   5.089  25.415  0.00  0.00    +0.009 C 
ATOM     24  C   UNL     1      -4.000   4.347  26.577  0.00  0.00    +0.009 C 
ENDBRANCH  18  19
BRANCH  18  22
ATOM      6  O   UNL     1      -7.013   1.574  24.607  0.00  0.00    -0.249 OA
ATOM     22  C   UNL     1      -5.820   1.608  24.894  0.00  0.00    +0.328 C 
BRANCH  22   5
ATOM      5  O   UNL     1      -5.097   0.554  25.365  0.00  0.00    -0.467 OA
ATOM     29  C   UNL     1      -4.753  -0.445  24.399  0.00  0.00    +0.280 C 
ENDBRANCH  22   5
ENDBRANCH  18  22
ENDBRANCH  10  18
ENDBRANCH  13  16
BRANCH  17  20
ATOM     20  C   UNL     1      -0.704   2.734  27.375  0.00  0.00    +0.164 C 
BRANCH  20   1
ATOM      1  S   UNL     1       1.092   2.750  27.479  0.00  0.00    -0.155 S 
ATOM     26  C   UNL     1       1.273   2.470  29.258  0.00  0.00    +0.085 C 
ENDBRANCH  20   1
ENDBRANCH  17  20
TORSDOF 10
ENDMDL
MODEL 4
REMARK VINA RESULT:       6.2      2.579      3.865
REMARK  Name = 7128128
REMARK  15 active torsions:
REMARK  status: ('A' for Active; 'I' for Inactive)
REMARK    1  A    between atoms: S_1  and  C_20
REMARK    2  A    between atoms: S_1  and  C_26
REMARK    3  A    between atoms: O_5  and  C_22
REMARK    4  A    between atoms: O_5  and  C_29
REMARK    5  A    between atoms: O_7  and  C_30
REMARK    6  A    between atoms: O_7  and  C_33
REMARK    7  A    between atoms: N_9  and  C_12
REMARK    8  A    between atoms: N_10  and  C_18
REMARK    9  A    between atoms: N_11  and  C_25
REMARK   10  A    between atoms: C_13  and  C_16
REMARK   11  A    between atoms: C_17  and  C_20
REMARK   12  A    between atoms: C_18  and  C_19
REMARK   13  A    between atoms: C_18  and  C_22
REMARK   14  A    between atoms: C_19  and  C_23
REMARK   15  A    between atoms: C_19  and  C_24
REMARK                            x       y       z     vdW  Elec       q    Type
REMARK                         _______ _______ _______ _____ _____    ______ ____
ROOT
ATOM      3  O   UNL     1      -0.112   3.359  25.468  0.00  0.00    -0.275 OA
ATOM      8  N   UNL     1      -0.561   1.098  25.260  0.00  0.00    -0.287 N 
ATOM     12  C   UNL     1      -0.467  -0.425  23.444  0.00  0.00    +0.105 C 
ATOM     13  C   UNL     1      -0.545   1.060  23.800  0.00  0.00    +0.182 C 
ATOM     14  C   UNL     1      -1.132  -1.113  24.638  0.00  0.00    +0.043 C 
ATOM     15  C   UNL     1      -0.752  -0.236  25.823  0.00  0.00    +0.110 C 
ATOM     17  C   UNL     1      -0.267   2.247  25.976  0.00  0.00    +0.226 C 
ENDROOT
BRANCH  12   9
ATOM      4  O   UNL     1       1.875   1.160  23.903  0.00  0.00    -0.252 OA
ATOM      9  N   UNL     1       0.905  -0.848  23.291  0.00  0.00    -0.294 N 
ATOM     11  N   UNL     1       3.195  -0.687  23.306  0.00  0.00    -0.269 N 
ATOM     21  C   UNL     1       1.996  -0.007  23.537  0.00  0.00    +0.304 C 
ATOM     34  H   UNL     1       1.090  -1.819  23.056  0.00  0.00    +0.151 HD
ATOM     36  H   UNL     1       3.119  -1.655  23.003  0.00  0.00    +0.156 HD
BRANCH  11  25
ATOM     25  C   UNL     1       4.513  -0.193  23.440  0.00  0.00    +0.038 A 
ATOM     27  C   UNL     1       5.572  -0.850  22.814  0.00  0.00    +0.069 A 
ATOM     28  C   UNL     1       4.754   0.953  24.199  0.00  0.00    +0.023 A 
ATOM     30  C   UNL     1       6.872  -0.362  22.945  0.00  0.00    +0.122 A 
ATOM     31  C   UNL     1       6.055   1.441  24.332  0.00  0.00    +0.005 A 
ATOM     32  C   UNL     1       7.113   0.783  23.704  0.00  0.00    +0.046 A 
BRANCH  30   7
ATOM      7  O   UNL     1       7.905  -1.003  22.334  0.00  0.00    -0.495 OA
ATOM     33  C   UNL     1       9.225  -0.588  22.683  0.00  0.00    +0.277 C 
ENDBRANCH  30   7
ENDBRANCH  11  25
ENDBRANCH  12   9
BRANCH  13  16
ATOM      2  O   UNL     1      -2.022   2.001  22.176  0.00  0.00    -0.274 OA
ATOM     10  N   UNL     1      -2.744   1.811  24.381  0.00  0.00    -0.301 N 
ATOM     16  C   UNL     1      -1.838   1.666  23.344  0.00  0.00    +0.236 C 
ATOM     35  H   UNL     1      -2.476   1.518  25.317  0.00  0.00    +0.150 HD
BRANCH  10  18
ATOM     18  C   UNL     1      -4.057   2.390  24.210  0.00  0.00    +0.184 C 
BRANCH  18  19
ATOM     19  C   UNL     1      -4.166   3.798  24.834  0.00  0.00    +0.014 C 
ATOM     23  C   UNL     1      -3.677   4.913  23.905  0.00  0.00    +0.009 C 
ATOM     24  C   UNL     1      -3.425   3.870  26.173  0.00  0.00    +0.009 C 
ENDBRANCH  18  19
BRANCH  18  22
ATOM      6  O   UNL     1      -5.058   0.242  24.695  0.00  0.00    -0.249 OA
ATOM     22  C   UNL     1      -5.152   1.465  24.729  0.00  0.00    +0.328 C 
BRANCH  22   5
ATOM      5  O   UNL     1      -6.218   2.155  25.223  0.00  0.00    -0.467 OA
ATOM     29  C   UNL     1      -6.558   1.883  26.586  0.00  0.00    +0.280 C 
ENDBRANCH  22   5
ENDBRANCH  18  22
ENDBRANCH  10  18
ENDBRANCH  13  16
BRANCH  17  20
ATOM     20  C   UNL     1      -0.151   2.070  27.470  0.00  0.00    +0.164 C 
BRANCH  20   1
ATOM      1  S   UNL     1       1.449   2.718  27.975  0.00  0.00    -0.155 S 
ATOM     26  C   UNL     1       1.339   2.385  29.750  0.00  0.00    +0.085 C 
ENDBRANCH  20   1
ENDBRANCH  17  20
TORSDOF 10
ENDMDL
