MODEL 1
REMARK VINA RESULT:      -5.1      0.000      0.000
REMARK  Name = 75536970
REMARK  2 active torsions:
REMARK  status: ('A' for Active; 'I' for Inactive)
REMARK    1  A    between atoms: N_5  and  C_12
REMARK    2  A    between atoms: C_13  and  C_16
REMARK                            x       y       z     vdW  Elec       q    Type
REMARK                         _______ _______ _______ _____ _____    ______ ____
ROOT
ATOM      1  O   UNL     1      -8.247 -10.058  12.872  0.00  0.00    -0.252 OA
ATOM      2  O   UNL     1      -8.345 -10.778  19.769  0.00  0.00    -0.276 OA
ATOM      3  N   UNL     1      -7.435 -10.351  15.038  0.00  0.00    -0.278 N 
ATOM      4  N   UNL     1      -7.324 -10.072  17.806  0.00  0.00    -0.298 N 
ATOM      5  N   UNL     1      -5.913  -9.987  13.399  0.00  0.00    -0.254 N 
ATOM      6  C   UNL     1      -6.157 -10.516  15.692  0.00  0.00    +0.113 C 
ATOM      7  C   UNL     1      -6.123  -9.752  17.013  0.00  0.00    +0.132 C 
ATOM      8  C   UNL     1      -5.159 -10.032  14.647  0.00  0.00    +0.139 C 
ATOM      9  C   UNL     1      -8.660 -10.568  15.789  0.00  0.00    +0.128 C 
ATOM     10  C   UNL     1      -8.599  -9.818  17.117  0.00  0.00    +0.127 C 
ATOM     11  C   UNL     1      -7.310 -10.127  13.657  0.00  0.00    +0.309 C 
ATOM     13  C   UNL     1      -7.324 -10.545  19.116  0.00  0.00    +0.213 C 
ATOM     16  C   UNL     1      -5.975 -10.781  19.747  0.00  0.00    +0.109 C 
ENDROOT
BRANCH   5  12
ATOM     12  C   UNL     1      -5.291  -9.753  12.139  0.00  0.00    +0.038 A 
ATOM     14  C   UNL     1      -4.292 -10.613  11.684  0.00  0.00    +0.023 A 
ATOM     15  C   UNL     1      -5.682  -8.664  11.360  0.00  0.00    +0.023 A 
ATOM     17  C   UNL     1      -3.682 -10.383  10.450  0.00  0.00    +0.002 A 
ATOM     18  C   UNL     1      -5.072  -8.434  10.127  0.00  0.00    +0.002 A 
ATOM     19  C   UNL     1      -4.072  -9.294   9.672  0.00  0.00    +0.000 A 
ENDBRANCH   5  12
TORSDOF 1
ENDMDL
MODEL 2
REMARK VINA RESULT:      -4.2      3.924      5.669
REMARK  Name = 75536970
REMARK  2 active torsions:
REMARK  status: ('A' for Active; 'I' for Inactive)
REMARK    1  A    between atoms: N_5  and  C_12
REMARK    2  A    between atoms: C_13  and  C_16
REMARK                            x       y       z     vdW  Elec       q    Type
REMARK                         _______ _______ _______ _____ _____    ______ ____
ROOT
ATOM      1  O   UNL     1      -5.358  -8.704   8.618  0.00  0.00    -0.252 OA
ATOM      2  O   UNL     1      -1.705 -10.678  14.173  0.00  0.00    -0.276 OA
ATOM      3  N   UNL     1      -4.905  -9.256  10.838  0.00  0.00    -0.278 N 
ATOM      4  N   UNL     1      -3.686 -10.572  12.968  0.00  0.00    -0.298 N 
ATOM      5  N   UNL     1      -7.077  -8.954  10.265  0.00  0.00    -0.254 N 
ATOM      6  C   UNL     1      -5.623  -9.344  12.089  0.00  0.00    +0.113 C 
ATOM      7  C   UNL     1      -5.159 -10.555  12.894  0.00  0.00    +0.132 C 
ATOM      8  C   UNL     1      -7.084  -9.384  11.658  0.00  0.00    +0.139 C 
ATOM      9  C   UNL     1      -3.455  -9.352  10.833  0.00  0.00    +0.128 C 
ATOM     10  C   UNL     1      -3.008 -10.552  11.662  0.00  0.00    +0.127 C 
ATOM     11  C   UNL     1      -5.743  -8.934   9.757  0.00  0.00    +0.309 C 
ATOM     13  C   UNL     1      -2.937 -10.636  14.140  0.00  0.00    +0.213 C 
ATOM     16  C   UNL     1      -3.710 -10.649  15.434  0.00  0.00    +0.109 C 
ENDROOT
BRANCH   5  12
ATOM     12  C   UNL     1      -8.275  -8.684   9.543  0.00  0.00    +0.038 A 
ATOM     14  C   UNL     1      -9.294  -9.636   9.502  0.00  0.00    +0.023 A 
ATOM     15  C   UNL     1      -8.430  -7.467   8.879  0.00  0.00    +0.023 A 
ATOM     17  C   UNL     1     -10.467  -9.372   8.794  0.00  0.00    +0.002 A 
ATOM     18  C   UNL     1      -9.603  -7.203   8.172  0.00  0.00    +0.002 A 
ATOM     19  C   UNL     1     -10.622  -8.155   8.129  0.00  0.00    +0.000 A 
ENDBRANCH   5  12
TORSDOF 1
ENDMDL
MODEL 3
REMARK VINA RESULT:      -3.8     14.628     15.690
REMARK  Name = 75536970
REMARK  2 active torsions:
REMARK  status: ('A' for Active; 'I' for Inactive)
REMARK    1  A    between atoms: N_5  and  C_12
REMARK    2  A    between atoms: C_13  and  C_16
REMARK                            x       y       z     vdW  Elec       q    Type
REMARK                         _______ _______ _______ _____ _____    ______ ____
ROOT
ATOM      1  O   UNL     1      -0.725  -1.571  24.441  0.00  0.00    -0.252 OA
ATOM      2  O   UNL     1      -6.517   1.767  26.289  0.00  0.00    -0.276 OA
ATOM      3  N   UNL     1      -2.173   0.214  24.839  0.00  0.00    -0.278 N 
ATOM      4  N   UNL     1      -4.594   1.579  25.001  0.00  0.00    -0.298 N 
ATOM      5  N   UNL     1      -0.222   0.674  23.781  0.00  0.00    -0.254 N 
ATOM      6  C   UNL     1      -2.154   1.654  24.729  0.00  0.00    +0.113 C 
ATOM      7  C   UNL     1      -3.495   2.174  24.218  0.00  0.00    +0.132 C 
ATOM      8  C   UNL     1      -0.971   1.926  23.809  0.00  0.00    +0.139 C 
ATOM      9  C   UNL     1      -3.273  -0.442  25.525  0.00  0.00    +0.128 C 
ATOM     10  C   UNL     1      -4.605   0.108  25.020  0.00  0.00    +0.127 C 
ATOM     11  C   UNL     1      -0.991  -0.378  24.363  0.00  0.00    +0.309 C 
ATOM     13  C   UNL     1      -5.591   2.291  25.664  0.00  0.00    +0.213 C 
ATOM     16  C   UNL     1      -5.504   3.794  25.597  0.00  0.00    +0.109 C 
ENDROOT
BRANCH   5  12
ATOM     12  C   UNL     1       1.060   0.565  23.170  0.00  0.00    +0.038 A 
ATOM     14  C   UNL     1       2.131   1.314  23.658  0.00  0.00    +0.023 A 
ATOM     15  C   UNL     1       1.245  -0.292  22.085  0.00  0.00    +0.023 A 
ATOM     17  C   UNL     1       3.387   1.207  23.059  0.00  0.00    +0.002 A 
ATOM     18  C   UNL     1       2.500  -0.398  21.487  0.00  0.00    +0.002 A 
ATOM     19  C   UNL     1       3.572   0.351  21.974  0.00  0.00    +0.000 A 
ENDBRANCH   5  12
TORSDOF 1
ENDMDL
MODEL 4
REMARK VINA RESULT:      -3.6      1.765      2.689
REMARK  Name = 75536970
REMARK  2 active torsions:
REMARK  status: ('A' for Active; 'I' for Inactive)
REMARK    1  A    between atoms: N_5  and  C_12
REMARK    2  A    between atoms: C_13  and  C_16
REMARK                            x       y       z     vdW  Elec       q    Type
REMARK                         _______ _______ _______ _____ _____    ______ ____
ROOT
ATOM      1  O   UNL     1      -4.355  -9.827  13.381  0.00  0.00    -0.252 OA
ATOM      2  O   UNL     1      -8.996 -10.257  18.516  0.00  0.00    -0.276 OA
ATOM      3  N   UNL     1      -6.435  -9.848  14.434  0.00  0.00    -0.278 N 
ATOM      4  N   UNL     1      -8.368 -10.571  16.302  0.00  0.00    -0.298 N 
ATOM      5  N   UNL     1      -6.418  -9.849  12.168  0.00  0.00    -0.254 N 
ATOM      6  C   UNL     1      -7.826  -9.719  14.064  0.00  0.00    +0.113 C 
ATOM      7  C   UNL     1      -8.690 -10.687  14.868  0.00  0.00    +0.132 C 
ATOM      8  C   UNL     1      -7.818  -9.967  12.561  0.00  0.00    +0.139 C 
ATOM      9  C   UNL     1      -6.059  -9.828  15.838  0.00  0.00    +0.128 C 
ATOM     10  C   UNL     1      -6.949 -10.781  16.630  0.00  0.00    +0.127 C 
ATOM     11  C   UNL     1      -5.577  -9.834  13.321  0.00  0.00    +0.309 C 
ATOM     13  C   UNL     1      -9.287 -10.321  17.319  0.00  0.00    +0.213 C 
ATOM     16  C   UNL     1     -10.719 -10.114  16.896  0.00  0.00    +0.109 C 
ENDROOT
BRANCH   5  12
ATOM     12  C   UNL     1      -6.006  -9.837  10.804  0.00  0.00    +0.038 A 
ATOM     14  C   UNL     1      -4.901  -9.079  10.417  0.00  0.00    +0.023 A 
ATOM     15  C   UNL     1      -6.707 -10.584   9.857  0.00  0.00    +0.023 A 
ATOM     17  C   UNL     1      -4.497  -9.067   9.081  0.00  0.00    +0.002 A 
ATOM     18  C   UNL     1      -6.303 -10.571   8.522  0.00  0.00    +0.002 A 
ATOM     19  C   UNL     1      -5.198  -9.813   8.134  0.00  0.00    +0.000 A 
ENDBRANCH   5  12
TORSDOF 1
ENDMDL
MODEL 5
REMARK VINA RESULT:      -3.6      2.175      2.682
REMARK  Name = 75536970
REMARK  2 active torsions:
REMARK  status: ('A' for Active; 'I' for Inactive)
REMARK    1  A    between atoms: N_5  and  C_12
REMARK    2  A    between atoms: C_13  and  C_16
REMARK                            x       y       z     vdW  Elec       q    Type
REMARK                         _______ _______ _______ _____ _____    ______ ____
ROOT
ATOM      1  O   UNL     1     -10.040  -9.753  13.757  0.00  0.00    -0.252 OA
ATOM      2  O   UNL     1      -6.069 -10.682  19.366  0.00  0.00    -0.276 OA
ATOM      3  N   UNL     1      -8.119 -10.146  15.019  0.00  0.00    -0.278 N 
ATOM      4  N   UNL     1      -6.375  -9.957  17.181  0.00  0.00    -0.298 N 
ATOM      5  N   UNL     1      -7.848  -9.793  12.797  0.00  0.00    -0.254 N 
ATOM      6  C   UNL     1      -6.713 -10.383  14.786  0.00  0.00    +0.113 C 
ATOM      7  C   UNL     1      -5.864  -9.662  15.830  0.00  0.00    +0.132 C 
ATOM      8  C   UNL     1      -6.505  -9.907  13.354  0.00  0.00    +0.139 C 
ATOM      9  C   UNL     1      -8.670 -10.336  16.350  0.00  0.00    +0.128 C 
ATOM     10  C   UNL     1      -7.796  -9.631  17.383  0.00  0.00    +0.127 C 
ATOM     11  C   UNL     1      -8.826  -9.884  13.833  0.00  0.00    +0.309 C 
ATOM     13  C   UNL     1      -5.623 -10.471  18.235  0.00  0.00    +0.213 C 
ATOM     16  C   UNL     1      -4.177 -10.780  17.942  0.00  0.00    +0.109 C 
ENDROOT
BRANCH   5  12
ATOM     12  C   UNL     1      -8.083  -9.545  11.414  0.00  0.00    +0.038 A 
ATOM     14  C   UNL     1      -9.360  -9.718  10.882  0.00  0.00    +0.023 A 
ATOM     15  C   UNL     1      -7.036  -9.128  10.592  0.00  0.00    +0.023 A 
ATOM     17  C   UNL     1      -9.591  -9.475   9.527  0.00  0.00    +0.002 A 
ATOM     18  C   UNL     1      -7.266  -8.886   9.238  0.00  0.00    +0.002 A 
ATOM     19  C   UNL     1      -8.543  -9.059   8.705  0.00  0.00    +0.000 A 
ENDBRANCH   5  12
TORSDOF 1
ENDMDL
MODEL 6
REMARK VINA RESULT:      -3.4      2.179      7.154
REMARK  Name = 75536970
REMARK  2 active torsions:
REMARK  status: ('A' for Active; 'I' for Inactive)
REMARK    1  A    between atoms: N_5  and  C_12
REMARK    2  A    between atoms: C_13  and  C_16
REMARK                            x       y       z     vdW  Elec       q    Type
REMARK                         _______ _______ _______ _____ _____    ______ ____
ROOT
ATOM      1  O   UNL     1      -5.733 -10.739  15.229  0.00  0.00    -0.252 OA
ATOM      2  O   UNL     1      -4.410 -10.114   8.450  0.00  0.00    -0.276 OA
ATOM      3  N   UNL     1      -6.129 -10.355  12.964  0.00  0.00    -0.278 N 
ATOM      4  N   UNL     1      -5.594  -9.528  10.360  0.00  0.00    -0.298 N 
ATOM      5  N   UNL     1      -7.809  -9.877  14.408  0.00  0.00    -0.254 N 
ATOM      6  C   UNL     1      -7.245 -10.003  12.115  0.00  0.00    +0.113 C 
ATOM      7  C   UNL     1      -6.808  -9.025  11.028  0.00  0.00    +0.132 C 
ATOM      8  C   UNL     1      -8.276  -9.455  13.093  0.00  0.00    +0.139 C 
ATOM      9  C   UNL     1      -4.875 -10.778  12.365  0.00  0.00    +0.128 C 
ATOM     10  C   UNL     1      -4.467  -9.803  11.264  0.00  0.00    +0.127 C 
ATOM     11  C   UNL     1      -6.473 -10.374  14.326  0.00  0.00    +0.309 C 
ATOM     13  C   UNL     1      -5.448  -9.718   8.988  0.00  0.00    +0.213 C 
ATOM     16  C   UNL     1      -6.652  -9.417   8.133  0.00  0.00    +0.109 C 
ENDROOT
BRANCH   5  12
ATOM     12  C   UNL     1      -8.595  -9.716  15.586  0.00  0.00    +0.038 A 
ATOM     14  C   UNL     1      -8.098 -10.140  16.818  0.00  0.00    +0.023 A 
ATOM     15  C   UNL     1      -9.858  -9.131  15.507  0.00  0.00    +0.023 A 
ATOM     17  C   UNL     1      -8.868  -9.983  17.972  0.00  0.00    +0.002 A 
ATOM     18  C   UNL     1     -10.627  -8.973  16.659  0.00  0.00    +0.002 A 
ATOM     19  C   UNL     1     -10.132  -9.399  17.892  0.00  0.00    +0.000 A 
ENDBRANCH   5  12
TORSDOF 1
ENDMDL
MODEL 7
REMARK VINA RESULT:      -1.8     14.512     16.620
REMARK  Name = 75536970
REMARK  2 active torsions:
REMARK  status: ('A' for Active; 'I' for Inactive)
REMARK    1  A    between atoms: N_5  and  C_12
REMARK    2  A    between atoms: C_13  and  C_16
REMARK                            x       y       z     vdW  Elec       q    Type
REMARK                         _______ _______ _______ _____ _____    ______ ____
ROOT
ATOM      1  O   UNL     1      -3.254  -0.781  24.800  0.00  0.00    -0.252 OA
ATOM      2  O   UNL     1       3.389  -1.033  22.821  0.00  0.00    -0.276 OA
ATOM      3  N   UNL     1      -1.188  -0.031  24.018  0.00  0.00    -0.278 N 
ATOM      4  N   UNL     1       1.582   0.082  23.762  0.00  0.00    -0.298 N 
ATOM      5  N   UNL     1      -2.747   1.541  24.507  0.00  0.00    -0.254 N 
ATOM      6  C   UNL     1      -0.591   1.214  23.591  0.00  0.00    +0.113 C 
ATOM      7  C   UNL     1       0.849   1.320  24.086  0.00  0.00    +0.132 C 
ATOM      8  C   UNL     1      -1.537   2.271  24.146  0.00  0.00    +0.139 C 
ATOM      9  C   UNL     1      -0.478  -1.280  23.804  0.00  0.00    +0.128 C 
ATOM     10  C   UNL     1       0.965  -1.149  24.282  0.00  0.00    +0.127 C 
ATOM     11  C   UNL     1      -2.505   0.134  24.480  0.00  0.00    +0.309 C 
ATOM     13  C   UNL     1       2.780   0.015  23.055  0.00  0.00    +0.213 C 
ATOM     16  C   UNL     1       3.342   1.321  22.555  0.00  0.00    +0.109 C 
ENDROOT
BRANCH   5  12
ATOM     12  C   UNL     1      -3.948   2.198  24.901  0.00  0.00    +0.038 A 
ATOM     14  C   UNL     1      -5.145   1.486  24.961  0.00  0.00    +0.023 A 
ATOM     15  C   UNL     1      -3.925   3.554  25.227  0.00  0.00    +0.023 A 
ATOM     17  C   UNL     1      -6.321   2.130  25.347  0.00  0.00    +0.002 A 
ATOM     18  C   UNL     1      -5.101   4.198  25.612  0.00  0.00    +0.002 A 
ATOM     19  C   UNL     1      -6.299   3.486  25.672  0.00  0.00    +0.000 A 
ENDBRANCH   5  12
TORSDOF 1
ENDMDL
MODEL 8
REMARK VINA RESULT:      -1.3     15.449     16.614
REMARK  Name = 75536970
REMARK  2 active torsions:
REMARK  status: ('A' for Active; 'I' for Inactive)
REMARK    1  A    between atoms: N_5  and  C_12
REMARK    2  A    between atoms: C_13  and  C_16
REMARK                            x       y       z     vdW  Elec       q    Type
REMARK                         _______ _______ _______ _____ _____    ______ ____
ROOT
ATOM      1  O   UNL     1       0.374   3.841  24.393  0.00  0.00    -0.252 OA
ATOM      2  O   UNL     1      -6.388   3.884  25.931  0.00  0.00    -0.276 OA
ATOM      3  N   UNL     1      -1.836   3.104  24.498  0.00  0.00    -0.278 N 
ATOM      4  N   UNL     1      -4.389   2.764  25.554  0.00  0.00    -0.298 N 
ATOM      5  N   UNL     1      -0.287   1.638  23.731  0.00  0.00    -0.254 N 
ATOM      6  C   UNL     1      -2.606   1.958  24.070  0.00  0.00    +0.113 C 
ATOM      7  C   UNL     1      -3.632   1.571  25.131  0.00  0.00    +0.132 C 
ATOM      8  C   UNL     1      -1.544   0.901  23.791  0.00  0.00    +0.139 C 
ATOM      9  C   UNL     1      -2.519   4.282  25.005  0.00  0.00    +0.128 C 
ATOM     10  C   UNL     1      -3.559   3.874  26.046  0.00  0.00    +0.127 C 
ATOM     11  C   UNL     1      -0.465   2.967  24.219  0.00  0.00    +0.309 C 
ATOM     13  C   UNL     1      -5.777   2.884  25.545  0.00  0.00    +0.213 C 
ATOM     16  C   UNL     1      -6.553   1.702  25.022  0.00  0.00    +0.109 C 
ENDROOT
BRANCH   5  12
ATOM     12  C   UNL     1       0.933   1.033  23.310  0.00  0.00    +0.038 A 
ATOM     14  C   UNL     1       0.923  -0.250  22.765  0.00  0.00    +0.023 A 
ATOM     15  C   UNL     1       2.136   1.726  23.443  0.00  0.00    +0.023 A 
ATOM     17  C   UNL     1       2.117  -0.843  22.354  0.00  0.00    +0.002 A 
ATOM     18  C   UNL     1       3.330   1.134  23.031  0.00  0.00    +0.002 A 
ATOM     19  C   UNL     1       3.321  -0.151  22.487  0.00  0.00    +0.000 A 
ENDBRANCH   5  12
TORSDOF 1
ENDMDL
