MODEL 1
REMARK VINA RESULT:       5.2      0.000      0.000
REMARK  Name = 25391134
REMARK  9 active torsions:
REMARK  status: ('A' for Active; 'I' for Inactive)
REMARK    1  A    between atoms: N_8  and  C_24
REMARK    2  A    between atoms: N_9  and  C_26
REMARK    3  A    between atoms: C_12  and  C_18
REMARK    4  A    between atoms: C_13  and  C_22
REMARK    5  A    between atoms: C_24  and  C_25
REMARK    6  A    between atoms: C_24  and  C_28
REMARK    7  A    between atoms: C_25  and  C_27
REMARK    8  A    between atoms: C_26  and  C_32
REMARK    9  A    between atoms: C_26  and  C_33
REMARK                            x       y       z     vdW  Elec       q    Type
REMARK                         _______ _______ _______ _____ _____    ______ ____
ROOT
ATOM      1  O   UNL     1      -2.928   0.604  24.519  0.00  0.00    -0.275 OA
ATOM      3  O   UNL     1       3.529   0.795  21.891  0.00  0.00    -0.253 OA
ATOM      5  N   UNL     1      -0.827  -0.343  24.206  0.00  0.00    -0.287 N 
ATOM      6  N   UNL     1       1.922  -0.192  23.249  0.00  0.00    -0.282 N 
ATOM      9  N   UNL     1       4.225  -0.486  23.669  0.00  0.00    -0.297 N 
ATOM     13  C   UNL     1      -0.379   0.750  23.341  0.00  0.00    +0.179 C 
ATOM     14  C   UNL     1       0.100  -1.465  24.390  0.00  0.00    +0.127 C 
ATOM     17  C   UNL     1       0.817   0.370  22.469  0.00  0.00    +0.141 C 
ATOM     18  C   UNL     1      -2.146  -0.338  24.672  0.00  0.00    +0.219 C 
ATOM     19  C   UNL     1       1.560  -1.027  24.400  0.00  0.00    +0.128 C 
ATOM     23  C   UNL     1       3.247   0.089  22.863  0.00  0.00    +0.303 C 
ATOM     40  H   UNL     1       3.966  -0.944  24.535  0.00  0.00    +0.150 HD
ENDROOT
BRANCH  18  12
ATOM      7  N   UNL     1      -4.222  -3.268  23.650  0.00  0.00    -0.316 NA
ATOM     12  C   UNL     1      -2.602  -1.566  25.406  0.00  0.00    +0.078 C 
ATOM     15  C   UNL     1      -2.049  -2.832  24.747  0.00  0.00    +0.028 C 
ATOM     16  C   UNL     1      -4.130  -1.616  25.490  0.00  0.00    +0.028 C 
ATOM     20  C   UNL     1      -2.777  -3.175  23.447  0.00  0.00    +0.081 C 
ATOM     21  C   UNL     1      -4.770  -2.010  24.157  0.00  0.00    +0.081 C 
ATOM     38  H   UNL     1      -4.672  -3.498  22.765  0.00  0.00    +0.122 HD
ENDBRANCH  18  12
BRANCH  13  22
ATOM      2  O   UNL     1       1.078   2.033  24.735  0.00  0.00    -0.274 OA
ATOM      8  N   UNL     1      -1.105   2.771  24.406  0.00  0.00    -0.302 N 
ATOM     22  C   UNL     1      -0.034   1.911  24.229  0.00  0.00    +0.236 C 
ATOM     39  H   UNL     1      -1.972   2.593  23.908  0.00  0.00    +0.150 HD
BRANCH   8  24
ATOM     24  C   UNL     1      -1.041   3.954  25.234  0.00  0.00    +0.163 C 
BRANCH  24  28
ATOM      4  O   UNL     1       0.270   4.901  23.420  0.00  0.00    -0.274 OA
ATOM     11  N   UNL     1      -0.979   6.316  24.728  0.00  0.00    -0.328 N 
ATOM     28  C   UNL     1      -0.491   5.078  24.368  0.00  0.00    +0.231 C 
ATOM     42  H   UNL     1      -1.626   6.445  25.500  0.00  0.00    +0.145 HD
ATOM     43  H   UNL     1      -0.703   7.152  24.223  0.00  0.00    +0.145 HD
ENDBRANCH  24  28
BRANCH  24  25
ATOM     25  C   UNL     1      -2.411   4.338  25.802  0.00  0.00    +0.069 C 
BRANCH  25  27
ATOM     10  N   UNL     1      -4.886   3.069  23.388  0.00  0.00    -0.360 N 
ATOM     27  C   UNL     1      -3.555   3.710  25.044  0.00  0.00    -0.020 A 
ATOM     29  C   UNL     1      -4.636   2.971  25.602  0.00  0.00    +0.003 A 
ATOM     30  C   UNL     1      -3.737   3.753  23.681  0.00  0.00    +0.087 A 
ATOM     31  C   UNL     1      -5.456   2.581  24.541  0.00  0.00    +0.047 A 
ATOM     34  C   UNL     1      -4.996   2.596  26.912  0.00  0.00    +0.010 A 
ATOM     35  C   UNL     1      -6.623   1.831  24.726  0.00  0.00    +0.026 A 
ATOM     36  C   UNL     1      -6.162   1.846  27.111  0.00  0.00    +0.001 A 
ATOM     37  C   UNL     1      -6.961   1.470  26.033  0.00  0.00    +0.002 A 
ATOM     41  H   UNL     1      -5.262   2.942  22.458  0.00  0.00    +0.165 HD
ENDBRANCH  25  27
ENDBRANCH  24  25
ENDBRANCH   8  24
ENDBRANCH  13  22
BRANCH   9  26
ATOM     26  C   UNL     1       5.635  -0.295  23.421  0.00  0.00    +0.068 C 
ATOM     32  C   UNL     1       6.432  -1.476  23.960  0.00  0.00    +0.027 C 
ATOM     33  C   UNL     1       6.112   1.018  24.031  0.00  0.00    +0.027 C 
ENDBRANCH   9  26
TORSDOF 7
ENDMDL
MODEL 2
REMARK VINA RESULT:       8.5      1.349      1.961
REMARK  Name = 25391134
REMARK  9 active torsions:
REMARK  status: ('A' for Active; 'I' for Inactive)
REMARK    1  A    between atoms: N_8  and  C_24
REMARK    2  A    between atoms: N_9  and  C_26
REMARK    3  A    between atoms: C_12  and  C_18
REMARK    4  A    between atoms: C_13  and  C_22
REMARK    5  A    between atoms: C_24  and  C_25
REMARK    6  A    between atoms: C_24  and  C_28
REMARK    7  A    between atoms: C_25  and  C_27
REMARK    8  A    between atoms: C_26  and  C_32
REMARK    9  A    between atoms: C_26  and  C_33
REMARK                            x       y       z     vdW  Elec       q    Type
REMARK                         _______ _______ _______ _____ _____    ______ ____
ROOT
ATOM      1  O   UNL     1      -3.129   0.749  23.319  0.00  0.00    -0.275 OA
ATOM      3  O   UNL     1       3.770   1.022  22.338  0.00  0.00    -0.253 OA
ATOM      5  N   UNL     1      -1.026  -0.245  23.347  0.00  0.00    -0.287 N 
ATOM      6  N   UNL     1       1.873  -0.086  23.095  0.00  0.00    -0.282 N 
ATOM      9  N   UNL     1       4.006  -0.567  23.983  0.00  0.00    -0.297 N 
ATOM     13  C   UNL     1      -0.370   0.949  22.809  0.00  0.00    +0.179 C 
ATOM     14  C   UNL     1      -0.184  -1.430  23.546  0.00  0.00    +0.127 C 
ATOM     17  C   UNL     1       0.993   0.653  22.188  0.00  0.00    +0.141 C 
ATOM     18  C   UNL     1      -2.418  -0.246  23.486  0.00  0.00    +0.219 C 
ATOM     19  C   UNL     1       1.237  -1.078  23.971  0.00  0.00    +0.128 C 
ATOM     23  C   UNL     1       3.256   0.183  23.082  0.00  0.00    +0.303 C 
ATOM     40  H   UNL     1       3.542  -1.145  24.674  0.00  0.00    +0.150 HD
ENDROOT
BRANCH  18  12
ATOM      7  N   UNL     1      -3.642  -1.592  26.746  0.00  0.00    -0.316 NA
ATOM     12  C   UNL     1      -3.052  -1.551  23.873  0.00  0.00    +0.078 C 
ATOM     15  C   UNL     1      -4.461  -1.330  24.427  0.00  0.00    +0.028 C 
ATOM     16  C   UNL     1      -2.180  -2.303  24.882  0.00  0.00    +0.028 C 
ATOM     20  C   UNL     1      -4.444  -0.763  25.847  0.00  0.00    +0.081 C 
ATOM     21  C   UNL     1      -2.259  -1.694  26.283  0.00  0.00    +0.081 C 
ATOM     38  H   UNL     1      -3.655  -1.185  27.680  0.00  0.00    +0.122 HD
ENDBRANCH  18  12
BRANCH  13  22
ATOM      2  O   UNL     1       0.473   2.931  23.845  0.00  0.00    -0.274 OA
ATOM      8  N   UNL     1      -0.962   1.552  25.053  0.00  0.00    -0.302 N 
ATOM     22  C   UNL     1      -0.233   1.930  23.938  0.00  0.00    +0.236 C 
ATOM     39  H   UNL     1      -1.544   0.721  25.006  0.00  0.00    +0.150 HD
BRANCH   8  24
ATOM     24  C   UNL     1      -0.982   2.314  26.281  0.00  0.00    +0.163 C 
BRANCH  24  28
ATOM      4  O   UNL     1       1.397   2.704  25.975  0.00  0.00    -0.274 OA
ATOM     11  N   UNL     1       0.604   2.363  28.102  0.00  0.00    -0.328 N 
ATOM     28  C   UNL     1       0.462   2.468  26.736  0.00  0.00    +0.231 C 
ATOM     42  H   UNL     1      -0.181   2.190  28.722  0.00  0.00    +0.145 HD
ATOM     43  H   UNL     1       1.515   2.460  28.540  0.00  0.00    +0.145 HD
ENDBRANCH  24  28
BRANCH  24  25
ATOM     25  C   UNL     1      -1.634   3.689  26.098  0.00  0.00    +0.069 C 
BRANCH  25  27
ATOM     10  N   UNL     1      -4.158   3.927  23.427  0.00  0.00    -0.360 N 
ATOM     27  C   UNL     1      -2.838   3.649  25.189  0.00  0.00    -0.020 A 
ATOM     29  C   UNL     1      -4.107   3.079  25.490  0.00  0.00    +0.003 A 
ATOM     30  C   UNL     1      -2.901   4.162  23.914  0.00  0.00    +0.087 A 
ATOM     31  C   UNL     1      -4.917   3.268  24.368  0.00  0.00    +0.047 A 
ATOM     34  C   UNL     1      -4.646   2.421  26.613  0.00  0.00    +0.010 A 
ATOM     35  C   UNL     1      -6.244   2.828  24.312  0.00  0.00    +0.026 A 
ATOM     36  C   UNL     1      -5.973   1.976  26.571  0.00  0.00    +0.001 A 
ATOM     37  C   UNL     1      -6.758   2.177  25.437  0.00  0.00    +0.002 A 
ATOM     41  H   UNL     1      -4.484   4.200  22.510  0.00  0.00    +0.165 HD
ENDBRANCH  25  27
ENDBRANCH  24  25
ENDBRANCH   8  24
ENDBRANCH  13  22
BRANCH   9  26
ATOM     26  C   UNL     1       5.437  -0.413  24.106  0.00  0.00    +0.068 C 
ATOM     32  C   UNL     1       5.778   0.983  24.612  0.00  0.00    +0.027 C 
ATOM     33  C   UNL     1       6.122  -0.700  22.775  0.00  0.00    +0.027 C 
ENDBRANCH   9  26
TORSDOF 7
ENDMDL
MODEL 3
REMARK VINA RESULT:       9.0      1.500      5.499
REMARK  Name = 25391134
REMARK  9 active torsions:
REMARK  status: ('A' for Active; 'I' for Inactive)
REMARK    1  A    between atoms: N_8  and  C_24
REMARK    2  A    between atoms: N_9  and  C_26
REMARK    3  A    between atoms: C_12  and  C_18
REMARK    4  A    between atoms: C_13  and  C_22
REMARK    5  A    between atoms: C_24  and  C_25
REMARK    6  A    between atoms: C_24  and  C_28
REMARK    7  A    between atoms: C_25  and  C_27
REMARK    8  A    between atoms: C_26  and  C_32
REMARK    9  A    between atoms: C_26  and  C_33
REMARK                            x       y       z     vdW  Elec       q    Type
REMARK                         _______ _______ _______ _____ _____    ______ ____
ROOT
ATOM      1  O   UNL     1       2.683   2.369  23.724  0.00  0.00    -0.275 OA
ATOM      3  O   UNL     1      -2.850  -1.100  26.171  0.00  0.00    -0.253 OA
ATOM      5  N   UNL     1       1.316   0.488  23.773  0.00  0.00    -0.287 N 
ATOM      6  N   UNL     1      -1.085  -0.897  24.672  0.00  0.00    -0.282 N 
ATOM      9  N   UNL     1      -2.999  -2.172  24.143  0.00  0.00    -0.297 N 
ATOM     13  C   UNL     1       0.476   1.031  24.842  0.00  0.00    +0.179 C 
ATOM     14  C   UNL     1       1.021  -0.880  23.329  0.00  0.00    +0.127 C 
ATOM     17  C   UNL     1      -0.319  -0.043  25.582  0.00  0.00    +0.141 C 
ATOM     18  C   UNL     1       2.432   1.219  23.352  0.00  0.00    +0.219 C 
ATOM     19  C   UNL     1      -0.468  -1.206  23.377  0.00  0.00    +0.128 C 
ATOM     23  C   UNL     1      -2.348  -1.372  25.077  0.00  0.00    +0.303 C 
ATOM     40  H   UNL     1      -2.627  -2.264  23.204  0.00  0.00    +0.150 HD
ENDROOT
BRANCH  18  12
ATOM      7  N   UNL     1       5.524  -0.821  23.811  0.00  0.00    -0.316 NA
ATOM     12  C   UNL     1       3.353   0.537  22.381  0.00  0.00    +0.078 C 
ATOM     15  C   UNL     1       3.366  -0.975  22.613  0.00  0.00    +0.028 C 
ATOM     16  C   UNL     1       4.767   1.117  22.473  0.00  0.00    +0.028 C 
ATOM     20  C   UNL     1       4.167  -1.365  23.855  0.00  0.00    +0.081 C 
ATOM     21  C   UNL     1       5.509   0.639  23.722  0.00  0.00    +0.081 C 
ATOM     38  H   UNL     1       6.026  -1.102  24.652  0.00  0.00    +0.122 HD
ENDBRANCH  18  12
BRANCH  13  22
ATOM      2  O   UNL     1      -0.716   2.012  23.018  0.00  0.00    -0.274 OA
ATOM      8  N   UNL     1      -0.920   2.958  25.136  0.00  0.00    -0.302 N 
ATOM     22  C   UNL     1      -0.449   2.035  24.217  0.00  0.00    +0.236 C 
ATOM     39  H   UNL     1      -0.663   2.860  26.113  0.00  0.00    +0.150 HD
BRANCH   8  24
ATOM     24  C   UNL     1      -1.809   4.041  24.783  0.00  0.00    +0.163 C 
BRANCH  24  28
ATOM      4  O   UNL     1      -1.032   6.334  24.986  0.00  0.00    -0.274 OA
ATOM     11  N   UNL     1       0.001   4.955  23.469  0.00  0.00    -0.328 N 
ATOM     28  C   UNL     1      -0.939   5.240  24.436  0.00  0.00    +0.231 C 
ATOM     42  H   UNL     1       0.082   4.039  23.039  0.00  0.00    +0.145 HD
ATOM     43  H   UNL     1       0.656   5.664  23.154  0.00  0.00    +0.145 HD
ENDBRANCH  24  28
BRANCH  24  25
ATOM     25  C   UNL     1      -2.719   3.682  23.604  0.00  0.00    +0.069 C 
BRANCH  25  27
ATOM     10  N   UNL     1      -4.613   0.530  23.815  0.00  0.00    -0.360 N 
ATOM     27  C   UNL     1      -3.635   2.520  23.905  0.00  0.00    -0.020 A 
ATOM     29  C   UNL     1      -4.641   2.473  24.911  0.00  0.00    +0.003 A 
ATOM     30  C   UNL     1      -3.642   1.311  23.248  0.00  0.00    +0.087 A 
ATOM     31  C   UNL     1      -5.239   1.214  24.832  0.00  0.00    +0.047 A 
ATOM     34  C   UNL     1      -5.101   3.383  25.882  0.00  0.00    +0.010 A 
ATOM     35  C   UNL     1      -6.279   0.818  25.681  0.00  0.00    +0.026 A 
ATOM     36  C   UNL     1      -6.141   3.001  26.738  0.00  0.00    +0.001 A 
ATOM     37  C   UNL     1      -6.719   1.737  26.637  0.00  0.00    +0.002 A 
ATOM     41  H   UNL     1      -4.839  -0.412  23.526  0.00  0.00    +0.165 HD
ENDBRANCH  25  27
ENDBRANCH  24  25
ENDBRANCH   8  24
ENDBRANCH  13  22
BRANCH   9  26
ATOM     26  C   UNL     1      -4.305  -2.737  24.391  0.00  0.00    +0.068 C 
ATOM     32  C   UNL     1      -4.174  -4.147  24.952  0.00  0.00    +0.027 C 
ATOM     33  C   UNL     1      -5.144  -2.725  23.119  0.00  0.00    +0.027 C 
ENDBRANCH   9  26
TORSDOF 7
ENDMDL
