MODEL 1
REMARK VINA RESULT:      -4.6      0.000      0.000
REMARK  Name = 45784222
REMARK  5 active torsions:
REMARK  status: ('A' for Active; 'I' for Inactive)
REMARK    1  A    between atoms: N_4  and  C_12
REMARK    2  A    between atoms: C_7  and  C_11
REMARK    3  A    between atoms: C_12  and  C_13
REMARK    4  A    between atoms: C_20  and  C_25
REMARK    5  A    between atoms: C_24  and  C_26
REMARK                            x       y       z     vdW  Elec       q    Type
REMARK                         _______ _______ _______ _____ _____    ______ ____
ROOT
ATOM      4  N   UNL     1      -8.283  -9.790   8.950  0.00  0.00    -0.297 NA
ATOM      7  C   UNL     1      -9.273 -10.119  11.050  0.00  0.00    +0.070 C 
ATOM      8  C   UNL     1      -9.980  -8.963  10.324  0.00  0.00    +0.028 C 
ATOM      9  C   UNL     1      -7.962 -10.320  10.277  0.00  0.00    +0.096 C 
ATOM     10  C   UNL     1      -9.028  -8.557   9.206  0.00  0.00    +0.085 C 
ENDROOT
BRANCH   7  11
ATOM      5  N   UNL     1      -7.982 -10.444  13.178  0.00  0.00    -0.342 N 
ATOM      6  N   UNL     1      -9.821  -9.207  13.342  0.00  0.00    -0.232 NA
ATOM     11  C   UNL     1      -9.056  -9.902  12.530  0.00  0.00    +0.113 A 
ATOM     14  C   UNL     1      -8.058 -10.074  14.496  0.00  0.00    +0.066 A 
ATOM     15  C   UNL     1      -9.214  -9.302  14.573  0.00  0.00    +0.089 A 
ATOM     18  C   UNL     1      -7.240 -10.341  15.595  0.00  0.00    +0.031 A 
ATOM     19  C   UNL     1      -9.591  -8.756  15.811  0.00  0.00    +0.030 A 
ATOM     20  C   UNL     1      -7.630  -9.789  16.819  0.00  0.00    -0.048 A 
ATOM     21  C   UNL     1      -8.785  -9.010  16.928  0.00  0.00    +0.005 A 
ATOM     25  C   UNL     1      -6.796 -10.037  18.033  0.00  0.00    +0.044 C 
ATOM     27  H   UNL     1      -7.258 -11.016  12.764  0.00  0.00    +0.167 HD
ENDBRANCH   7  11
BRANCH   4  12
ATOM     12  C   UNL     1      -7.094  -9.561   8.142  0.00  0.00    +0.119 C 
BRANCH  12  13
ATOM     13  C   UNL     1      -5.838  -9.591   8.972  0.00  0.00    -0.033 A 
ATOM     16  C   UNL     1      -4.978 -10.686   8.897  0.00  0.00    +0.005 A 
ATOM     17  C   UNL     1      -5.534  -8.523   9.817  0.00  0.00    +0.005 A 
ATOM     22  C   UNL     1      -3.815 -10.715   9.665  0.00  0.00    +0.012 A 
ATOM     23  C   UNL     1      -4.371  -8.551  10.587  0.00  0.00    +0.012 A 
ATOM     24  C   UNL     1      -3.511  -9.647  10.510  0.00  0.00    +0.055 A 
BRANCH  24  26
ATOM      1  F   UNL     1      -1.492 -10.781  11.110  0.00  0.00    -0.166 F 
ATOM      2  F   UNL     1      -2.519  -9.668  12.671  0.00  0.00    -0.166 F 
ATOM      3  F   UNL     1      -1.439  -8.612  11.107  0.00  0.00    -0.166 F 
ATOM     26  C   UNL     1      -2.266  -9.676  11.330  0.00  0.00    +0.417 C 
ENDBRANCH  24  26
ENDBRANCH  12  13
ENDBRANCH   4  12
TORSDOF 4
ENDMDL
MODEL 2
REMARK VINA RESULT:      -3.3      1.671      2.243
REMARK  Name = 45784222
REMARK  5 active torsions:
REMARK  status: ('A' for Active; 'I' for Inactive)
REMARK    1  A    between atoms: N_4  and  C_12
REMARK    2  A    between atoms: C_7  and  C_11
REMARK    3  A    between atoms: C_12  and  C_13
REMARK    4  A    between atoms: C_20  and  C_25
REMARK    5  A    between atoms: C_24  and  C_26
REMARK                            x       y       z     vdW  Elec       q    Type
REMARK                         _______ _______ _______ _____ _____    ______ ____
ROOT
ATOM      4  N   UNL     1      -6.869 -10.039  10.357  0.00  0.00    -0.297 NA
ATOM      7  C   UNL     1      -8.112  -9.772  12.328  0.00  0.00    +0.070 C 
ATOM      8  C   UNL     1      -7.642  -8.396  11.826  0.00  0.00    +0.028 C 
ATOM      9  C   UNL     1      -7.246 -10.781  11.562  0.00  0.00    +0.096 C 
ATOM     10  C   UNL     1      -6.528  -8.698  10.833  0.00  0.00    +0.085 C 
ENDROOT
BRANCH   7  11
ATOM      5  N   UNL     1      -6.865  -9.847  14.505  0.00  0.00    -0.342 N 
ATOM      6  N   UNL     1      -9.050 -10.230  14.629  0.00  0.00    -0.232 NA
ATOM     11  C   UNL     1      -8.046  -9.957  13.827  0.00  0.00    +0.113 A 
ATOM     14  C   UNL     1      -7.123 -10.063  15.834  0.00  0.00    +0.066 A 
ATOM     15  C   UNL     1      -8.494 -10.299  15.886  0.00  0.00    +0.089 A 
ATOM     18  C   UNL     1      -6.301 -10.072  16.961  0.00  0.00    +0.031 A 
ATOM     19  C   UNL     1      -9.097 -10.563  17.128  0.00  0.00    +0.030 A 
ATOM     20  C   UNL     1      -6.917 -10.335  18.188  0.00  0.00    -0.048 A 
ATOM     21  C   UNL     1      -8.291 -10.576  18.273  0.00  0.00    +0.005 A 
ATOM     25  C   UNL     1      -6.091 -10.358  19.433  0.00  0.00    +0.044 C 
ATOM     27  H   UNL     1      -5.960  -9.642  14.103  0.00  0.00    +0.167 HD
ENDBRANCH   7  11
BRANCH   4  12
ATOM     12  C   UNL     1      -5.771 -10.668   9.639  0.00  0.00    +0.119 C 
BRANCH  12  13
ATOM     13  C   UNL     1      -4.431 -10.206  10.148  0.00  0.00    -0.033 A 
ATOM     16  C   UNL     1      -3.721  -9.227   9.455  0.00  0.00    +0.005 A 
ATOM     17  C   UNL     1      -3.900 -10.758  11.315  0.00  0.00    +0.005 A 
ATOM     22  C   UNL     1      -2.480  -8.799   9.926  0.00  0.00    +0.012 A 
ATOM     23  C   UNL     1      -2.660 -10.331  11.786  0.00  0.00    +0.012 A 
ATOM     24  C   UNL     1      -1.950  -9.351  11.092  0.00  0.00    +0.055 A 
BRANCH  24  26
ATOM      1  F   UNL     1      -0.539  -7.537  11.756  0.00  0.00    -0.166 F 
ATOM      2  F   UNL     1       0.402  -9.228  10.764  0.00  0.00    -0.166 F 
ATOM      3  F   UNL     1      -0.292  -9.413  12.816  0.00  0.00    -0.166 F 
ATOM     26  C   UNL     1      -0.624  -8.891  11.598  0.00  0.00    +0.417 C 
ENDBRANCH  24  26
ENDBRANCH  12  13
ENDBRANCH   4  12
TORSDOF 4
ENDMDL
MODEL 3
REMARK VINA RESULT:      -1.5     16.528     18.637
REMARK  Name = 45784222
REMARK  5 active torsions:
REMARK  status: ('A' for Active; 'I' for Inactive)
REMARK    1  A    between atoms: N_4  and  C_12
REMARK    2  A    between atoms: C_7  and  C_11
REMARK    3  A    between atoms: C_12  and  C_13
REMARK    4  A    between atoms: C_20  and  C_25
REMARK    5  A    between atoms: C_24  and  C_26
REMARK                            x       y       z     vdW  Elec       q    Type
REMARK                         _______ _______ _______ _____ _____    ______ ____
ROOT
ATOM      4  N   UNL     1      -3.158  -0.857  24.641  0.00  0.00    -0.297 NA
ATOM      7  C   UNL     1      -1.027  -1.451  23.863  0.00  0.00    +0.070 C 
ATOM      8  C   UNL     1      -1.255  -2.064  25.256  0.00  0.00    +0.028 C 
ATOM      9  C   UNL     1      -2.118  -0.381  23.726  0.00  0.00    +0.096 C 
ATOM     10  C   UNL     1      -2.436  -1.296  25.835  0.00  0.00    +0.085 C 
ENDROOT
BRANCH   7  11
ATOM      5  N   UNL     1       1.475  -1.632  23.960  0.00  0.00    -0.342 N 
ATOM      6  N   UNL     1       0.675   0.260  23.112  0.00  0.00    -0.232 NA
ATOM     11  C   UNL     1       0.365  -0.907  23.630  0.00  0.00    +0.113 A 
ATOM     14  C   UNL     1       2.576  -0.883  23.633  0.00  0.00    +0.066 A 
ATOM     15  C   UNL     1       2.051   0.293  23.105  0.00  0.00    +0.089 A 
ATOM     18  C   UNL     1       3.945  -1.126  23.749  0.00  0.00    +0.031 A 
ATOM     19  C   UNL     1       2.928   1.297  22.663  0.00  0.00    +0.030 A 
ATOM     20  C   UNL     1       4.804  -0.115  23.304  0.00  0.00    -0.048 A 
ATOM     21  C   UNL     1       4.306   1.076  22.770  0.00  0.00    +0.005 A 
ATOM     25  C   UNL     1       6.281  -0.315  23.402  0.00  0.00    +0.044 C 
ATOM     27  H   UNL     1       1.488  -2.556  24.371  0.00  0.00    +0.167 HD
ENDBRANCH   7  11
BRANCH   4  12
ATOM     12  C   UNL     1      -4.147   0.168  24.937  0.00  0.00    +0.119 C 
BRANCH  12  13
ATOM     13  C   UNL     1      -3.542   1.547  24.943  0.00  0.00    -0.033 A 
ATOM     16  C   UNL     1      -2.247   1.737  25.425  0.00  0.00    +0.005 A 
ATOM     17  C   UNL     1      -4.275   2.633  24.464  0.00  0.00    +0.005 A 
ATOM     22  C   UNL     1      -1.686   3.014  25.431  0.00  0.00    +0.012 A 
ATOM     23  C   UNL     1      -3.714   3.910  24.470  0.00  0.00    +0.012 A 
ATOM     24  C   UNL     1      -2.419   4.100  24.953  0.00  0.00    +0.055 A 
BRANCH  24  26
ATOM      1  F   UNL     1      -0.456   5.462  25.073  0.00  0.00    -0.166 F 
ATOM      2  F   UNL     1      -2.272   6.237  25.985  0.00  0.00    -0.166 F 
ATOM      3  F   UNL     1      -2.076   6.179  23.821  0.00  0.00    -0.166 F 
ATOM     26  C   UNL     1      -1.818   5.465  24.956  0.00  0.00    +0.417 C 
ENDBRANCH  24  26
ENDBRANCH  12  13
ENDBRANCH   4  12
TORSDOF 4
ENDMDL
