MODEL 1
REMARK VINA RESULT:      -5.0      0.000      0.000
REMARK  Name = 56775535
REMARK  8 active torsions:
REMARK  status: ('A' for Active; 'I' for Inactive)
REMARK    1  A    between atoms: O_3  and  C_19
REMARK    2  A    between atoms: O_3  and  C_25
REMARK    3  A    between atoms: N_4  and  C_7
REMARK    4  A    between atoms: N_4  and  C_11
REMARK    5  A    between atoms: C_7  and  C_10
REMARK    6  A    between atoms: C_10  and  C_12
REMARK    7  A    between atoms: C_11  and  C_13
REMARK    8  A    between atoms: C_15  and  C_19
REMARK                            x       y       z     vdW  Elec       q    Type
REMARK                         _______ _______ _______ _____ _____    ______ ____
ROOT
ATOM      4  N   UNL     1      -1.333  -1.915  24.248  0.00  0.00    -0.302 NA
ATOM     26  H   UNL     1      -0.966  -1.589  23.355  0.00  0.00    +0.123 HD
ENDROOT
BRANCH   4   7
ATOM      1  O   UNL     1      -3.532  -2.982  26.042  0.00  0.00    -0.376 OA
ATOM      7  C   UNL     1      -2.791  -1.875  24.373  0.00  0.00    +0.072 C 
ATOM      8  C   UNL     1      -3.151  -1.603  25.830  0.00  0.00    +0.184 C 
ATOM      9  C   UNL     1      -3.300  -3.286  24.647  0.00  0.00    +0.184 C 
BRANCH   7  10
ATOM     10  C   UNL     1      -3.447  -1.061  23.300  0.00  0.00    +0.085 C 
BRANCH  10  12
ATOM      2  O   UNL     1      -4.270   2.377  24.044  0.00  0.00    -0.357 OA
ATOM      5  N   UNL     1      -3.617   1.401  23.300  0.00  0.00    -0.083 NA
ATOM     12  C   UNL     1      -3.976   0.242  23.860  0.00  0.00    +0.086 A 
ATOM     14  C   UNL     1      -4.845   0.423  24.950  0.00  0.00    +0.073 A 
ATOM     15  C   UNL     1      -4.998   1.782  25.023  0.00  0.00    +0.163 A 
BRANCH  15  19
ATOM     19  C   UNL     1      -5.757   2.673  25.909  0.00  0.00    +0.236 C 
BRANCH  19   3
ATOM      3  O   UNL     1      -5.200   3.990  25.883  0.00  0.00    -0.375 OA
ATOM     25  C   UNL     1      -6.177   4.953  25.525  0.00  0.00    +0.194 C 
ENDBRANCH  19   3
ENDBRANCH  15  19
ENDBRANCH  10  12
ENDBRANCH   7  10
ENDBRANCH   4   7
BRANCH   4  11
ATOM     11  C   UNL     1      -0.736  -1.140  25.339  0.00  0.00    +0.118 C 
BRANCH  11  13
ATOM      6  N   UNL     1       0.388   2.034  23.652  0.00  0.00    -0.255 NA
ATOM     13  C   UNL     1      -0.610   0.305  25.009  0.00  0.00    -0.015 A 
ATOM     16  C   UNL     1      -1.329   1.267  25.702  0.00  0.00    +0.016 A 
ATOM     17  C   UNL     1       0.227   0.737  24.001  0.00  0.00    +0.116 A 
ATOM     18  C   UNL     1      -1.193   2.622  25.373  0.00  0.00    +0.001 A 
ATOM     20  C   UNL     1      -0.312   2.966  24.327  0.00  0.00    +0.071 A 
ATOM     21  C   UNL     1      -1.908   3.621  26.056  0.00  0.00    +0.010 A 
ATOM     22  C   UNL     1      -0.177   4.312  24.001  0.00  0.00    +0.028 A 
ATOM     23  C   UNL     1      -1.754   4.960  25.709  0.00  0.00    +0.001 A 
ATOM     24  C   UNL     1      -0.887   5.305  24.679  0.00  0.00    +0.002 A 
ENDBRANCH  11  13
ENDBRANCH   4  11
TORSDOF 7
ENDMDL
MODEL 2
REMARK VINA RESULT:      -5.0      2.512      4.755
REMARK  Name = 56775535
REMARK  8 active torsions:
REMARK  status: ('A' for Active; 'I' for Inactive)
REMARK    1  A    between atoms: O_3  and  C_19
REMARK    2  A    between atoms: O_3  and  C_25
REMARK    3  A    between atoms: N_4  and  C_7
REMARK    4  A    between atoms: N_4  and  C_11
REMARK    5  A    between atoms: C_7  and  C_10
REMARK    6  A    between atoms: C_10  and  C_12
REMARK    7  A    between atoms: C_11  and  C_13
REMARK    8  A    between atoms: C_15  and  C_19
REMARK                            x       y       z     vdW  Elec       q    Type
REMARK                         _______ _______ _______ _____ _____    ______ ____
ROOT
ATOM      4  N   UNL     1      -4.250  -0.690  25.701  0.00  0.00    -0.302 NA
ATOM     26  H   UNL     1      -4.117  -0.175  26.571  0.00  0.00    +0.123 HD
ENDROOT
BRANCH   4   7
ATOM      1  O   UNL     1      -3.580  -2.890  23.727  0.00  0.00    -0.376 OA
ATOM      7  C   UNL     1      -3.107  -1.496  25.273  0.00  0.00    +0.072 C 
ATOM      8  C   UNL     1      -3.076  -1.535  23.749  0.00  0.00    +0.184 C 
ATOM      9  C   UNL     1      -3.543  -2.954  25.171  0.00  0.00    +0.184 C 
BRANCH   7  10
ATOM     10  C   UNL     1      -1.848  -1.165  26.016  0.00  0.00    +0.085 C 
BRANCH  10  12
ATOM      2  O   UNL     1       0.582   0.870  24.284  0.00  0.00    -0.357 OA
ATOM      5  N   UNL     1      -0.334   0.650  25.305  0.00  0.00    -0.083 NA
ATOM     12  C   UNL     1      -0.810  -0.579  25.083  0.00  0.00    +0.086 A 
ATOM     14  C   UNL     1      -0.238  -1.175  23.946  0.00  0.00    +0.073 A 
ATOM     15  C   UNL     1       0.631  -0.224  23.481  0.00  0.00    +0.163 A 
BRANCH  15  19
ATOM     19  C   UNL     1       1.554  -0.160  22.343  0.00  0.00    +0.236 C 
BRANCH  19   3
ATOM      3  O   UNL     1       2.902  -0.334  22.786  0.00  0.00    -0.375 OA
ATOM     25  C   UNL     1       3.648   0.864  22.644  0.00  0.00    +0.194 C 
ENDBRANCH  19   3
ENDBRANCH  15  19
ENDBRANCH  10  12
ENDBRANCH   7  10
ENDBRANCH   4   7
BRANCH   4  11
ATOM     11  C   UNL     1      -4.608   0.242  24.627  0.00  0.00    +0.118 C 
BRANCH  11  13
ATOM      6  N   UNL     1      -4.319   3.821  25.765  0.00  0.00    -0.255 NA
ATOM     13  C   UNL     1      -4.053   1.604  24.846  0.00  0.00    -0.015 A 
ATOM     16  C   UNL     1      -2.800   1.955  24.369  0.00  0.00    +0.016 A 
ATOM     17  C   UNL     1      -4.767   2.565  25.533  0.00  0.00    +0.116 A 
ATOM     18  C   UNL     1      -2.297   3.245  24.587  0.00  0.00    +0.001 A 
ATOM     20  C   UNL     1      -3.102   4.158  25.300  0.00  0.00    +0.071 A 
ATOM     21  C   UNL     1      -1.031   3.632  24.116  0.00  0.00    +0.010 A 
ATOM     22  C   UNL     1      -2.603   5.440  25.516  0.00  0.00    +0.028 A 
ATOM     23  C   UNL     1      -0.557   4.920  24.346  0.00  0.00    +0.001 A 
ATOM     24  C   UNL     1      -1.345   5.825  25.048  0.00  0.00    +0.002 A 
ENDBRANCH  11  13
ENDBRANCH   4  11
TORSDOF 7
ENDMDL
MODEL 3
REMARK VINA RESULT:      -4.7      2.301      4.824
REMARK  Name = 56775535
REMARK  8 active torsions:
REMARK  status: ('A' for Active; 'I' for Inactive)
REMARK    1  A    between atoms: O_3  and  C_19
REMARK    2  A    between atoms: O_3  and  C_25
REMARK    3  A    between atoms: N_4  and  C_7
REMARK    4  A    between atoms: N_4  and  C_11
REMARK    5  A    between atoms: C_7  and  C_10
REMARK    6  A    between atoms: C_10  and  C_12
REMARK    7  A    between atoms: C_11  and  C_13
REMARK    8  A    between atoms: C_15  and  C_19
REMARK                            x       y       z     vdW  Elec       q    Type
REMARK                         _______ _______ _______ _____ _____    ______ ____
ROOT
ATOM      4  N   UNL     1      -0.026   0.675  23.205  0.00  0.00    -0.302 NA
ATOM     26  H   UNL     1      -0.878   0.225  23.537  0.00  0.00    +0.123 HD
ENDROOT
BRANCH   4   7
ATOM      1  O   UNL     1       2.643   0.360  21.803  0.00  0.00    -0.376 OA
ATOM      7  C   UNL     1       1.181  -0.149  23.274  0.00  0.00    +0.072 C 
ATOM      8  C   UNL     1       2.402   0.760  23.172  0.00  0.00    +0.184 C 
ATOM      9  C   UNL     1       1.556  -0.592  21.864  0.00  0.00    +0.184 C 
BRANCH   7  10
ATOM     10  C   UNL     1       1.128  -1.172  24.367  0.00  0.00    +0.085 C 
BRANCH  10  12
ATOM      2  O   UNL     1      -2.146  -1.235  25.894  0.00  0.00    -0.357 OA
ATOM      5  N   UNL     1      -0.851  -0.743  25.779  0.00  0.00    -0.083 NA
ATOM     12  C   UNL     1      -0.303  -1.444  24.781  0.00  0.00    +0.086 A 
ATOM     14  C   UNL     1      -1.195  -2.383  24.236  0.00  0.00    +0.073 A 
ATOM     15  C   UNL     1      -2.339  -2.210  24.970  0.00  0.00    +0.163 A 
BRANCH  15  19
ATOM     19  C   UNL     1      -3.662  -2.844  24.953  0.00  0.00    +0.236 C 
BRANCH  19   3
ATOM      3  O   UNL     1      -4.354  -2.516  23.745  0.00  0.00    -0.375 OA
ATOM     25  C   UNL     1      -4.380  -1.114  23.533  0.00  0.00    +0.194 C 
ENDBRANCH  19   3
ENDBRANCH  15  19
ENDBRANCH  10  12
ENDBRANCH   7  10
ENDBRANCH   4   7
BRANCH   4  11
ATOM     11  C   UNL     1       0.197   1.917  23.951  0.00  0.00    +0.118 C 
BRANCH  11  13
ATOM      6  N   UNL     1      -2.190   4.330  25.583  0.00  0.00    -0.255 NA
ATOM     13  C   UNL     1      -1.068   2.513  24.458  0.00  0.00    -0.015 A 
ATOM     16  C   UNL     1      -2.282   1.862  24.303  0.00  0.00    +0.016 A 
ATOM     17  C   UNL     1      -1.076   3.735  25.098  0.00  0.00    +0.116 A 
ATOM     18  C   UNL     1      -3.461   2.443  24.789  0.00  0.00    +0.001 A 
ATOM     20  C   UNL     1      -3.367   3.696  25.431  0.00  0.00    +0.071 A 
ATOM     21  C   UNL     1      -4.707   1.810  24.648  0.00  0.00    +0.010 A 
ATOM     22  C   UNL     1      -4.539   4.272  25.914  0.00  0.00    +0.028 A 
ATOM     23  C   UNL     1      -5.863   2.409  25.140  0.00  0.00    +0.001 A 
ATOM     24  C   UNL     1      -5.777   3.643  25.774  0.00  0.00    +0.002 A 
ENDBRANCH  11  13
ENDBRANCH   4  11
TORSDOF 7
ENDMDL
MODEL 4
REMARK VINA RESULT:      -4.1      2.036      6.088
REMARK  Name = 56775535
REMARK  8 active torsions:
REMARK  status: ('A' for Active; 'I' for Inactive)
REMARK    1  A    between atoms: O_3  and  C_19
REMARK    2  A    between atoms: O_3  and  C_25
REMARK    3  A    between atoms: N_4  and  C_7
REMARK    4  A    between atoms: N_4  and  C_11
REMARK    5  A    between atoms: C_7  and  C_10
REMARK    6  A    between atoms: C_10  and  C_12
REMARK    7  A    between atoms: C_11  and  C_13
REMARK    8  A    between atoms: C_15  and  C_19
REMARK                            x       y       z     vdW  Elec       q    Type
REMARK                         _______ _______ _______ _____ _____    ______ ____
ROOT
ATOM      4  N   UNL     1      -3.954   2.984  24.017  0.00  0.00    -0.302 NA
ATOM     26  H   UNL     1      -3.038   2.625  23.753  0.00  0.00    +0.123 HD
ENDROOT
BRANCH   4   7
ATOM      1  O   UNL     1      -5.805   4.072  26.157  0.00  0.00    -0.376 OA
ATOM      7  C   UNL     1      -3.950   3.962  25.106  0.00  0.00    +0.072 C 
ATOM      8  C   UNL     1      -4.580   3.325  26.340  0.00  0.00    +0.184 C 
ATOM      9  C   UNL     1      -5.233   4.783  25.036  0.00  0.00    +0.184 C 
BRANCH   7  10
ATOM     10  C   UNL     1      -2.639   4.673  25.247  0.00  0.00    +0.085 C 
BRANCH  10  12
ATOM      2  O   UNL     1       0.008   2.294  25.869  0.00  0.00    -0.357 OA
ATOM      5  N   UNL     1      -1.030   3.117  26.289  0.00  0.00    -0.083 NA
ATOM     12  C   UNL     1      -1.485   3.695  25.173  0.00  0.00    +0.086 A 
ATOM     14  C   UNL     1      -0.779   3.279  24.031  0.00  0.00    +0.073 A 
ATOM     15  C   UNL     1       0.147   2.398  24.523  0.00  0.00    +0.163 A 
BRANCH  15  19
ATOM     19  C   UNL     1       1.207   1.590  23.910  0.00  0.00    +0.236 C 
BRANCH  19   3
ATOM      3  O   UNL     1       0.639   0.560  23.097  0.00  0.00    -0.375 OA
ATOM     25  C   UNL     1       1.648  -0.216  22.471  0.00  0.00    +0.194 C 
ENDBRANCH  19   3
ENDBRANCH  15  19
ENDBRANCH  10  12
ENDBRANCH   7  10
ENDBRANCH   4   7
BRANCH   4  11
ATOM     11  C   UNL     1      -4.836   1.869  24.377  0.00  0.00    +0.118 C 
BRANCH  11  13
ATOM      6  N   UNL     1      -4.121  -1.808  23.990  0.00  0.00    -0.255 NA
ATOM     13  C   UNL     1      -4.118   0.567  24.420  0.00  0.00    -0.015 A 
ATOM     16  C   UNL     1      -2.823   0.475  24.906  0.00  0.00    +0.016 A 
ATOM     17  C   UNL     1      -4.718  -0.594  23.977  0.00  0.00    +0.116 A 
ATOM     18  C   UNL     1      -2.167  -0.763  24.937  0.00  0.00    +0.001 A 
ATOM     20  C   UNL     1      -2.863  -1.894  24.463  0.00  0.00    +0.071 A 
ATOM     21  C   UNL     1      -0.855  -0.890  25.423  0.00  0.00    +0.010 A 
ATOM     22  C   UNL     1      -2.212  -3.124  24.494  0.00  0.00    +0.028 A 
ATOM     23  C   UNL     1      -0.227  -2.132  25.442  0.00  0.00    +0.001 A 
ATOM     24  C   UNL     1      -0.908  -3.251  24.976  0.00  0.00    +0.002 A 
ENDBRANCH  11  13
ENDBRANCH   4  11
TORSDOF 7
ENDMDL
MODEL 5
REMARK VINA RESULT:      -3.9      2.532      6.436
REMARK  Name = 56775535
REMARK  8 active torsions:
REMARK  status: ('A' for Active; 'I' for Inactive)
REMARK    1  A    between atoms: O_3  and  C_19
REMARK    2  A    between atoms: O_3  and  C_25
REMARK    3  A    between atoms: N_4  and  C_7
REMARK    4  A    between atoms: N_4  and  C_11
REMARK    5  A    between atoms: C_7  and  C_10
REMARK    6  A    between atoms: C_10  and  C_12
REMARK    7  A    between atoms: C_11  and  C_13
REMARK    8  A    between atoms: C_15  and  C_19
REMARK                            x       y       z     vdW  Elec       q    Type
REMARK                         _______ _______ _______ _____ _____    ______ ____
ROOT
ATOM      4  N   UNL     1      -2.802   3.881  26.207  0.00  0.00    -0.302 NA
ATOM     26  H   UNL     1      -3.005   4.774  26.653  0.00  0.00    +0.123 HD
ENDROOT
BRANCH   4   7
ATOM      1  O   UNL     1      -1.310   5.089  23.861  0.00  0.00    -0.376 OA
ATOM      7  C   UNL     1      -1.498   3.795  25.548  0.00  0.00    +0.072 C 
ATOM      8  C   UNL     1      -0.996   5.207  25.268  0.00  0.00    +0.184 C 
ATOM      9  C   UNL     1      -1.712   3.712  24.041  0.00  0.00    +0.184 C 
BRANCH   7  10
ATOM     10  C   UNL     1      -0.576   2.814  26.206  0.00  0.00    +0.085 C 
BRANCH  10  12
ATOM      2  O   UNL     1      -0.033  -0.237  24.350  0.00  0.00    -0.357 OA
ATOM      5  N   UNL     1      -0.598   0.483  25.396  0.00  0.00    -0.083 NA
ATOM     12  C   UNL     1      -0.155   1.733  25.233  0.00  0.00    +0.086 A 
ATOM     14  C   UNL     1       0.684   1.860  24.113  0.00  0.00    +0.073 A 
ATOM     15  C   UNL     1       0.727   0.594  23.593  0.00  0.00    +0.163 A 
BRANCH  15  19
ATOM     19  C   UNL     1       1.403  -0.007  22.437  0.00  0.00    +0.236 C 
BRANCH  19   3
ATOM      3  O   UNL     1       2.738  -0.384  22.782  0.00  0.00    -0.375 OA
ATOM     25  C   UNL     1       3.636   0.701  22.618  0.00  0.00    +0.194 C 
ENDBRANCH  19   3
ENDBRANCH  15  19
ENDBRANCH  10  12
ENDBRANCH   7  10
ENDBRANCH   4   7
BRANCH   4  11
ATOM     11  C   UNL     1      -3.852   3.567  25.233  0.00  0.00    +0.118 C 
BRANCH  11  13
ATOM      6  N   UNL     1      -3.842   0.554  22.972  0.00  0.00    -0.255 NA
ATOM     13  C   UNL     1      -3.808   2.149  24.783  0.00  0.00    -0.015 A 
ATOM     16  C   UNL     1      -3.694   1.110  25.694  0.00  0.00    +0.016 A 
ATOM     17  C   UNL     1      -3.877   1.822  23.445  0.00  0.00    +0.116 A 
ATOM     18  C   UNL     1      -3.653  -0.218  25.247  0.00  0.00    +0.001 A 
ATOM     20  C   UNL     1      -3.732  -0.453  23.858  0.00  0.00    +0.071 A 
ATOM     21  C   UNL     1      -3.539  -1.294  26.143  0.00  0.00    +0.010 A 
ATOM     22  C   UNL     1      -3.692  -1.772  23.415  0.00  0.00    +0.028 A 
ATOM     23  C   UNL     1      -3.502  -2.603  25.673  0.00  0.00    +0.001 A 
ATOM     24  C   UNL     1      -3.578  -2.842  24.305  0.00  0.00    +0.002 A 
ENDBRANCH  11  13
ENDBRANCH   4  11
TORSDOF 7
ENDMDL
MODEL 6
REMARK VINA RESULT:      -3.6      1.798      4.862
REMARK  Name = 56775535
REMARK  8 active torsions:
REMARK  status: ('A' for Active; 'I' for Inactive)
REMARK    1  A    between atoms: O_3  and  C_19
REMARK    2  A    between atoms: O_3  and  C_25
REMARK    3  A    between atoms: N_4  and  C_7
REMARK    4  A    between atoms: N_4  and  C_11
REMARK    5  A    between atoms: C_7  and  C_10
REMARK    6  A    between atoms: C_10  and  C_12
REMARK    7  A    between atoms: C_11  and  C_13
REMARK    8  A    between atoms: C_15  and  C_19
REMARK                            x       y       z     vdW  Elec       q    Type
REMARK                         _______ _______ _______ _____ _____    ______ ____
ROOT
ATOM      4  N   UNL     1      -0.392   2.902  23.973  0.00  0.00    -0.302 NA
ATOM     26  H   UNL     1       0.060   3.526  23.306  0.00  0.00    +0.123 HD
ENDROOT
BRANCH   4   7
ATOM      1  O   UNL     1       0.665   2.761  26.810  0.00  0.00    -0.376 OA
ATOM      7  C   UNL     1      -0.650   3.482  25.291  0.00  0.00    +0.072 C 
ATOM      8  C   UNL     1       0.679   3.896  25.914  0.00  0.00    +0.184 C 
ATOM      9  C   UNL     1      -0.640   2.367  26.330  0.00  0.00    +0.184 C 
BRANCH   7  10
ATOM     10  C   UNL     1      -1.785   4.461  25.287  0.00  0.00    +0.085 C 
BRANCH  10  12
ATOM      2  O   UNL     1      -4.577   2.891  23.617  0.00  0.00    -0.357 OA
ATOM      5  N   UNL     1      -3.329   3.502  23.617  0.00  0.00    -0.083 NA
ATOM     12  C   UNL     1      -3.081   3.781  24.900  0.00  0.00    +0.086 A 
ATOM     14  C   UNL     1      -4.127   3.373  25.746  0.00  0.00    +0.073 A 
ATOM     15  C   UNL     1      -5.041   2.819  24.891  0.00  0.00    +0.163 A 
BRANCH  15  19
ATOM     19  C   UNL     1      -6.358   2.197  25.074  0.00  0.00    +0.236 C 
BRANCH  19   3
ATOM      3  O   UNL     1      -6.264   1.091  25.975  0.00  0.00    -0.375 OA
ATOM     25  C   UNL     1      -6.721   1.444  27.270  0.00  0.00    +0.194 C 
ENDBRANCH  19   3
ENDBRANCH  15  19
ENDBRANCH  10  12
ENDBRANCH   7  10
ENDBRANCH   4   7
BRANCH   4  11
ATOM     11  C   UNL     1       0.411   1.686  24.133  0.00  0.00    +0.118 C 
BRANCH  11  13
ATOM      6  N   UNL     1      -0.577  -1.909  24.668  0.00  0.00    -0.255 NA
ATOM     13  C   UNL     1      -0.426   0.460  24.229  0.00  0.00    -0.015 A 
ATOM     16  C   UNL     1      -1.790   0.499  23.984  0.00  0.00    +0.016 A 
ATOM     17  C   UNL     1       0.128  -0.758  24.566  0.00  0.00    +0.116 A 
ATOM     18  C   UNL     1      -2.558  -0.670  24.081  0.00  0.00    +0.001 A 
ATOM     20  C   UNL     1      -1.901  -1.868  24.430  0.00  0.00    +0.071 A 
ATOM     21  C   UNL     1      -3.942  -0.664  23.839  0.00  0.00    +0.010 A 
ATOM     22  C   UNL     1      -2.664  -3.028  24.525  0.00  0.00    +0.028 A 
ATOM     23  C   UNL     1      -4.681  -1.839  23.941  0.00  0.00    +0.001 A 
ATOM     24  C   UNL     1      -4.040  -3.023  24.285  0.00  0.00    +0.002 A 
ENDBRANCH  11  13
ENDBRANCH   4  11
TORSDOF 7
ENDMDL
MODEL 7
REMARK VINA RESULT:      -3.6      2.269      4.592
REMARK  Name = 56775535
REMARK  8 active torsions:
REMARK  status: ('A' for Active; 'I' for Inactive)
REMARK    1  A    between atoms: O_3  and  C_19
REMARK    2  A    between atoms: O_3  and  C_25
REMARK    3  A    between atoms: N_4  and  C_7
REMARK    4  A    between atoms: N_4  and  C_11
REMARK    5  A    between atoms: C_7  and  C_10
REMARK    6  A    between atoms: C_10  and  C_12
REMARK    7  A    between atoms: C_11  and  C_13
REMARK    8  A    between atoms: C_15  and  C_19
REMARK                            x       y       z     vdW  Elec       q    Type
REMARK                         _______ _______ _______ _____ _____    ______ ____
ROOT
ATOM      4  N   UNL     1       1.086   1.163  24.200  0.00  0.00    -0.302 NA
ATOM     26  H   UNL     1       1.886   1.680  24.563  0.00  0.00    +0.123 HD
ENDROOT
BRANCH   4   7
ATOM      1  O   UNL     1       2.422   0.075  21.705  0.00  0.00    -0.376 OA
ATOM      7  C   UNL     1       1.406  -0.120  23.573  0.00  0.00    +0.072 C 
ATOM      8  C   UNL     1       2.848  -0.080  23.079  0.00  0.00    +0.184 C 
ATOM      9  C   UNL     1       1.036  -0.052  22.095  0.00  0.00    +0.184 C 
BRANCH   7  10
ATOM     10  C   UNL     1       0.950  -1.295  24.383  0.00  0.00    +0.085 C 
BRANCH  10  12
ATOM      2  O   UNL     1      -2.034  -0.333  26.176  0.00  0.00    -0.357 OA
ATOM      5  N   UNL     1      -0.658  -0.321  25.981  0.00  0.00    -0.083 NA
ATOM     12  C   UNL     1      -0.456  -1.080  24.900  0.00  0.00    +0.086 A 
ATOM     14  C   UNL     1      -1.656  -1.592  24.376  0.00  0.00    +0.073 A 
ATOM     15  C   UNL     1      -2.617  -1.093  25.214  0.00  0.00    +0.163 A 
BRANCH  15  19
ATOM     19  C   UNL     1      -4.078  -1.214  25.271  0.00  0.00    +0.236 C 
BRANCH  19   3
ATOM      3  O   UNL     1      -4.609  -1.441  23.963  0.00  0.00    -0.375 OA
ATOM     25  C   UNL     1      -4.510  -2.808  23.599  0.00  0.00    +0.194 C 
ENDBRANCH  19   3
ENDBRANCH  15  19
ENDBRANCH  10  12
ENDBRANCH   7  10
ENDBRANCH   4   7
BRANCH   4  11
ATOM     11  C   UNL     1       0.356   1.996  23.240  0.00  0.00    +0.118 C 
BRANCH  11  13
ATOM      6  N   UNL     1      -3.397   1.689  23.164  0.00  0.00    -0.255 NA
ATOM     13  C   UNL     1      -1.075   2.171  23.610  0.00  0.00    -0.015 A 
ATOM     16  C   UNL     1      -1.446   2.942  24.700  0.00  0.00    +0.016 A 
ATOM     17  C   UNL     1      -2.080   1.569  22.881  0.00  0.00    +0.116 A 
ATOM     18  C   UNL     1      -2.800   3.092  25.030  0.00  0.00    +0.001 A 
ATOM     20  C   UNL     1      -3.755   2.439  24.223  0.00  0.00    +0.071 A 
ATOM     21  C   UNL     1      -3.210   3.867  26.128  0.00  0.00    +0.010 A 
ATOM     22  C   UNL     1      -5.100   2.589  24.550  0.00  0.00    +0.028 A 
ATOM     23  C   UNL     1      -4.561   4.000  26.432  0.00  0.00    +0.001 A 
ATOM     24  C   UNL     1      -5.508   3.359  25.642  0.00  0.00    +0.002 A 
ENDBRANCH  11  13
ENDBRANCH   4  11
TORSDOF 7
ENDMDL
MODEL 8
REMARK VINA RESULT:      -3.4      3.024      5.450
REMARK  Name = 56775535
REMARK  8 active torsions:
REMARK  status: ('A' for Active; 'I' for Inactive)
REMARK    1  A    between atoms: O_3  and  C_19
REMARK    2  A    between atoms: O_3  and  C_25
REMARK    3  A    between atoms: N_4  and  C_7
REMARK    4  A    between atoms: N_4  and  C_11
REMARK    5  A    between atoms: C_7  and  C_10
REMARK    6  A    between atoms: C_10  and  C_12
REMARK    7  A    between atoms: C_11  and  C_13
REMARK    8  A    between atoms: C_15  and  C_19
REMARK                            x       y       z     vdW  Elec       q    Type
REMARK                         _______ _______ _______ _____ _____    ______ ____
ROOT
ATOM      4  N   UNL     1      -2.846  -1.625  24.602  0.00  0.00    -0.302 NA
ATOM     26  H   UNL     1      -3.171  -1.616  25.568  0.00  0.00    +0.123 HD
ENDROOT
BRANCH   4   7
ATOM      1  O   UNL     1      -0.169  -2.085  25.948  0.00  0.00    -0.376 OA
ATOM      7  C   UNL     1      -1.432  -1.296  24.418  0.00  0.00    +0.072 C 
ATOM      8  C   UNL     1      -0.600  -2.553  24.649  0.00  0.00    +0.184 C 
ATOM      9  C   UNL     1      -0.858  -0.830  25.752  0.00  0.00    +0.184 C 
BRANCH   7  10
ATOM     10  C   UNL     1      -1.178  -0.474  23.191  0.00  0.00    +0.085 C 
BRANCH  10  12
ATOM      2  O   UNL     1       1.918   1.316  23.695  0.00  0.00    -0.357 OA
ATOM      5  N   UNL     1       0.567   1.102  23.940  0.00  0.00    -0.083 NA
ATOM     12  C   UNL     1       0.241   0.053  23.179  0.00  0.00    +0.086 A 
ATOM     14  C   UNL     1       1.334  -0.430  22.439  0.00  0.00    +0.073 A 
ATOM     15  C   UNL     1       2.363   0.398  22.800  0.00  0.00    +0.163 A 
BRANCH  15  19
ATOM     19  C   UNL     1       3.780   0.481  22.425  0.00  0.00    +0.236 C 
BRANCH  19   3
ATOM      3  O   UNL     1       4.570   0.863  23.554  0.00  0.00    -0.375 OA
ATOM     25  C   UNL     1       5.557  -0.114  23.843  0.00  0.00    +0.194 C 
ENDBRANCH  19   3
ENDBRANCH  15  19
ENDBRANCH  10  12
ENDBRANCH   7  10
ENDBRANCH   4   7
BRANCH   4  11
ATOM     11  C   UNL     1      -3.660  -0.708  23.798  0.00  0.00    +0.118 C 
BRANCH  11  13
ATOM      6  N   UNL     1      -5.001   2.288  25.643  0.00  0.00    -0.255 NA
ATOM     13  C   UNL     1      -3.741   0.652  24.393  0.00  0.00    -0.015 A 
ATOM     16  C   UNL     1      -2.691   1.551  24.280  0.00  0.00    +0.016 A 
ATOM     17  C   UNL     1      -4.864   1.066  25.080  0.00  0.00    +0.116 A 
ATOM     18  C   UNL     1      -2.791   2.827  24.850  0.00  0.00    +0.001 A 
ATOM     20  C   UNL     1      -3.980   3.159  25.532  0.00  0.00    +0.071 A 
ATOM     21  C   UNL     1      -1.745   3.761  24.753  0.00  0.00    +0.010 A 
ATOM     22  C   UNL     1      -4.079   4.427  26.096  0.00  0.00    +0.028 A 
ATOM     23  C   UNL     1      -1.870   5.022  25.327  0.00  0.00    +0.001 A 
ATOM     24  C   UNL     1      -3.040   5.355  26.000  0.00  0.00    +0.002 A 
ENDBRANCH  11  13
ENDBRANCH   4  11
TORSDOF 7
ENDMDL
MODEL 9
REMARK VINA RESULT:      -3.3      1.947      4.969
REMARK  Name = 56775535
REMARK  8 active torsions:
REMARK  status: ('A' for Active; 'I' for Inactive)
REMARK    1  A    between atoms: O_3  and  C_19
REMARK    2  A    between atoms: O_3  and  C_25
REMARK    3  A    between atoms: N_4  and  C_7
REMARK    4  A    between atoms: N_4  and  C_11
REMARK    5  A    between atoms: C_7  and  C_10
REMARK    6  A    between atoms: C_10  and  C_12
REMARK    7  A    between atoms: C_11  and  C_13
REMARK    8  A    between atoms: C_15  and  C_19
REMARK                            x       y       z     vdW  Elec       q    Type
REMARK                         _______ _______ _______ _____ _____    ______ ____
ROOT
ATOM      4  N   UNL     1       0.527   1.816  25.635  0.00  0.00    -0.302 NA
ATOM     26  H   UNL     1       0.983   2.546  26.180  0.00  0.00    +0.123 HD
ENDROOT
BRANCH   4   7
ATOM      1  O   UNL     1       0.867   0.472  22.939  0.00  0.00    -0.376 OA
ATOM      7  C   UNL     1       0.366   2.112  24.210  0.00  0.00    +0.072 C 
ATOM      8  C   UNL     1      -0.358   0.946  23.545  0.00  0.00    +0.184 C 
ATOM      9  C   UNL     1       1.594   1.607  23.461  0.00  0.00    +0.184 C 
BRANCH   7  10
ATOM     10  C   UNL     1      -0.119   3.507  23.955  0.00  0.00    +0.085 C 
BRANCH  10  12
ATOM      2  O   UNL     1      -2.843   4.449  26.133  0.00  0.00    -0.357 OA
ATOM      5  N   UNL     1      -1.495   4.404  25.797  0.00  0.00    -0.083 NA
ATOM     12  C   UNL     1      -1.450   3.747  24.634  0.00  0.00    +0.086 A 
ATOM     14  C   UNL     1      -2.726   3.356  24.193  0.00  0.00    +0.073 A 
ATOM     15  C   UNL     1      -3.566   3.822  25.170  0.00  0.00    +0.163 A 
BRANCH  15  19
ATOM     19  C   UNL     1      -5.019   3.776  25.368  0.00  0.00    +0.236 C 
BRANCH  19   3
ATOM      3  O   UNL     1      -5.405   2.518  25.927  0.00  0.00    -0.375 OA
ATOM     25  C   UNL     1      -6.190   1.770  25.014  0.00  0.00    +0.194 C 
ENDBRANCH  19   3
ENDBRANCH  15  19
ENDBRANCH  10  12
ENDBRANCH   7  10
ENDBRANCH   4   7
BRANCH   4  11
ATOM     11  C   UNL     1      -0.786   1.516  26.213  0.00  0.00    +0.118 C 
BRANCH  11  13
ATOM      6  N   UNL     1      -1.097  -2.146  25.388  0.00  0.00    -0.255 NA
ATOM     13  C   UNL     1      -1.349   0.232  25.714  0.00  0.00    -0.015 A 
ATOM     16  C   UNL     1      -2.603   0.178  25.124  0.00  0.00    +0.016 A 
ATOM     17  C   UNL     1      -0.643  -0.948  25.822  0.00  0.00    +0.116 A 
ATOM     18  C   UNL     1      -3.112  -1.043  24.661  0.00  0.00    +0.001 A 
ATOM     20  C   UNL     1      -2.314  -2.196  24.816  0.00  0.00    +0.071 A 
ATOM     21  C   UNL     1      -4.379  -1.132  24.059  0.00  0.00    +0.010 A 
ATOM     22  C   UNL     1      -2.820  -3.408  24.355  0.00  0.00    +0.028 A 
ATOM     23  C   UNL     1      -4.860  -2.357  23.608  0.00  0.00    +0.001 A 
ATOM     24  C   UNL     1      -4.079  -3.497  23.757  0.00  0.00    +0.002 A 
ENDBRANCH  11  13
ENDBRANCH   4  11
TORSDOF 7
ENDMDL
MODEL 10
REMARK VINA RESULT:      -2.8      2.220      6.470
REMARK  Name = 56775535
REMARK  8 active torsions:
REMARK  status: ('A' for Active; 'I' for Inactive)
REMARK    1  A    between atoms: O_3  and  C_19
REMARK    2  A    between atoms: O_3  and  C_25
REMARK    3  A    between atoms: N_4  and  C_7
REMARK    4  A    between atoms: N_4  and  C_11
REMARK    5  A    between atoms: C_7  and  C_10
REMARK    6  A    between atoms: C_10  and  C_12
REMARK    7  A    between atoms: C_11  and  C_13
REMARK    8  A    between atoms: C_15  and  C_19
REMARK                            x       y       z     vdW  Elec       q    Type
REMARK                         _______ _______ _______ _____ _____    ______ ____
ROOT
ATOM      4  N   UNL     1      -3.246   3.630  24.194  0.00  0.00    -0.302 NA
ATOM     26  H   UNL     1      -2.765   3.081  23.483  0.00  0.00    +0.123 HD
ENDROOT
BRANCH   4   7
ATOM      1  O   UNL     1      -3.367   4.993  26.899  0.00  0.00    -0.376 OA
ATOM      7  C   UNL     1      -2.373   4.348  25.123  0.00  0.00    +0.072 C 
ATOM      8  C   UNL     1      -2.611   3.816  26.532  0.00  0.00    +0.184 C 
ATOM      9  C   UNL     1      -3.096   5.597  25.614  0.00  0.00    +0.184 C 
BRANCH   7  10
ATOM     10  C   UNL     1      -0.966   4.472  24.624  0.00  0.00    +0.085 C 
BRANCH  10  12
ATOM      2  O   UNL     1       0.891   1.405  25.062  0.00  0.00    -0.357 OA
ATOM      5  N   UNL     1       0.468   2.658  25.487  0.00  0.00    -0.083 NA
ATOM     12  C   UNL     1      -0.315   3.111  24.503  0.00  0.00    +0.086 A 
ATOM     14  C   UNL     1      -0.421   2.194  23.442  0.00  0.00    +0.073 A 
ATOM     15  C   UNL     1       0.355   1.140  23.843  0.00  0.00    +0.163 A 
BRANCH  15  19
ATOM     19  C   UNL     1       0.702  -0.153  23.242  0.00  0.00    +0.236 C 
BRANCH  19   3
ATOM      3  O   UNL     1       1.575   0.036  22.126  0.00  0.00    -0.375 OA
ATOM     25  C   UNL     1       2.915   0.228  22.549  0.00  0.00    +0.194 C 
ENDBRANCH  19   3
ENDBRANCH  15  19
ENDBRANCH  10  12
ENDBRANCH   7  10
ENDBRANCH   4   7
BRANCH   4  11
ATOM     11  C   UNL     1      -4.150   2.764  24.958  0.00  0.00    +0.118 C 
BRANCH  11  13
ATOM      6  N   UNL     1      -2.135  -0.325  25.721  0.00  0.00    -0.255 NA
ATOM     13  C   UNL     1      -3.707   1.344  24.966  0.00  0.00    -0.015 A 
ATOM     16  C   UNL     1      -4.401   0.370  24.264  0.00  0.00    +0.016 A 
ATOM     17  C   UNL     1      -2.591   0.948  25.673  0.00  0.00    +0.116 A 
ATOM     18  C   UNL     1      -3.965  -0.961  24.287  0.00  0.00    +0.001 A 
ATOM     20  C   UNL     1      -2.811  -1.268  25.039  0.00  0.00    +0.071 A 
ATOM     21  C   UNL     1      -4.646  -1.972  23.587  0.00  0.00    +0.010 A 
ATOM     22  C   UNL     1      -2.378  -2.591  25.060  0.00  0.00    +0.028 A 
ATOM     23  C   UNL     1      -4.190  -3.286  23.626  0.00  0.00    +0.001 A 
ATOM     24  C   UNL     1      -3.054  -3.596  24.365  0.00  0.00    +0.002 A 
ENDBRANCH  11  13
ENDBRANCH   4  11
TORSDOF 7
ENDMDL
