MODEL 1
REMARK VINA RESULT:      -5.5      0.000      0.000
REMARK  Name = 38027418
REMARK  14 active torsions:
REMARK  status: ('A' for Active; 'I' for Inactive)
REMARK    1  A    between atoms: N_3  and  C_14
REMARK    2  A    between atoms: N_4  and  C_19
REMARK    3  A    between atoms: N_5  and  C_27
REMARK    4  A    between atoms: N_6  and  C_28
REMARK    5  A    between atoms: N_6  and  C_29
REMARK    6  A    between atoms: N_6  and  C_30
REMARK    7  A    between atoms: C_7  and  C_11
REMARK    8  A    between atoms: C_8  and  C_14
REMARK    9  A    between atoms: C_10  and  C_15
REMARK   10  A    between atoms: C_11  and  C_16
REMARK   11  A    between atoms: C_11  and  C_17
REMARK   12  A    between atoms: C_12  and  C_18
REMARK   13  A    between atoms: C_15  and  C_20
REMARK   14  A    between atoms: C_27  and  C_28
REMARK                            x       y       z     vdW  Elec       q    Type
REMARK                         _______ _______ _______ _____ _____    ______ ____
ROOT
ATOM      7  C   UNL     1      -3.358  -0.538  25.042  0.00  0.00    +0.000 C 
ATOM      8  C   UNL     1      -2.107   0.134  24.425  0.00  0.00    +0.032 C 
ATOM      9  C   UNL     1      -4.580  -0.333  24.134  0.00  0.00    +0.012 C 
ATOM     10  C   UNL     1      -4.891   1.158  23.905  0.00  0.00    +0.023 C 
ATOM     12  C   UNL     1      -3.645   1.945  23.551  0.00  0.00    -0.073 C 
ATOM     13  C   UNL     1      -2.410   1.466  23.779  0.00  0.00    -0.022 C 
ATOM     18  C   UNL     1      -3.852   3.278  22.888  0.00  0.00    +0.039 C 
ENDROOT
BRANCH   7  11
ATOM     11  C   UNL     1      -3.139  -2.035  25.284  0.00  0.00    -0.013 C 
ATOM     16  C   UNL     1      -3.983  -2.860  24.319  0.00  0.00    +0.007 C 
ATOM     17  C   UNL     1      -1.660  -2.386  25.145  0.00  0.00    +0.007 C 
ENDBRANCH   7  11
BRANCH   8  14
ATOM     14  C   UNL     1      -1.002   0.315  25.473  0.00  0.00    +0.113 C 
BRANCH  14   3
ATOM      2  O   UNL     1       0.588  -0.919  23.420  0.00  0.00    -0.253 OA
ATOM      3  N   UNL     1       0.183   0.845  24.874  0.00  0.00    -0.299 N 
ATOM      4  N   UNL     1       2.014   0.913  23.464  0.00  0.00    -0.297 N 
ATOM     26  C   UNL     1       0.904   0.180  23.874  0.00  0.00    +0.300 C 
ATOM     31  H   UNL     1       0.483   1.780  25.133  0.00  0.00    +0.150 HD
ATOM     32  H   UNL     1       2.223   1.773  23.961  0.00  0.00    +0.151 HD
BRANCH   4  19
ATOM     19  C   UNL     1       2.930   0.457  22.443  0.00  0.00    +0.074 C 
ATOM     21  C   UNL     1       4.227   1.274  22.462  0.00  0.00    +0.022 C 
ATOM     22  C   UNL     1       3.216  -1.041  22.589  0.00  0.00    +0.022 C 
ATOM     23  C   UNL     1       5.100   0.957  23.676  0.00  0.00    +0.002 C 
ATOM     24  C   UNL     1       4.091  -1.355  23.803  0.00  0.00    +0.002 C 
ATOM     25  C   UNL     1       5.380  -0.539  23.793  0.00  0.00    +0.000 C 
ENDBRANCH   4  19
ENDBRANCH  14   3
ENDBRANCH   8  14
BRANCH  10  15
ATOM     15  C   UNL     1      -5.600   1.769  25.119  0.00  0.00    +0.103 C 
BRANCH  15  20
ATOM      1  O   UNL     1      -5.571   4.169  25.420  0.00  0.00    -0.276 OA
ATOM      5  N   UNL     1      -3.708   2.918  26.022  0.00  0.00    -0.314 N 
ATOM     20  C   UNL     1      -4.991   3.093  25.525  0.00  0.00    +0.214 C 
ATOM     33  H   UNL     1      -3.311   1.985  26.070  0.00  0.00    +0.149 HD
BRANCH   5  27
ATOM     27  C   UNL     1      -2.885   4.012  26.485  0.00  0.00    +0.119 C 
BRANCH  27  28
ATOM     28  C   UNL     1      -1.411   3.745  26.217  0.00  0.00    +0.102 C 
BRANCH  28   6
ATOM      6  N   UNL     1      -0.877   4.736  25.292  0.00  0.00    -0.307 NA
ATOM     29  C   UNL     1      -1.904   5.716  24.936  0.00  0.00    +0.104 C 
ATOM     30  C   UNL     1      -0.353   4.090  24.088  0.00  0.00    +0.104 C 
ENDBRANCH  28   6
ENDBRANCH  27  28
ENDBRANCH   5  27
ENDBRANCH  15  20
ENDBRANCH  10  15
TORSDOF 9
ENDMDL
MODEL 2
REMARK VINA RESULT:      -5.4      1.436      3.750
REMARK  Name = 38027418
REMARK  14 active torsions:
REMARK  status: ('A' for Active; 'I' for Inactive)
REMARK    1  A    between atoms: N_3  and  C_14
REMARK    2  A    between atoms: N_4  and  C_19
REMARK    3  A    between atoms: N_5  and  C_27
REMARK    4  A    between atoms: N_6  and  C_28
REMARK    5  A    between atoms: N_6  and  C_29
REMARK    6  A    between atoms: N_6  and  C_30
REMARK    7  A    between atoms: C_7  and  C_11
REMARK    8  A    between atoms: C_8  and  C_14
REMARK    9  A    between atoms: C_10  and  C_15
REMARK   10  A    between atoms: C_11  and  C_16
REMARK   11  A    between atoms: C_11  and  C_17
REMARK   12  A    between atoms: C_12  and  C_18
REMARK   13  A    between atoms: C_15  and  C_20
REMARK   14  A    between atoms: C_27  and  C_28
REMARK                            x       y       z     vdW  Elec       q    Type
REMARK                         _______ _______ _______ _____ _____    ______ ____
ROOT
ATOM      7  C   UNL     1      -2.857   2.236  24.043  0.00  0.00    +0.000 C 
ATOM      8  C   UNL     1      -1.625   2.806  24.788  0.00  0.00    +0.032 C 
ATOM      9  C   UNL     1      -3.916   3.331  23.840  0.00  0.00    +0.012 C 
ATOM     10  C   UNL     1      -4.390   3.935  25.175  0.00  0.00    +0.023 C 
ATOM     12  C   UNL     1      -3.227   4.279  26.082  0.00  0.00    -0.073 C 
ATOM     13  C   UNL     1      -1.996   3.775  25.887  0.00  0.00    -0.022 C 
ATOM     18  C   UNL     1      -3.501   5.251  27.196  0.00  0.00    +0.039 C 
ENDROOT
BRANCH   7  11
ATOM     11  C   UNL     1      -2.472   1.631  22.689  0.00  0.00    -0.013 C 
ATOM     16  C   UNL     1      -3.129   0.266  22.510  0.00  0.00    +0.007 C 
ATOM     17  C   UNL     1      -2.863   2.572  21.554  0.00  0.00    +0.007 C 
ENDBRANCH   7  11
BRANCH   8  14
ATOM     14  C   UNL     1      -0.761   1.682  25.370  0.00  0.00    +0.113 C 
BRANCH  14   3
ATOM      2  O   UNL     1       0.398   0.105  23.264  0.00  0.00    -0.253 OA
ATOM      3  N   UNL     1       0.579   1.765  24.877  0.00  0.00    -0.299 N 
ATOM      4  N   UNL     1       2.401   1.242  23.555  0.00  0.00    -0.297 N 
ATOM     26  C   UNL     1       1.069   0.959  23.842  0.00  0.00    +0.300 C 
ATOM     31  H   UNL     1       1.189   2.489  25.244  0.00  0.00    +0.150 HD
ATOM     32  H   UNL     1       2.882   1.913  24.147  0.00  0.00    +0.151 HD
BRANCH   4  19
ATOM     19  C   UNL     1       3.153   0.554  22.529  0.00  0.00    +0.074 C 
ATOM     21  C   UNL     1       4.593   1.075  22.458  0.00  0.00    +0.022 C 
ATOM     22  C   UNL     1       3.122  -0.962  22.745  0.00  0.00    +0.022 C 
ATOM     23  C   UNL     1       5.434   0.635  23.655  0.00  0.00    +0.002 C 
ATOM     24  C   UNL     1       3.965  -1.399  23.944  0.00  0.00    +0.002 C 
ATOM     25  C   UNL     1       5.396  -0.879  23.844  0.00  0.00    +0.000 C 
ENDBRANCH   4  19
ENDBRANCH  14   3
ENDBRANCH   8  14
BRANCH  10  15
ATOM     15  C   UNL     1      -5.383   3.005  25.882  0.00  0.00    +0.103 C 
BRANCH  15  20
ATOM      1  O   UNL     1      -6.302   1.426  24.296  0.00  0.00    -0.276 OA
ATOM      5  N   UNL     1      -4.578   0.761  25.704  0.00  0.00    -0.314 N 
ATOM     20  C   UNL     1      -5.496   1.665  25.190  0.00  0.00    +0.214 C 
ATOM     33  H   UNL     1      -3.949   1.052  26.446  0.00  0.00    +0.149 HD
BRANCH   5  27
ATOM     27  C   UNL     1      -4.461  -0.600  25.232  0.00  0.00    +0.119 C 
BRANCH  27  28
ATOM     28  C   UNL     1      -3.227  -1.279  25.808  0.00  0.00    +0.102 C 
BRANCH  28   6
ATOM      6  N   UNL     1      -2.958  -2.524  25.100  0.00  0.00    -0.307 NA
ATOM     29  C   UNL     1      -1.636  -2.486  24.473  0.00  0.00    +0.104 C 
ATOM     30  C   UNL     1      -3.989  -2.779  24.093  0.00  0.00    +0.104 C 
ENDBRANCH  28   6
ENDBRANCH  27  28
ENDBRANCH   5  27
ENDBRANCH  15  20
ENDBRANCH  10  15
TORSDOF 9
ENDMDL
MODEL 3
REMARK VINA RESULT:      -3.1      1.653      4.310
REMARK  Name = 38027418
REMARK  14 active torsions:
REMARK  status: ('A' for Active; 'I' for Inactive)
REMARK    1  A    between atoms: N_3  and  C_14
REMARK    2  A    between atoms: N_4  and  C_19
REMARK    3  A    between atoms: N_5  and  C_27
REMARK    4  A    between atoms: N_6  and  C_28
REMARK    5  A    between atoms: N_6  and  C_29
REMARK    6  A    between atoms: N_6  and  C_30
REMARK    7  A    between atoms: C_7  and  C_11
REMARK    8  A    between atoms: C_8  and  C_14
REMARK    9  A    between atoms: C_10  and  C_15
REMARK   10  A    between atoms: C_11  and  C_16
REMARK   11  A    between atoms: C_11  and  C_17
REMARK   12  A    between atoms: C_12  and  C_18
REMARK   13  A    between atoms: C_15  and  C_20
REMARK   14  A    between atoms: C_27  and  C_28
REMARK                            x       y       z     vdW  Elec       q    Type
REMARK                         _______ _______ _______ _____ _____    ______ ____
ROOT
ATOM      7  C   UNL     1      -1.562   3.438  24.490  0.00  0.00    +0.000 C 
ATOM      8  C   UNL     1      -1.732   2.628  25.799  0.00  0.00    +0.032 C 
ATOM      9  C   UNL     1      -2.712   4.444  24.328  0.00  0.00    +0.012 C 
ATOM     10  C   UNL     1      -4.089   3.755  24.300  0.00  0.00    +0.023 C 
ATOM     12  C   UNL     1      -4.232   2.738  25.413  0.00  0.00    -0.073 C 
ATOM     13  C   UNL     1      -3.169   2.255  26.079  0.00  0.00    -0.022 C 
ATOM     18  C   UNL     1      -5.630   2.319  25.772  0.00  0.00    +0.039 C 
ENDROOT
BRANCH   7  11
ATOM     11  C   UNL     1      -0.219   4.175  24.447  0.00  0.00    -0.013 C 
ATOM     16  C   UNL     1       0.298   4.255  23.015  0.00  0.00    +0.007 C 
ATOM     17  C   UNL     1      -0.356   5.569  25.051  0.00  0.00    +0.007 C 
ENDBRANCH   7  11
BRANCH   8  14
ATOM     14  C   UNL     1      -0.869   1.361  25.781  0.00  0.00    +0.113 C 
BRANCH  14   3
ATOM      2  O   UNL     1       0.278  -0.106  23.591  0.00  0.00    -0.253 OA
ATOM      3  N   UNL     1       0.388   1.612  25.148  0.00  0.00    -0.299 N 
ATOM      4  N   UNL     1       2.122   1.303  23.651  0.00  0.00    -0.297 N 
ATOM     26  C   UNL     1       0.878   0.849  24.082  0.00  0.00    +0.300 C 
ATOM     31  H   UNL     1       0.925   2.424  25.437  0.00  0.00    +0.150 HD
ATOM     32  H   UNL     1       2.561   2.052  24.178  0.00  0.00    +0.151 HD
BRANCH   4  19
ATOM     19  C   UNL     1       2.853   0.694  22.563  0.00  0.00    +0.074 C 
ATOM     21  C   UNL     1       4.272   1.266  22.465  0.00  0.00    +0.022 C 
ATOM     22  C   UNL     1       2.879  -0.832  22.702  0.00  0.00    +0.022 C 
ATOM     23  C   UNL     1       5.173   0.794  23.605  0.00  0.00    +0.002 C 
ATOM     24  C   UNL     1       3.782  -1.300  23.843  0.00  0.00    +0.002 C 
ATOM     25  C   UNL     1       5.190  -0.727  23.716  0.00  0.00    +0.000 C 
ENDBRANCH   4  19
ENDBRANCH  14   3
ENDBRANCH   8  14
BRANCH  10  15
ATOM     15  C   UNL     1      -4.359   3.116  22.933  0.00  0.00    +0.103 C 
BRANCH  15  20
ATOM      1  O   UNL     1      -2.478   1.969  21.935  0.00  0.00    -0.276 OA
ATOM      5  N   UNL     1      -3.892   0.813  23.371  0.00  0.00    -0.314 N 
ATOM     20  C   UNL     1      -3.458   1.930  22.672  0.00  0.00    +0.214 C 
ATOM     33  H   UNL     1      -4.718   0.879  23.959  0.00  0.00    +0.149 HD
BRANCH   5  27
ATOM     27  C   UNL     1      -3.222  -0.466  23.310  0.00  0.00    +0.119 C 
BRANCH  27  28
ATOM     28  C   UNL     1      -4.080  -1.567  23.916  0.00  0.00    +0.102 C 
BRANCH  28   6
ATOM      6  N   UNL     1      -3.359  -2.237  24.990  0.00  0.00    -0.307 NA
ATOM     29  C   UNL     1      -3.344  -1.408  26.197  0.00  0.00    +0.104 C 
ATOM     30  C   UNL     1      -1.991  -2.553  24.575  0.00  0.00    +0.104 C 
ENDBRANCH  28   6
ENDBRANCH  27  28
ENDBRANCH   5  27
ENDBRANCH  15  20
ENDBRANCH  10  15
TORSDOF 9
ENDMDL
MODEL 4
REMARK VINA RESULT:      -2.9      1.702      5.816
REMARK  Name = 38027418
REMARK  14 active torsions:
REMARK  status: ('A' for Active; 'I' for Inactive)
REMARK    1  A    between atoms: N_3  and  C_14
REMARK    2  A    between atoms: N_4  and  C_19
REMARK    3  A    between atoms: N_5  and  C_27
REMARK    4  A    between atoms: N_6  and  C_28
REMARK    5  A    between atoms: N_6  and  C_29
REMARK    6  A    between atoms: N_6  and  C_30
REMARK    7  A    between atoms: C_7  and  C_11
REMARK    8  A    between atoms: C_8  and  C_14
REMARK    9  A    between atoms: C_10  and  C_15
REMARK   10  A    between atoms: C_11  and  C_16
REMARK   11  A    between atoms: C_11  and  C_17
REMARK   12  A    between atoms: C_12  and  C_18
REMARK   13  A    between atoms: C_15  and  C_20
REMARK   14  A    between atoms: C_27  and  C_28
REMARK                            x       y       z     vdW  Elec       q    Type
REMARK                         _______ _______ _______ _____ _____    ______ ____
ROOT
ATOM      7  C   UNL     1      -3.700   3.345  25.578  0.00  0.00    +0.000 C 
ATOM      8  C   UNL     1      -3.769   3.814  24.104  0.00  0.00    +0.032 C 
ATOM      9  C   UNL     1      -2.609   4.116  26.336  0.00  0.00    +0.012 C 
ATOM     10  C   UNL     1      -1.218   3.933  25.700  0.00  0.00    +0.023 C 
ATOM     12  C   UNL     1      -1.258   4.119  24.197  0.00  0.00    -0.073 C 
ATOM     13  C   UNL     1      -2.408   4.075  23.503  0.00  0.00    -0.022 C 
ATOM     18  C   UNL     1       0.052   4.401  23.515  0.00  0.00    +0.039 C 
ENDROOT
BRANCH   7  11
ATOM     11  C   UNL     1      -5.045   3.513  26.292  0.00  0.00    -0.013 C 
ATOM     16  C   UNL     1      -5.861   4.622  25.637  0.00  0.00    +0.007 C 
ATOM     17  C   UNL     1      -5.818   2.198  26.288  0.00  0.00    +0.007 C 
ENDBRANCH   7  11
BRANCH   8  14
ATOM     14  C   UNL     1      -4.525   2.802  23.235  0.00  0.00    +0.113 C 
BRANCH  14   3
ATOM      2  O   UNL     1      -4.860   0.428  24.823  0.00  0.00    -0.253 OA
ATOM      3  N   UNL     1      -3.787   1.583  23.118  0.00  0.00    -0.299 N 
ATOM      4  N   UNL     1      -3.159  -0.587  23.612  0.00  0.00    -0.297 N 
ATOM     26  C   UNL     1      -4.011   0.466  23.933  0.00  0.00    +0.300 C 
ATOM     31  H   UNL     1      -3.112   1.493  22.365  0.00  0.00    +0.150 HD
ATOM     32  H   UNL     1      -2.444  -0.420  22.910  0.00  0.00    +0.151 HD
BRANCH   4  19
ATOM     19  C   UNL     1      -3.179  -1.859  24.298  0.00  0.00    +0.074 C 
ATOM     21  C   UNL     1      -1.982  -2.725  23.889  0.00  0.00    +0.022 C 
ATOM     22  C   UNL     1      -3.229  -1.665  25.817  0.00  0.00    +0.022 C 
ATOM     23  C   UNL     1      -0.663  -2.207  24.459  0.00  0.00    +0.002 C 
ATOM     24  C   UNL     1      -1.907  -1.147  26.385  0.00  0.00    +0.002 C 
ATOM     25  C   UNL     1      -0.734  -2.032  25.973  0.00  0.00    +0.000 C 
ENDBRANCH   4  19
ENDBRANCH  14   3
ENDBRANCH   8  14
BRANCH  10  15
ATOM     15  C   UNL     1      -0.615   2.574  26.070  0.00  0.00    +0.103 C 
BRANCH  15  20
ATOM      1  O   UNL     1      -1.224   1.205  24.169  0.00  0.00    -0.276 OA
ATOM      5  N   UNL     1       1.020   1.611  24.616  0.00  0.00    -0.314 N 
ATOM     20  C   UNL     1      -0.343   1.722  24.849  0.00  0.00    +0.214 C 
ATOM     33  H   UNL     1       1.675   2.076  25.236  0.00  0.00    +0.149 HD
BRANCH   5  27
ATOM     27  C   UNL     1       1.573   0.853  23.516  0.00  0.00    +0.119 C 
BRANCH  27  28
ATOM     28  C   UNL     1       2.920   1.413  23.083  0.00  0.00    +0.102 C 
BRANCH  28   6
ATOM      6  N   UNL     1       3.860   0.329  22.829  0.00  0.00    -0.307 NA
ATOM     29  C   UNL     1       3.312  -0.948  23.289  0.00  0.00    +0.104 C 
ATOM     30  C   UNL     1       5.143   0.595  23.482  0.00  0.00    +0.104 C 
ENDBRANCH  28   6
ENDBRANCH  27  28
ENDBRANCH   5  27
ENDBRANCH  15  20
ENDBRANCH  10  15
TORSDOF 9
ENDMDL
MODEL 5
REMARK VINA RESULT:      -2.9      1.760      6.541
REMARK  Name = 38027418
REMARK  14 active torsions:
REMARK  status: ('A' for Active; 'I' for Inactive)
REMARK    1  A    between atoms: N_3  and  C_14
REMARK    2  A    between atoms: N_4  and  C_19
REMARK    3  A    between atoms: N_5  and  C_27
REMARK    4  A    between atoms: N_6  and  C_28
REMARK    5  A    between atoms: N_6  and  C_29
REMARK    6  A    between atoms: N_6  and  C_30
REMARK    7  A    between atoms: C_7  and  C_11
REMARK    8  A    between atoms: C_8  and  C_14
REMARK    9  A    between atoms: C_10  and  C_15
REMARK   10  A    between atoms: C_11  and  C_16
REMARK   11  A    between atoms: C_11  and  C_17
REMARK   12  A    between atoms: C_12  and  C_18
REMARK   13  A    between atoms: C_15  and  C_20
REMARK   14  A    between atoms: C_27  and  C_28
REMARK                            x       y       z     vdW  Elec       q    Type
REMARK                         _______ _______ _______ _____ _____    ______ ____
ROOT
ATOM      7  C   UNL     1      -2.194   3.224  24.939  0.00  0.00    +0.000 C 
ATOM      8  C   UNL     1      -3.436   3.241  24.014  0.00  0.00    +0.032 C 
ATOM      9  C   UNL     1      -0.907   3.360  24.110  0.00  0.00    +0.012 C 
ATOM     10  C   UNL     1      -0.759   2.231  23.074  0.00  0.00    +0.023 C 
ATOM     12  C   UNL     1      -2.042   2.007  22.299  0.00  0.00    -0.073 C 
ATOM     13  C   UNL     1      -3.226   2.476  22.728  0.00  0.00    -0.022 C 
ATOM     18  C   UNL     1      -1.925   1.268  20.995  0.00  0.00    +0.039 C 
ENDROOT
BRANCH   7  11
ATOM     11  C   UNL     1      -2.253   4.335  25.992  0.00  0.00    -0.013 C 
ATOM     16  C   UNL     1      -2.003   5.694  25.346  0.00  0.00    +0.007 C 
ATOM     17  C   UNL     1      -3.599   4.317  26.710  0.00  0.00    +0.007 C 
ENDBRANCH   7  11
BRANCH   8  14
ATOM     14  C   UNL     1      -4.672   2.693  24.738  0.00  0.00    +0.113 C 
BRANCH  14   3
ATOM      2  O   UNL     1      -3.352   0.545  26.121  0.00  0.00    -0.253 OA
ATOM      3  N   UNL     1      -4.825   1.293  24.490  0.00  0.00    -0.299 N 
ATOM      4  N   UNL     1      -4.473  -0.975  24.771  0.00  0.00    -0.297 N 
ATOM     26  C   UNL     1      -4.144   0.304  25.211  0.00  0.00    +0.300 C 
ATOM     31  H   UNL     1      -5.512   0.992  23.805  0.00  0.00    +0.150 HD
ATOM     32  H   UNL     1      -5.080  -1.055  23.961  0.00  0.00    +0.151 HD
BRANCH   4  19
ATOM     19  C   UNL     1      -3.912  -2.177  25.344  0.00  0.00    +0.074 C 
ATOM     21  C   UNL     1      -3.194  -3.013  24.278  0.00  0.00    +0.022 C 
ATOM     22  C   UNL     1      -2.977  -1.847  26.513  0.00  0.00    +0.022 C 
ATOM     23  C   UNL     1      -1.883  -2.376  23.821  0.00  0.00    +0.002 C 
ATOM     24  C   UNL     1      -1.666  -1.210  26.051  0.00  0.00    +0.002 C 
ATOM     25  C   UNL     1      -0.966  -2.066  25.000  0.00  0.00    +0.000 C 
ENDBRANCH   4  19
ENDBRANCH  14   3
ENDBRANCH   8  14
BRANCH  10  15
ATOM     15  C   UNL     1      -0.282   0.933  23.734  0.00  0.00    +0.103 C 
BRANCH  15  20
ATOM      1  O   UNL     1       0.568  -0.719  22.183  0.00  0.00    -0.276 OA
ATOM      5  N   UNL     1       2.025   0.832  23.116  0.00  0.00    -0.314 N 
ATOM     20  C   UNL     1       0.786   0.240  22.917  0.00  0.00    +0.214 C 
ATOM     33  H   UNL     1       2.107   1.624  23.745  0.00  0.00    +0.149 HD
BRANCH   5  27
ATOM     27  C   UNL     1       3.231   0.376  22.464  0.00  0.00    +0.119 C 
BRANCH  27  28
ATOM     28  C   UNL     1       4.472   0.920  23.156  0.00  0.00    +0.102 C 
BRANCH  28   6
ATOM      6  N   UNL     1       5.165  -0.147  23.866  0.00  0.00    -0.307 NA
ATOM     29  C   UNL     1       6.515  -0.330  23.331  0.00  0.00    +0.104 C 
ATOM     30  C   UNL     1       4.412  -1.399  23.780  0.00  0.00    +0.104 C 
ENDBRANCH  28   6
ENDBRANCH  27  28
ENDBRANCH   5  27
ENDBRANCH  15  20
ENDBRANCH  10  15
TORSDOF 9
ENDMDL
MODEL 6
REMARK VINA RESULT:      -2.8      1.685      6.391
REMARK  Name = 38027418
REMARK  14 active torsions:
REMARK  status: ('A' for Active; 'I' for Inactive)
REMARK    1  A    between atoms: N_3  and  C_14
REMARK    2  A    between atoms: N_4  and  C_19
REMARK    3  A    between atoms: N_5  and  C_27
REMARK    4  A    between atoms: N_6  and  C_28
REMARK    5  A    between atoms: N_6  and  C_29
REMARK    6  A    between atoms: N_6  and  C_30
REMARK    7  A    between atoms: C_7  and  C_11
REMARK    8  A    between atoms: C_8  and  C_14
REMARK    9  A    between atoms: C_10  and  C_15
REMARK   10  A    between atoms: C_11  and  C_16
REMARK   11  A    between atoms: C_11  and  C_17
REMARK   12  A    between atoms: C_12  and  C_18
REMARK   13  A    between atoms: C_15  and  C_20
REMARK   14  A    between atoms: C_27  and  C_28
REMARK                            x       y       z     vdW  Elec       q    Type
REMARK                         _______ _______ _______ _____ _____    ______ ____
ROOT
ATOM      7  C   UNL     1      -2.304  -1.873  24.381  0.00  0.00    +0.000 C 
ATOM      8  C   UNL     1      -2.889  -1.257  25.676  0.00  0.00    +0.032 C 
ATOM      9  C   UNL     1      -0.770  -1.917  24.454  0.00  0.00    +0.012 C 
ATOM     10  C   UNL     1      -0.156  -0.518  24.649  0.00  0.00    +0.023 C 
ATOM     12  C   UNL     1      -0.863   0.260  25.740  0.00  0.00    -0.073 C 
ATOM     13  C   UNL     1      -2.078  -0.093  26.195  0.00  0.00    -0.022 C 
ATOM     18  C   UNL     1      -0.122   1.428  26.328  0.00  0.00    +0.039 C 
ENDROOT
BRANCH   7  11
ATOM     11  C   UNL     1      -2.851  -3.281  24.124  0.00  0.00    -0.013 C 
ATOM     16  C   UNL     1      -4.278  -3.208  23.592  0.00  0.00    +0.007 C 
ATOM     17  C   UNL     1      -1.948  -4.033  23.150  0.00  0.00    +0.007 C 
ENDBRANCH   7  11
BRANCH   8  14
ATOM     14  C   UNL     1      -4.343  -0.815  25.471  0.00  0.00    +0.113 C 
BRANCH  14   3
ATOM      2  O   UNL     1      -3.441   1.084  23.510  0.00  0.00    -0.253 OA
ATOM      3  N   UNL     1      -4.455   0.608  25.544  0.00  0.00    -0.299 N 
ATOM      4  N   UNL     1      -4.222   2.804  24.859  0.00  0.00    -0.297 N 
ATOM     26  C   UNL     1      -3.989   1.469  24.542  0.00  0.00    +0.300 C 
ATOM     31  H   UNL     1      -4.957   1.018  26.325  0.00  0.00    +0.150 HD
ATOM     32  H   UNL     1      -4.613   3.013  25.773  0.00  0.00    +0.151 HD
BRANCH   4  19
ATOM     19  C   UNL     1      -3.841   3.900  23.997  0.00  0.00    +0.074 C 
ATOM     21  C   UNL     1      -3.692   5.201  24.794  0.00  0.00    +0.022 C 
ATOM     22  C   UNL     1      -2.558   3.574  23.225  0.00  0.00    +0.022 C 
ATOM     23  C   UNL     1      -2.452   5.203  25.686  0.00  0.00    +0.002 C 
ATOM     24  C   UNL     1      -1.319   3.577  24.120  0.00  0.00    +0.002 C 
ATOM     25  C   UNL     1      -1.188   4.886  24.893  0.00  0.00    +0.000 C 
ENDBRANCH   4  19
ENDBRANCH  14   3
ENDBRANCH   8  14
BRANCH  10  15
ATOM     15  C   UNL     1      -0.144   0.269  23.333  0.00  0.00    +0.103 C 
BRANCH  15  20
ATOM      1  O   UNL     1       1.051  -0.719  21.476  0.00  0.00    -0.276 OA
ATOM      5  N   UNL     1       2.213   0.540  23.045  0.00  0.00    -0.314 N 
ATOM     20  C   UNL     1       1.079  -0.040  22.498  0.00  0.00    +0.214 C 
ATOM     33  H   UNL     1       2.137   1.086  23.897  0.00  0.00    +0.149 HD
BRANCH   5  27
ATOM     27  C   UNL     1       3.528   0.409  22.458  0.00  0.00    +0.119 C 
BRANCH  27  28
ATOM     28  C   UNL     1       4.608   0.905  23.408  0.00  0.00    +0.102 C 
BRANCH  28   6
ATOM      6  N   UNL     1       5.413  -0.211  23.887  0.00  0.00    -0.307 NA
ATOM     29  C   UNL     1       6.608  -0.378  23.059  0.00  0.00    +0.104 C 
ATOM     30  C   UNL     1       4.627  -1.447  23.898  0.00  0.00    +0.104 C 
ENDBRANCH  28   6
ENDBRANCH  27  28
ENDBRANCH   5  27
ENDBRANCH  15  20
ENDBRANCH  10  15
TORSDOF 9
ENDMDL
