MODEL 1
REMARK VINA RESULT:       4.0      0.000      0.000
REMARK  Name = 45783285
REMARK  6 active torsions:
REMARK  status: ('A' for Active; 'I' for Inactive)
REMARK    1  A    between atoms: O_3  and  C_32
REMARK    2  A    between atoms: N_5  and  C_14
REMARK    3  A    between atoms: C_10  and  C_15
REMARK    4  A    between atoms: C_14  and  C_16
REMARK    5  A    between atoms: C_17  and  C_22
REMARK    6  A    between atoms: C_29  and  C_32
REMARK                            x       y       z     vdW  Elec       q    Type
REMARK                         _______ _______ _______ _____ _____    ______ ____
ROOT
ATOM      1  O   UNL     1       1.253  -1.755  24.640  0.00  0.00    -0.336 OA
ATOM      6  N   UNL     1      -0.096  -0.490  23.378  0.00  0.00    -0.190 NA
ATOM      8  N   UNL     1      -0.051  -2.018  25.079  0.00  0.00    -0.056 NA
ATOM     15  C   UNL     1       1.136  -0.846  23.638  0.00  0.00    +0.245 A 
ATOM     17  C   UNL     1      -0.789  -1.235  24.287  0.00  0.00    +0.202 A 
ENDROOT
BRANCH  17  22
ATOM      2  O   UNL     1      -6.293   3.598  25.611  0.00  0.00    -0.377 OA
ATOM      7  N   UNL     1      -4.848   1.238  25.117  0.00  0.00    -0.311 N 
ATOM      9  N   UNL     1      -5.006  -1.055  24.556  0.00  0.00    -0.240 NA
ATOM     20  C   UNL     1      -4.660   2.416  24.261  0.00  0.00    +0.134 C 
ATOM     21  C   UNL     1      -6.126   1.189  25.841  0.00  0.00    +0.134 C 
ATOM     22  C   UNL     1      -2.219  -1.175  24.379  0.00  0.00    +0.027 A 
ATOM     23  C   UNL     1      -4.231   0.029  24.783  0.00  0.00    +0.122 A 
ATOM     24  C   UNL     1      -4.985   3.681  25.047  0.00  0.00    +0.178 C 
ATOM     25  C   UNL     1      -6.372   2.520  26.542  0.00  0.00    +0.178 C 
ATOM     26  C   UNL     1      -2.847   0.021  24.708  0.00  0.00    +0.055 A 
ATOM     30  C   UNL     1      -2.983  -2.311  24.139  0.00  0.00    +0.031 A 
ATOM     31  C   UNL     1      -4.361  -2.200  24.240  0.00  0.00    +0.113 A 
ENDBRANCH  17  22
BRANCH  15  10
ATOM      5  N   UNL     1       2.932   0.876  23.553  0.00  0.00    -0.287 NA
ATOM     10  C   UNL     1       2.425  -0.390  22.985  0.00  0.00    +0.146 C 
ATOM     11  C   UNL     1       3.576  -1.393  23.177  0.00  0.00    +0.030 C 
ATOM     12  C   UNL     1       4.706  -0.587  23.801  0.00  0.00    +0.017 C 
ATOM     13  C   UNL     1       4.387   0.840  23.407  0.00  0.00    +0.085 C 
BRANCH   5  14
ATOM     14  C   UNL     1       2.346   2.058  22.933  0.00  0.00    +0.120 C 
BRANCH  14  16
ATOM     16  C   UNL     1       1.205   2.610  23.743  0.00  0.00    -0.033 A 
ATOM     18  C   UNL     1       0.835   1.992  24.937  0.00  0.00    +0.006 A 
ATOM     19  C   UNL     1       0.518   3.740  23.300  0.00  0.00    +0.006 A 
ATOM     27  C   UNL     1      -0.223   2.505  25.689  0.00  0.00    +0.015 A 
ATOM     28  C   UNL     1      -0.541   4.252  24.051  0.00  0.00    +0.015 A 
ATOM     29  C   UNL     1      -0.911   3.634  25.246  0.00  0.00    +0.059 A 
BRANCH  29  32
ATOM      4  O   UNL     1      -2.628   3.559  26.911  0.00  0.00    -0.245 OA
ATOM     32  C   UNL     1      -2.013   4.169  26.029  0.00  0.00    +0.337 C 
BRANCH  32   3
ATOM      3  O   UNL     1      -2.318   5.452  25.692  0.00  0.00    -0.477 OA
ATOM     33  H   UNL     1      -3.018   5.825  26.268  0.00  0.00    +0.295 HD
ENDBRANCH  32   3
ENDBRANCH  29  32
ENDBRANCH  14  16
ENDBRANCH   5  14
ENDBRANCH  15  10
TORSDOF 6
ENDMDL
MODEL 2
REMARK VINA RESULT:       4.4      2.234      7.908
REMARK  Name = 45783285
REMARK  6 active torsions:
REMARK  status: ('A' for Active; 'I' for Inactive)
REMARK    1  A    between atoms: O_3  and  C_32
REMARK    2  A    between atoms: N_5  and  C_14
REMARK    3  A    between atoms: C_10  and  C_15
REMARK    4  A    between atoms: C_14  and  C_16
REMARK    5  A    between atoms: C_17  and  C_22
REMARK    6  A    between atoms: C_29  and  C_32
REMARK                            x       y       z     vdW  Elec       q    Type
REMARK                         _______ _______ _______ _____ _____    ______ ____
ROOT
ATOM      1  O   UNL     1      -1.442   2.200  25.785  0.00  0.00    -0.336 OA
ATOM      6  N   UNL     1      -1.390   2.280  23.548  0.00  0.00    -0.190 NA
ATOM      8  N   UNL     1      -0.390   1.363  25.390  0.00  0.00    -0.056 NA
ATOM     15  C   UNL     1      -1.976   2.699  24.640  0.00  0.00    +0.245 A 
ATOM     17  C   UNL     1      -0.423   1.463  24.057  0.00  0.00    +0.202 A 
ENDROOT
BRANCH  17  22
ATOM      2  O   UNL     1       6.717  -0.614  23.738  0.00  0.00    -0.377 OA
ATOM      7  N   UNL     1       4.022  -0.148  23.093  0.00  0.00    -0.311 N 
ATOM      9  N   UNL     1       2.284  -0.613  21.556  0.00  0.00    -0.240 NA
ATOM     20  C   UNL     1       4.379  -0.810  24.354  0.00  0.00    +0.134 C 
ATOM     21  C   UNL     1       5.035  -0.235  22.032  0.00  0.00    +0.134 C 
ATOM     22  C   UNL     1       0.495   0.759  23.208  0.00  0.00    +0.027 A 
ATOM     23  C   UNL     1       2.679  -0.044  22.717  0.00  0.00    +0.122 A 
ATOM     24  C   UNL     1       5.776  -0.378  24.784  0.00  0.00    +0.178 C 
ATOM     25  C   UNL     1       6.397   0.167  22.588  0.00  0.00    +0.178 C 
ATOM     26  C   UNL     1       1.832   0.646  23.570  0.00  0.00    +0.055 A 
ATOM     30  C   UNL     1       0.050   0.188  22.022  0.00  0.00    +0.031 A 
ATOM     31  C   UNL     1       0.977  -0.482  21.238  0.00  0.00    +0.113 A 
ENDBRANCH  17  22
BRANCH  15  10
ATOM      5  N   UNL     1      -4.160   3.145  25.749  0.00  0.00    -0.287 NA
ATOM     10  C   UNL     1      -3.147   3.646  24.798  0.00  0.00    +0.146 C 
ATOM     11  C   UNL     1      -2.731   5.019  25.357  0.00  0.00    +0.030 C 
ATOM     12  C   UNL     1      -3.605   5.229  26.586  0.00  0.00    +0.017 C 
ATOM     13  C   UNL     1      -4.794   4.325  26.337  0.00  0.00    +0.085 C 
BRANCH   5  14
ATOM     14  C   UNL     1      -5.130   2.248  25.134  0.00  0.00    +0.120 C 
BRANCH  14  16
ATOM     16  C   UNL     1      -4.563   0.871  24.916  0.00  0.00    -0.033 A 
ATOM     18  C   UNL     1      -4.403   0.380  23.621  0.00  0.00    +0.006 A 
ATOM     19  C   UNL     1      -4.197   0.086  26.009  0.00  0.00    +0.006 A 
ATOM     27  C   UNL     1      -3.876  -0.895  23.418  0.00  0.00    +0.015 A 
ATOM     28  C   UNL     1      -3.671  -1.190  25.807  0.00  0.00    +0.015 A 
ATOM     29  C   UNL     1      -3.511  -1.681  24.511  0.00  0.00    +0.059 A 
BRANCH  29  32
ATOM      4  O   UNL     1      -3.623  -4.042  24.141  0.00  0.00    -0.245 OA
ATOM     32  C   UNL     1      -2.961  -3.010  24.301  0.00  0.00    +0.337 C 
BRANCH  32   3
ATOM      3  O   UNL     1      -1.600  -3.017  24.294  0.00  0.00    -0.477 OA
ATOM     33  H   UNL     1      -1.241  -3.526  23.536  0.00  0.00    +0.295 HD
ENDBRANCH  32   3
ENDBRANCH  29  32
ENDBRANCH  14  16
ENDBRANCH   5  14
ENDBRANCH  15  10
TORSDOF 6
ENDMDL
MODEL 3
REMARK VINA RESULT:       7.0      2.040      7.275
REMARK  Name = 45783285
REMARK  6 active torsions:
REMARK  status: ('A' for Active; 'I' for Inactive)
REMARK    1  A    between atoms: O_3  and  C_32
REMARK    2  A    between atoms: N_5  and  C_14
REMARK    3  A    between atoms: C_10  and  C_15
REMARK    4  A    between atoms: C_14  and  C_16
REMARK    5  A    between atoms: C_17  and  C_22
REMARK    6  A    between atoms: C_29  and  C_32
REMARK                            x       y       z     vdW  Elec       q    Type
REMARK                         _______ _______ _______ _____ _____    ______ ____
ROOT
ATOM      1  O   UNL     1      -1.636  -0.356  25.767  0.00  0.00    -0.336 OA
ATOM      6  N   UNL     1      -1.471  -1.160  23.683  0.00  0.00    -0.190 NA
ATOM      8  N   UNL     1      -0.372   0.027  25.301  0.00  0.00    -0.056 NA
ATOM     15  C   UNL     1      -2.216  -1.050  24.754  0.00  0.00    +0.245 A 
ATOM     17  C   UNL     1      -0.350  -0.483  24.065  0.00  0.00    +0.202 A 
ENDROOT
BRANCH  17  22
ATOM      2  O   UNL     1       7.093  -0.476  24.181  0.00  0.00    -0.377 OA
ATOM      7  N   UNL     1       4.417  -0.266  23.348  0.00  0.00    -0.311 N 
ATOM      9  N   UNL     1       2.974  -0.049  21.486  0.00  0.00    -0.240 NA
ATOM     20  C   UNL     1       4.880  -1.464  24.058  0.00  0.00    +0.134 C 
ATOM     21  C   UNL     1       5.469   0.507  22.671  0.00  0.00    +0.134 C 
ATOM     22  C   UNL     1       0.777  -0.335  23.190  0.00  0.00    +0.027 A 
ATOM     23  C   UNL     1       3.124  -0.227  22.817  0.00  0.00    +0.122 A 
ATOM     24  C   UNL     1       6.068  -1.109  24.946  0.00  0.00    +0.178 C 
ATOM     25  C   UNL     1       6.624   0.756  23.635  0.00  0.00    +0.178 C 
ATOM     26  C   UNL     1       2.069  -0.373  23.703  0.00  0.00    +0.055 A 
ATOM     30  C   UNL     1       0.583  -0.153  21.826  0.00  0.00    +0.031 A 
ATOM     31  C   UNL     1       1.704  -0.016  21.023  0.00  0.00    +0.113 A 
ENDBRANCH  17  22
BRANCH  15  10
ATOM      5  N   UNL     1      -4.618  -0.996  24.104  0.00  0.00    -0.287 NA
ATOM     10  C   UNL     1      -3.611  -1.582  25.011  0.00  0.00    +0.146 C 
ATOM     11  C   UNL     1      -3.719  -3.101  24.786  0.00  0.00    +0.030 C 
ATOM     12  C   UNL     1      -4.852  -3.276  23.785  0.00  0.00    +0.017 C 
ATOM     13  C   UNL     1      -5.664  -2.006  23.941  0.00  0.00    +0.085 C 
BRANCH   5  14
ATOM     14  C   UNL     1      -5.151   0.274  24.582  0.00  0.00    +0.120 C 
BRANCH  14  16
ATOM     16  C   UNL     1      -4.105   1.355  24.587  0.00  0.00    -0.033 A 
ATOM     18  C   UNL     1      -3.312   1.563  23.459  0.00  0.00    +0.006 A 
ATOM     19  C   UNL     1      -3.930   2.151  25.719  0.00  0.00    +0.006 A 
ATOM     27  C   UNL     1      -2.343   2.567  23.462  0.00  0.00    +0.015 A 
ATOM     28  C   UNL     1      -2.960   3.154  25.723  0.00  0.00    +0.015 A 
ATOM     29  C   UNL     1      -2.167   3.362  24.595  0.00  0.00    +0.059 A 
BRANCH  29  32
ATOM      4  O   UNL     1      -1.291   5.531  25.097  0.00  0.00    -0.245 OA
ATOM     32  C   UNL     1      -1.157   4.408  24.599  0.00  0.00    +0.337 C 
BRANCH  32   3
ATOM      3  O   UNL     1      -0.005   4.024  23.983  0.00  0.00    -0.477 OA
ATOM     33  H   UNL     1      -0.167   3.713  23.068  0.00  0.00    +0.295 HD
ENDBRANCH  32   3
ENDBRANCH  29  32
ENDBRANCH  14  16
ENDBRANCH   5  14
ENDBRANCH  15  10
TORSDOF 6
ENDMDL
