MODEL 1
REMARK VINA RESULT:       4.2      0.000      0.000
REMARK  Name = 38026931
REMARK  12 active torsions:
REMARK  status: ('A' for Active; 'I' for Inactive)
REMARK    1  A    between atoms: O_4  and  C_33
REMARK    2  A    between atoms: O_4  and  C_34
REMARK    3  A    between atoms: N_5  and  C_16
REMARK    4  A    between atoms: C_8  and  C_12
REMARK    5  A    between atoms: C_9  and  C_16
REMARK    6  A    between atoms: C_11  and  C_15
REMARK    7  A    between atoms: C_12  and  C_17
REMARK    8  A    between atoms: C_12  and  C_18
REMARK    9  A    between atoms: C_13  and  C_19
REMARK   10  A    between atoms: C_15  and  C_20
REMARK   11  A    between atoms: C_25  and  C_27
REMARK   12  A    between atoms: C_26  and  C_28
REMARK                            x       y       z     vdW  Elec       q    Type
REMARK                         _______ _______ _______ _____ _____    ______ ____
ROOT
ATOM      8  C   UNL     1      -1.590  -0.179  25.167  0.00  0.00    +0.000 C 
ATOM      9  C   UNL     1      -0.994  -1.434  24.481  0.00  0.00    +0.032 C 
ATOM     10  C   UNL     1      -2.669  -0.585  26.182  0.00  0.00    +0.012 C 
ATOM     11  C   UNL     1      -3.818  -1.375  25.526  0.00  0.00    +0.023 C 
ATOM     13  C   UNL     1      -3.301  -2.470  24.615  0.00  0.00    -0.073 C 
ATOM     14  C   UNL     1      -2.032  -2.487  24.169  0.00  0.00    -0.022 C 
ATOM     19  C   UNL     1      -4.263  -3.570  24.265  0.00  0.00    +0.039 C 
ENDROOT
BRANCH   8  12
ATOM     12  C   UNL     1      -0.510   0.655  25.863  0.00  0.00    -0.013 C 
ATOM     17  C   UNL     1       0.131   1.625  24.876  0.00  0.00    +0.007 C 
ATOM     18  C   UNL     1      -1.102   1.406  27.052  0.00  0.00    +0.007 C 
ENDBRANCH   8  12
BRANCH  11  15
ATOM     15  C   UNL     1      -4.773  -0.441  24.774  0.00  0.00    +0.103 C 
BRANCH  15  20
ATOM      1  O   UNL     1      -3.608  -0.194  22.724  0.00  0.00    -0.276 OA
ATOM      3  O   UNL     1      -2.702   5.936  26.286  0.00  0.00    -0.276 OA
ATOM      6  N   UNL     1      -3.792   1.705  24.047  0.00  0.00    -0.298 N 
ATOM      7  N   UNL     1      -2.461   4.020  24.996  0.00  0.00    -0.299 N 
ATOM     20  C   UNL     1      -4.007   0.361  23.752  0.00  0.00    +0.216 C 
ATOM     21  C   UNL     1      -3.053   2.553  23.108  0.00  0.00    +0.126 C 
ATOM     22  C   UNL     1      -4.316   2.413  25.224  0.00  0.00    +0.126 C 
ATOM     23  C   UNL     1      -1.938   3.313  23.819  0.00  0.00    +0.126 C 
ATOM     24  C   UNL     1      -3.200   3.173  25.936  0.00  0.00    +0.126 C 
ATOM     26  C   UNL     1      -2.250   5.366  25.290  0.00  0.00    +0.213 C 
ATOM     28  C   UNL     1      -1.414   6.148  24.307  0.00  0.00    +0.109 C 
ENDBRANCH  15  20
ENDBRANCH  11  15
BRANCH   9  16
ATOM     16  C   UNL     1      -0.245  -1.060  23.197  0.00  0.00    +0.112 C 
BRANCH  16   5
ATOM      2  O   UNL     1       1.753  -0.231  21.310  0.00  0.00    -0.270 OA
ATOM      5  N   UNL     1       1.143  -0.846  23.463  0.00  0.00    -0.311 N 
ATOM     25  C   UNL     1       2.049  -0.442  22.484  0.00  0.00    +0.244 C 
ATOM     35  H   UNL     1       1.444  -0.910  24.429  0.00  0.00    +0.149 HD
BRANCH  25  27
ATOM     27  C   UNL     1       3.463  -0.289  22.914  0.00  0.00    +0.037 A 
ATOM     29  C   UNL     1       4.123   0.924  22.720  0.00  0.00    +0.016 A 
ATOM     30  C   UNL     1       4.129  -1.359  23.512  0.00  0.00    +0.016 A 
ATOM     31  C   UNL     1       5.451   1.067  23.122  0.00  0.00    +0.046 A 
ATOM     32  C   UNL     1       5.457  -1.216  23.915  0.00  0.00    +0.046 A 
ATOM     33  C   UNL     1       6.118  -0.003  23.719  0.00  0.00    +0.120 A 
BRANCH  33   4
ATOM      4  O   UNL     1       7.414   0.136  24.113  0.00  0.00    -0.495 OA
ATOM     34  C   UNL     1       8.421  -0.203  23.162  0.00  0.00    +0.277 C 
ENDBRANCH  33   4
ENDBRANCH  25  27
ENDBRANCH  16   5
ENDBRANCH   9  16
TORSDOF 7
ENDMDL
MODEL 2
REMARK VINA RESULT:       4.8      1.716      4.678
REMARK  Name = 38026931
REMARK  12 active torsions:
REMARK  status: ('A' for Active; 'I' for Inactive)
REMARK    1  A    between atoms: O_4  and  C_33
REMARK    2  A    between atoms: O_4  and  C_34
REMARK    3  A    between atoms: N_5  and  C_16
REMARK    4  A    between atoms: C_8  and  C_12
REMARK    5  A    between atoms: C_9  and  C_16
REMARK    6  A    between atoms: C_11  and  C_15
REMARK    7  A    between atoms: C_12  and  C_17
REMARK    8  A    between atoms: C_12  and  C_18
REMARK    9  A    between atoms: C_13  and  C_19
REMARK   10  A    between atoms: C_15  and  C_20
REMARK   11  A    between atoms: C_25  and  C_27
REMARK   12  A    between atoms: C_26  and  C_28
REMARK                            x       y       z     vdW  Elec       q    Type
REMARK                         _______ _______ _______ _____ _____    ______ ____
ROOT
ATOM      8  C   UNL     1      -2.548   2.753  23.499  0.00  0.00    +0.000 C 
ATOM      9  C   UNL     1      -1.061   2.468  23.832  0.00  0.00    +0.032 C 
ATOM     10  C   UNL     1      -3.035   4.002  24.249  0.00  0.00    +0.012 C 
ATOM     11  C   UNL     1      -2.896   3.856  25.776  0.00  0.00    +0.023 C 
ATOM     13  C   UNL     1      -1.534   3.319  26.169  0.00  0.00    -0.073 C 
ATOM     14  C   UNL     1      -0.722   2.714  25.283  0.00  0.00    -0.022 C 
ATOM     19  C   UNL     1      -1.106   3.535  27.594  0.00  0.00    +0.039 C 
ENDROOT
BRANCH   8  12
ATOM     12  C   UNL     1      -2.769   2.932  21.994  0.00  0.00    -0.013 C 
ATOM     17  C   UNL     1      -2.569   1.607  21.266  0.00  0.00    +0.007 C 
ATOM     18  C   UNL     1      -4.163   3.491  21.725  0.00  0.00    +0.007 C 
ENDBRANCH   8  12
BRANCH  11  15
ATOM     15  C   UNL     1      -4.016   2.983  26.353  0.00  0.00    +0.103 C 
BRANCH  15  20
ATOM      1  O   UNL     1      -5.666   2.566  24.703  0.00  0.00    -0.276 OA
ATOM      3  O   UNL     1      -1.732  -3.386  25.140  0.00  0.00    -0.276 OA
ATOM      6  N   UNL     1      -4.003   0.963  24.934  0.00  0.00    -0.298 N 
ATOM      7  N   UNL     1      -3.431  -1.813  24.957  0.00  0.00    -0.299 N 
ATOM     20  C   UNL     1      -4.640   2.159  25.255  0.00  0.00    +0.216 C 
ATOM     21  C   UNL     1      -4.548   0.101  23.881  0.00  0.00    +0.126 C 
ATOM     22  C   UNL     1      -2.742   0.486  25.519  0.00  0.00    +0.126 C 
ATOM     23  C   UNL     1      -4.692  -1.336  24.371  0.00  0.00    +0.126 C 
ATOM     24  C   UNL     1      -2.886  -0.952  26.010  0.00  0.00    +0.126 C 
ATOM     26  C   UNL     1      -2.792  -3.008  24.634  0.00  0.00    +0.213 C 
ATOM     28  C   UNL     1      -3.460  -3.872  23.593  0.00  0.00    +0.109 C 
ENDBRANCH  15  20
ENDBRANCH  11  15
BRANCH   9  16
ATOM     16  C   UNL     1      -0.675   1.034  23.453  0.00  0.00    +0.112 C 
BRANCH  16   5
ATOM      2  O   UNL     1       1.077  -0.375  21.668  0.00  0.00    -0.270 OA
ATOM      5  N   UNL     1       0.729   0.825  23.623  0.00  0.00    -0.311 N 
ATOM     25  C   UNL     1       1.508   0.125  22.703  0.00  0.00    +0.244 C 
ATOM     35  H   UNL     1       1.174   1.289  24.408  0.00  0.00    +0.149 HD
BRANCH  25  27
ATOM     27  C   UNL     1       2.948  -0.027  23.037  0.00  0.00    +0.037 A 
ATOM     29  C   UNL     1       3.425  -1.242  23.529  0.00  0.00    +0.016 A 
ATOM     30  C   UNL     1       3.822   1.046  22.861  0.00  0.00    +0.016 A 
ATOM     31  C   UNL     1       4.776  -1.385  23.845  0.00  0.00    +0.046 A 
ATOM     32  C   UNL     1       5.173   0.904  23.176  0.00  0.00    +0.046 A 
ATOM     33  C   UNL     1       5.650  -0.311  23.669  0.00  0.00    +0.120 A 
BRANCH  33   4
ATOM      4  O   UNL     1       6.969  -0.450  23.976  0.00  0.00    -0.495 OA
ATOM     34  C   UNL     1       7.878  -0.592  22.885  0.00  0.00    +0.277 C 
ENDBRANCH  33   4
ENDBRANCH  25  27
ENDBRANCH  16   5
ENDBRANCH   9  16
TORSDOF 7
ENDMDL
MODEL 3
REMARK VINA RESULT:       6.3      2.349      5.910
REMARK  Name = 38026931
REMARK  12 active torsions:
REMARK  status: ('A' for Active; 'I' for Inactive)
REMARK    1  A    between atoms: O_4  and  C_33
REMARK    2  A    between atoms: O_4  and  C_34
REMARK    3  A    between atoms: N_5  and  C_16
REMARK    4  A    between atoms: C_8  and  C_12
REMARK    5  A    between atoms: C_9  and  C_16
REMARK    6  A    between atoms: C_11  and  C_15
REMARK    7  A    between atoms: C_12  and  C_17
REMARK    8  A    between atoms: C_12  and  C_18
REMARK    9  A    between atoms: C_13  and  C_19
REMARK   10  A    between atoms: C_15  and  C_20
REMARK   11  A    between atoms: C_25  and  C_27
REMARK   12  A    between atoms: C_26  and  C_28
REMARK                            x       y       z     vdW  Elec       q    Type
REMARK                         _______ _______ _______ _____ _____    ______ ____
ROOT
ATOM      8  C   UNL     1      -3.632   2.325  23.829  0.00  0.00    +0.000 C 
ATOM      9  C   UNL     1      -4.498   3.469  24.416  0.00  0.00    +0.032 C 
ATOM     10  C   UNL     1      -4.456   1.035  23.711  0.00  0.00    +0.012 C 
ATOM     11  C   UNL     1      -5.017   0.575  25.070  0.00  0.00    +0.023 C 
ATOM     13  C   UNL     1      -5.656   1.718  25.832  0.00  0.00    -0.073 C 
ATOM     14  C   UNL     1      -5.423   3.005  25.517  0.00  0.00    -0.022 C 
ATOM     19  C   UNL     1      -6.606   1.349  26.937  0.00  0.00    +0.039 C 
ENDROOT
BRANCH   8  12
ATOM     12  C   UNL     1      -3.050   2.696  22.462  0.00  0.00    -0.013 C 
ATOM     17  C   UNL     1      -2.563   1.447  21.734  0.00  0.00    +0.007 C 
ATOM     18  C   UNL     1      -4.088   3.439  21.627  0.00  0.00    +0.007 C 
ENDBRANCH   8  12
BRANCH  11  15
ATOM     15  C   UNL     1      -3.934  -0.108  25.913  0.00  0.00    +0.103 C 
BRANCH  15  20
ATOM      1  O   UNL     1      -3.625  -2.274  24.999  0.00  0.00    -0.276 OA
ATOM      3  O   UNL     1       2.258   1.443  23.364  0.00  0.00    -0.276 OA
ATOM      6  N   UNL     1      -2.043  -0.672  24.430  0.00  0.00    -0.298 N 
ATOM      7  N   UNL     1       0.712  -0.174  23.988  0.00  0.00    -0.299 N 
ATOM     20  C   UNL     1      -3.194  -1.120  25.074  0.00  0.00    +0.216 C 
ATOM     21  C   UNL     1      -1.264  -1.594  23.598  0.00  0.00    +0.126 C 
ATOM     22  C   UNL     1      -1.545   0.711  24.438  0.00  0.00    +0.126 C 
ATOM     23  C   UNL     1       0.213  -1.556  23.979  0.00  0.00    +0.126 C 
ATOM     24  C   UNL     1      -0.068   0.748  24.820  0.00  0.00    +0.126 C 
ATOM     26  C   UNL     1       1.861   0.275  23.341  0.00  0.00    +0.213 C 
ATOM     28  C   UNL     1       2.646  -0.756  22.569  0.00  0.00    +0.109 C 
ENDBRANCH  15  20
ENDBRANCH  11  15
BRANCH   9  16
ATOM     16  C   UNL     1      -3.623   4.615  24.934  0.00  0.00    +0.112 C 
BRANCH  16   5
ATOM      2  O   UNL     1      -0.820   4.241  24.438  0.00  0.00    -0.270 OA
ATOM      5  N   UNL     1      -2.649   4.132  25.862  0.00  0.00    -0.311 N 
ATOM     25  C   UNL     1      -1.302   3.979  25.538  0.00  0.00    +0.244 C 
ATOM     35  H   UNL     1      -2.955   3.983  26.818  0.00  0.00    +0.149 HD
BRANCH  25  27
ATOM     27  C   UNL     1      -0.422   3.441  26.606  0.00  0.00    +0.037 A 
ATOM     29  C   UNL     1       0.945   3.293  26.375  0.00  0.00    +0.016 A 
ATOM     30  C   UNL     1      -0.964   3.081  27.840  0.00  0.00    +0.016 A 
ATOM     31  C   UNL     1       1.771   2.785  27.378  0.00  0.00    +0.046 A 
ATOM     32  C   UNL     1      -0.138   2.574  28.844  0.00  0.00    +0.046 A 
ATOM     33  C   UNL     1       1.229   2.425  28.612  0.00  0.00    +0.120 A 
BRANCH  33   4
ATOM      4  O   UNL     1       2.035   1.930  29.592  0.00  0.00    -0.495 OA
ATOM     34  C   UNL     1       1.531   1.965  30.926  0.00  0.00    +0.277 C 
ENDBRANCH  33   4
ENDBRANCH  25  27
ENDBRANCH  16   5
ENDBRANCH   9  16
TORSDOF 7
ENDMDL
MODEL 4
REMARK VINA RESULT:       6.4      2.102      5.370
REMARK  Name = 38026931
REMARK  12 active torsions:
REMARK  status: ('A' for Active; 'I' for Inactive)
REMARK    1  A    between atoms: O_4  and  C_33
REMARK    2  A    between atoms: O_4  and  C_34
REMARK    3  A    between atoms: N_5  and  C_16
REMARK    4  A    between atoms: C_8  and  C_12
REMARK    5  A    between atoms: C_9  and  C_16
REMARK    6  A    between atoms: C_11  and  C_15
REMARK    7  A    between atoms: C_12  and  C_17
REMARK    8  A    between atoms: C_12  and  C_18
REMARK    9  A    between atoms: C_13  and  C_19
REMARK   10  A    between atoms: C_15  and  C_20
REMARK   11  A    between atoms: C_25  and  C_27
REMARK   12  A    between atoms: C_26  and  C_28
REMARK                            x       y       z     vdW  Elec       q    Type
REMARK                         _______ _______ _______ _____ _____    ______ ____
ROOT
ATOM      8  C   UNL     1      -3.392   2.943  23.751  0.00  0.00    +0.000 C 
ATOM      9  C   UNL     1      -3.165   4.360  24.336  0.00  0.00    +0.032 C 
ATOM     10  C   UNL     1      -4.884   2.713  23.468  0.00  0.00    +0.012 C 
ATOM     11  C   UNL     1      -5.748   2.862  24.734  0.00  0.00    +0.023 C 
ATOM     13  C   UNL     1      -5.393   4.112  25.515  0.00  0.00    -0.073 C 
ATOM     14  C   UNL     1      -4.240   4.776  25.313  0.00  0.00    -0.022 C 
ATOM     19  C   UNL     1      -6.414   4.609  26.499  0.00  0.00    +0.039 C 
ENDROOT
BRANCH   8  12
ATOM     12  C   UNL     1      -2.580   2.719  22.472  0.00  0.00    -0.013 C 
ATOM     17  C   UNL     1      -2.355   1.229  22.239  0.00  0.00    +0.007 C 
ATOM     18  C   UNL     1      -3.285   3.353  21.277  0.00  0.00    +0.007 C 
ENDBRANCH   8  12
BRANCH  11  15
ATOM     15  C   UNL     1      -5.649   1.616  25.622  0.00  0.00    +0.103 C 
BRANCH  15  20
ATOM      1  O   UNL     1      -6.586  -0.038  24.205  0.00  0.00    -0.276 OA
ATOM      3  O   UNL     1       0.091  -2.165  25.614  0.00  0.00    -0.276 OA
ATOM      6  N   UNL     1      -4.316  -0.224  24.656  0.00  0.00    -0.298 N 
ATOM      7  N   UNL     1      -2.193  -2.015  25.218  0.00  0.00    -0.299 N 
ATOM     20  C   UNL     1      -5.567   0.380  24.762  0.00  0.00    +0.216 C 
ATOM     21  C   UNL     1      -4.152  -1.432  23.843  0.00  0.00    +0.126 C 
ATOM     22  C   UNL     1      -3.070   0.289  25.244  0.00  0.00    +0.126 C 
ATOM     23  C   UNL     1      -3.438  -2.527  24.629  0.00  0.00    +0.126 C 
ATOM     24  C   UNL     1      -2.357  -0.807  26.031  0.00  0.00    +0.126 C 
ATOM     26  C   UNL     1      -0.941  -2.617  25.109  0.00  0.00    +0.213 C 
ATOM     28  C   UNL     1      -0.874  -3.898  24.317  0.00  0.00    +0.109 C 
ENDBRANCH  15  20
ENDBRANCH  11  15
BRANCH   9  16
ATOM     16  C   UNL     1      -1.794   4.467  25.011  0.00  0.00    +0.112 C 
BRANCH  16   5
ATOM      2  O   UNL     1      -0.566   2.123  26.124  0.00  0.00    -0.270 OA
ATOM      5  N   UNL     1      -0.843   3.615  24.368  0.00  0.00    -0.311 N 
ATOM     25  C   UNL     1      -0.294   2.491  24.983  0.00  0.00    +0.244 C 
ATOM     35  H   UNL     1      -0.641   3.802  23.392  0.00  0.00    +0.149 HD
BRANCH  25  27
ATOM     27  C   UNL     1       0.700   1.723  24.190  0.00  0.00    +0.037 A 
ATOM     29  C   UNL     1       0.407   0.424  23.774  0.00  0.00    +0.016 A 
ATOM     30  C   UNL     1       1.927   2.300  23.864  0.00  0.00    +0.016 A 
ATOM     31  C   UNL     1       1.341  -0.298  23.032  0.00  0.00    +0.046 A 
ATOM     32  C   UNL     1       2.862   1.579  23.120  0.00  0.00    +0.046 A 
ATOM     33  C   UNL     1       2.569   0.280  22.705  0.00  0.00    +0.120 A 
BRANCH  33   4
ATOM      4  O   UNL     1       3.481  -0.424  21.980  0.00  0.00    -0.495 OA
ATOM     34  C   UNL     1       4.853  -0.272  22.339  0.00  0.00    +0.277 C 
ENDBRANCH  33   4
ENDBRANCH  25  27
ENDBRANCH  16   5
ENDBRANCH   9  16
TORSDOF 7
ENDMDL
MODEL 5
REMARK VINA RESULT:       6.6      1.474      1.940
REMARK  Name = 38026931
REMARK  12 active torsions:
REMARK  status: ('A' for Active; 'I' for Inactive)
REMARK    1  A    between atoms: O_4  and  C_33
REMARK    2  A    between atoms: O_4  and  C_34
REMARK    3  A    between atoms: N_5  and  C_16
REMARK    4  A    between atoms: C_8  and  C_12
REMARK    5  A    between atoms: C_9  and  C_16
REMARK    6  A    between atoms: C_11  and  C_15
REMARK    7  A    between atoms: C_12  and  C_17
REMARK    8  A    between atoms: C_12  and  C_18
REMARK    9  A    between atoms: C_13  and  C_19
REMARK   10  A    between atoms: C_15  and  C_20
REMARK   11  A    between atoms: C_25  and  C_27
REMARK   12  A    between atoms: C_26  and  C_28
REMARK                            x       y       z     vdW  Elec       q    Type
REMARK                         _______ _______ _______ _____ _____    ______ ____
ROOT
ATOM      8  C   UNL     1      -1.920   0.730  25.154  0.00  0.00    +0.000 C 
ATOM      9  C   UNL     1      -0.687  -0.142  24.806  0.00  0.00    +0.032 C 
ATOM     10  C   UNL     1      -2.867  -0.030  26.093  0.00  0.00    +0.012 C 
ATOM     11  C   UNL     1      -3.362  -1.352  25.476  0.00  0.00    +0.023 C 
ATOM     13  C   UNL     1      -2.227  -2.151  24.868  0.00  0.00    -0.073 C 
ATOM     14  C   UNL     1      -1.034  -1.596  24.588  0.00  0.00    -0.022 C 
ATOM     19  C   UNL     1      -2.478  -3.614  24.632  0.00  0.00    +0.039 C 
ENDROOT
BRANCH   8  12
ATOM     12  C   UNL     1      -1.513   2.061  25.793  0.00  0.00    -0.013 C 
ATOM     17  C   UNL     1      -0.243   1.887  26.621  0.00  0.00    +0.007 C 
ATOM     18  C   UNL     1      -1.316   3.128  24.721  0.00  0.00    +0.007 C 
ENDBRANCH   8  12
BRANCH  11  15
ATOM     15  C   UNL     1      -4.469  -1.101  24.445  0.00  0.00    +0.103 C 
BRANCH  15  20
ATOM      1  O   UNL     1      -3.289  -0.005  22.706  0.00  0.00    -0.276 OA
ATOM      3  O   UNL     1      -6.798   5.103  26.269  0.00  0.00    -0.276 OA
ATOM      6  N   UNL     1      -4.788   1.289  23.919  0.00  0.00    -0.298 N 
ATOM      7  N   UNL     1      -5.251   3.823  25.101  0.00  0.00    -0.299 N 
ATOM     20  C   UNL     1      -4.125   0.105  23.607  0.00  0.00    +0.216 C 
ATOM     21  C   UNL     1      -4.508   2.508  23.154  0.00  0.00    +0.126 C 
ATOM     22  C   UNL     1      -5.840   1.435  24.934  0.00  0.00    +0.126 C 
ATOM     23  C   UNL     1      -4.200   3.678  24.084  0.00  0.00    +0.126 C 
ATOM     24  C   UNL     1      -5.531   2.605  25.865  0.00  0.00    +0.126 C 
ATOM     26  C   UNL     1      -5.917   5.008  25.410  0.00  0.00    +0.213 C 
ATOM     28  C   UNL     1      -5.515   6.232  24.627  0.00  0.00    +0.109 C 
ENDBRANCH  15  20
ENDBRANCH  11  15
BRANCH   9  16
ATOM     16  C   UNL     1       0.043   0.399  23.571  0.00  0.00    +0.112 C 
BRANCH  16   5
ATOM      2  O   UNL     1       1.963  -0.348  21.572  0.00  0.00    -0.270 OA
ATOM      5  N   UNL     1       1.459   0.310  23.740  0.00  0.00    -0.311 N 
ATOM     25  C   UNL     1       2.324  -0.062  22.712  0.00  0.00    +0.244 C 
ATOM     35  H   UNL     1       1.840   0.621  24.627  0.00  0.00    +0.149 HD
BRANCH  25  27
ATOM     27  C   UNL     1       3.768  -0.132  23.054  0.00  0.00    +0.037 A 
ATOM     29  C   UNL     1       4.305  -1.307  23.578  0.00  0.00    +0.016 A 
ATOM     30  C   UNL     1       4.586   0.981  22.854  0.00  0.00    +0.016 A 
ATOM     31  C   UNL     1       5.660  -1.371  23.902  0.00  0.00    +0.046 A 
ATOM     32  C   UNL     1       5.941   0.917  23.177  0.00  0.00    +0.046 A 
ATOM     33  C   UNL     1       6.478  -0.258  23.701  0.00  0.00    +0.120 A 
BRANCH  33   4
ATOM      4  O   UNL     1       7.801  -0.321  24.016  0.00  0.00    -0.495 OA
ATOM     34  C   UNL     1       8.729  -0.277  22.933  0.00  0.00    +0.277 C 
ENDBRANCH  33   4
ENDBRANCH  25  27
ENDBRANCH  16   5
ENDBRANCH   9  16
TORSDOF 7
ENDMDL
MODEL 6
REMARK VINA RESULT:       6.9      2.508      7.235
REMARK  Name = 38026931
REMARK  12 active torsions:
REMARK  status: ('A' for Active; 'I' for Inactive)
REMARK    1  A    between atoms: O_4  and  C_33
REMARK    2  A    between atoms: O_4  and  C_34
REMARK    3  A    between atoms: N_5  and  C_16
REMARK    4  A    between atoms: C_8  and  C_12
REMARK    5  A    between atoms: C_9  and  C_16
REMARK    6  A    between atoms: C_11  and  C_15
REMARK    7  A    between atoms: C_12  and  C_17
REMARK    8  A    between atoms: C_12  and  C_18
REMARK    9  A    between atoms: C_13  and  C_19
REMARK   10  A    between atoms: C_15  and  C_20
REMARK   11  A    between atoms: C_25  and  C_27
REMARK   12  A    between atoms: C_26  and  C_28
REMARK                            x       y       z     vdW  Elec       q    Type
REMARK                         _______ _______ _______ _____ _____    ______ ____
ROOT
ATOM      8  C   UNL     1      -3.998   3.899  25.808  0.00  0.00    +0.000 C 
ATOM      9  C   UNL     1      -4.009   4.467  24.366  0.00  0.00    +0.032 C 
ATOM     10  C   UNL     1      -3.026   4.696  26.691  0.00  0.00    +0.012 C 
ATOM     11  C   UNL     1      -1.586   4.667  26.145  0.00  0.00    +0.023 C 
ATOM     13  C   UNL     1      -1.541   4.956  24.658  0.00  0.00    -0.073 C 
ATOM     14  C   UNL     1      -2.637   4.874  23.882  0.00  0.00    -0.022 C 
ATOM     19  C   UNL     1      -0.218   5.386  24.091  0.00  0.00    +0.039 C 
ENDROOT
BRANCH   8  12
ATOM     12  C   UNL     1      -5.397   3.911  26.434  0.00  0.00    -0.013 C 
ATOM     17  C   UNL     1      -6.366   4.695  25.554  0.00  0.00    +0.007 C 
ATOM     18  C   UNL     1      -5.895   2.486  26.650  0.00  0.00    +0.007 C 
ENDBRANCH   8  12
BRANCH  11  15
ATOM     15  C   UNL     1      -0.900   3.334  26.465  0.00  0.00    +0.103 C 
BRANCH  15  20
ATOM      1  O   UNL     1      -2.575   1.773  25.852  0.00  0.00    -0.276 OA
ATOM      3  O   UNL     1       3.074   0.373  21.703  0.00  0.00    -0.276 OA
ATOM      6  N   UNL     1      -0.673   1.828  24.522  0.00  0.00    -0.298 N 
ATOM      7  N   UNL     1       1.202   0.273  23.073  0.00  0.00    -0.299 N 
ATOM     20  C   UNL     1      -1.465   2.243  25.590  0.00  0.00    +0.216 C 
ATOM     21  C   UNL     1      -1.147   0.770  23.626  0.00  0.00    +0.126 C 
ATOM     22  C   UNL     1       0.618   2.418  24.139  0.00  0.00    +0.126 C 
ATOM     23  C   UNL     1      -0.090  -0.316  23.455  0.00  0.00    +0.126 C 
ATOM     24  C   UNL     1       1.676   1.331  23.969  0.00  0.00    +0.126 C 
ATOM     26  C   UNL     1       1.993  -0.140  22.003  0.00  0.00    +0.213 C 
ATOM     28  C   UNL     1       1.465  -1.286  21.176  0.00  0.00    +0.109 C 
ENDBRANCH  15  20
ENDBRANCH  11  15
BRANCH   9  16
ATOM     16  C   UNL     1      -4.620   3.464  23.382  0.00  0.00    +0.112 C 
BRANCH  16   5
ATOM      2  O   UNL     1      -6.226   1.292  24.354  0.00  0.00    -0.270 OA
ATOM      5  N   UNL     1      -4.176   2.136  23.667  0.00  0.00    -0.311 N 
ATOM     25  C   UNL     1      -5.026   1.137  24.139  0.00  0.00    +0.244 C 
ATOM     35  H   UNL     1      -3.218   1.907  23.426  0.00  0.00    +0.149 HD
BRANCH  25  27
ATOM     27  C   UNL     1      -4.405  -0.185  24.412  0.00  0.00    +0.037 A 
ATOM     29  C   UNL     1      -4.355  -1.153  23.410  0.00  0.00    +0.016 A 
ATOM     30  C   UNL     1      -3.874  -0.458  25.674  0.00  0.00    +0.016 A 
ATOM     31  C   UNL     1      -3.774  -2.394  23.668  0.00  0.00    +0.046 A 
ATOM     32  C   UNL     1      -3.292  -1.699  25.932  0.00  0.00    +0.046 A 
ATOM     33  C   UNL     1      -3.243  -2.667  24.929  0.00  0.00    +0.120 A 
BRANCH  33   4
ATOM      4  O   UNL     1      -2.675  -3.879  25.181  0.00  0.00    -0.495 OA
ATOM     34  C   UNL     1      -1.249  -3.931  25.219  0.00  0.00    +0.277 C 
ENDBRANCH  33   4
ENDBRANCH  25  27
ENDBRANCH  16   5
ENDBRANCH   9  16
TORSDOF 7
ENDMDL
MODEL 7
REMARK VINA RESULT:       7.2      2.118      5.071
REMARK  Name = 38026931
REMARK  12 active torsions:
REMARK  status: ('A' for Active; 'I' for Inactive)
REMARK    1  A    between atoms: O_4  and  C_33
REMARK    2  A    between atoms: O_4  and  C_34
REMARK    3  A    between atoms: N_5  and  C_16
REMARK    4  A    between atoms: C_8  and  C_12
REMARK    5  A    between atoms: C_9  and  C_16
REMARK    6  A    between atoms: C_11  and  C_15
REMARK    7  A    between atoms: C_12  and  C_17
REMARK    8  A    between atoms: C_12  and  C_18
REMARK    9  A    between atoms: C_13  and  C_19
REMARK   10  A    between atoms: C_15  and  C_20
REMARK   11  A    between atoms: C_25  and  C_27
REMARK   12  A    between atoms: C_26  and  C_28
REMARK                            x       y       z     vdW  Elec       q    Type
REMARK                         _______ _______ _______ _____ _____    ______ ____
ROOT
ATOM      8  C   UNL     1      -2.342   4.102  24.906  0.00  0.00    +0.000 C 
ATOM      9  C   UNL     1      -2.606   3.791  26.402  0.00  0.00    +0.032 C 
ATOM     10  C   UNL     1      -3.438   5.020  24.348  0.00  0.00    +0.012 C 
ATOM     11  C   UNL     1      -4.841   4.397  24.476  0.00  0.00    +0.023 C 
ATOM     13  C   UNL     1      -5.079   3.823  25.859  0.00  0.00    -0.073 C 
ATOM     14  C   UNL     1      -4.069   3.572  26.710  0.00  0.00    -0.022 C 
ATOM     19  C   UNL     1      -6.509   3.589  26.258  0.00  0.00    +0.039 C 
ENDROOT
BRANCH   8  12
ATOM     12  C   UNL     1      -0.968   4.745  24.694  0.00  0.00    -0.013 C 
ATOM     17  C   UNL     1      -0.389   4.329  23.345  0.00  0.00    +0.007 C 
ATOM     18  C   UNL     1      -1.071   6.264  24.792  0.00  0.00    +0.007 C 
ENDBRANCH   8  12
BRANCH  11  15
ATOM     15  C   UNL     1      -5.077   3.337  23.395  0.00  0.00    +0.103 C 
BRANCH  15  20
ATOM      1  O   UNL     1      -3.046   3.242  22.176  0.00  0.00    -0.276 OA
ATOM      3  O   UNL     1      -3.634  -3.022  25.569  0.00  0.00    -0.276 OA
ATOM      6  N   UNL     1      -3.456   1.492  23.647  0.00  0.00    -0.298 N 
ATOM      7  N   UNL     1      -3.258  -1.306  24.050  0.00  0.00    -0.299 N 
ATOM     20  C   UNL     1      -3.767   2.693  23.014  0.00  0.00    +0.216 C 
ATOM     21  C   UNL     1      -2.203   0.801  23.330  0.00  0.00    +0.126 C 
ATOM     22  C   UNL     1      -4.255   0.852  24.701  0.00  0.00    +0.126 C 
ATOM     23  C   UNL     1      -2.458  -0.666  22.996  0.00  0.00    +0.126 C 
ATOM     24  C   UNL     1      -4.510  -0.615  24.367  0.00  0.00    +0.126 C 
ATOM     26  C   UNL     1      -2.944  -2.506  24.686  0.00  0.00    +0.213 C 
ATOM     28  C   UNL     1      -1.674  -3.191  24.246  0.00  0.00    +0.109 C 
ENDBRANCH  15  20
ENDBRANCH  11  15
BRANCH   9  16
ATOM     16  C   UNL     1      -1.799   2.573  26.865  0.00  0.00    +0.112 C 
BRANCH  16   5
ATOM      2  O   UNL     1      -1.048  -0.082  26.072  0.00  0.00    -0.270 OA
ATOM      5  N   UNL     1      -0.811   2.219  25.894  0.00  0.00    -0.311 N 
ATOM     25  C   UNL     1      -0.507   0.899  25.567  0.00  0.00    +0.244 C 
ATOM     35  H   UNL     1      -0.388   2.977  25.367  0.00  0.00    +0.149 HD
BRANCH  25  27
ATOM     27  C   UNL     1       0.562   0.697  24.556  0.00  0.00    +0.037 A 
ATOM     29  C   UNL     1       1.374   1.766  24.177  0.00  0.00    +0.016 A 
ATOM     30  C   UNL     1       0.753  -0.561  23.984  0.00  0.00    +0.016 A 
ATOM     31  C   UNL     1       2.377   1.577  23.226  0.00  0.00    +0.046 A 
ATOM     32  C   UNL     1       1.756  -0.751  23.034  0.00  0.00    +0.046 A 
ATOM     33  C   UNL     1       2.567   0.318  22.654  0.00  0.00    +0.120 A 
BRANCH  33   4
ATOM      4  O   UNL     1       3.547   0.133  21.727  0.00  0.00    -0.495 OA
ATOM     34  C   UNL     1       4.895   0.162  22.192  0.00  0.00    +0.277 C 
ENDBRANCH  33   4
ENDBRANCH  25  27
ENDBRANCH  16   5
ENDBRANCH   9  16
TORSDOF 7
ENDMDL
MODEL 8
REMARK VINA RESULT:       7.3      1.611      2.206
REMARK  Name = 38026931
REMARK  12 active torsions:
REMARK  status: ('A' for Active; 'I' for Inactive)
REMARK    1  A    between atoms: O_4  and  C_33
REMARK    2  A    between atoms: O_4  and  C_34
REMARK    3  A    between atoms: N_5  and  C_16
REMARK    4  A    between atoms: C_8  and  C_12
REMARK    5  A    between atoms: C_9  and  C_16
REMARK    6  A    between atoms: C_11  and  C_15
REMARK    7  A    between atoms: C_12  and  C_17
REMARK    8  A    between atoms: C_12  and  C_18
REMARK    9  A    between atoms: C_13  and  C_19
REMARK   10  A    between atoms: C_15  and  C_20
REMARK   11  A    between atoms: C_25  and  C_27
REMARK   12  A    between atoms: C_26  and  C_28
REMARK                            x       y       z     vdW  Elec       q    Type
REMARK                         _______ _______ _______ _____ _____    ______ ____
ROOT
ATOM      8  C   UNL     1      -1.857  -0.272  25.484  0.00  0.00    +0.000 C 
ATOM      9  C   UNL     1      -1.901  -0.071  23.948  0.00  0.00    +0.032 C 
ATOM     10  C   UNL     1      -2.946  -1.260  25.927  0.00  0.00    +0.012 C 
ATOM     11  C   UNL     1      -4.358  -0.784  25.537  0.00  0.00    +0.023 C 
ATOM     13  C   UNL     1      -4.417  -0.313  24.097  0.00  0.00    -0.073 C 
ATOM     14  C   UNL     1      -3.308  -0.013  23.399  0.00  0.00    -0.022 C 
ATOM     19  C   UNL     1      -5.778  -0.241  23.464  0.00  0.00    +0.039 C 
ENDROOT
BRANCH   8  12
ATOM     12  C   UNL     1      -0.485  -0.766  25.953  0.00  0.00    -0.013 C 
ATOM     17  C   UNL     1      -0.449  -0.866  27.475  0.00  0.00    +0.007 C 
ATOM     18  C   UNL     1      -0.158  -2.113  25.315  0.00  0.00    +0.007 C 
ENDBRANCH   8  12
BRANCH  11  15
ATOM     15  C   UNL     1      -4.857   0.307  26.491  0.00  0.00    +0.103 C 
BRANCH  15  20
ATOM      1  O   UNL     1      -6.428   1.463  25.144  0.00  0.00    -0.276 OA
ATOM      3  O   UNL     1      -0.519   5.485  25.221  0.00  0.00    -0.276 OA
ATOM      6  N   UNL     1      -4.465   2.595  25.651  0.00  0.00    -0.298 N 
ATOM      7  N   UNL     1      -2.452   4.326  24.660  0.00  0.00    -0.299 N 
ATOM     20  C   UNL     1      -5.328   1.502  25.702  0.00  0.00    +0.216 C 
ATOM     21  C   UNL     1      -4.846   3.795  24.902  0.00  0.00    +0.126 C 
ATOM     22  C   UNL     1      -3.184   2.702  26.364  0.00  0.00    +0.126 C 
ATOM     23  C   UNL     1      -3.733   4.219  23.947  0.00  0.00    +0.126 C 
ATOM     24  C   UNL     1      -2.071   3.126  25.409  0.00  0.00    +0.126 C 
ATOM     26  C   UNL     1      -1.590   5.420  24.612  0.00  0.00    +0.213 C 
ATOM     28  C   UNL     1      -2.024   6.584  23.756  0.00  0.00    +0.109 C 
ENDBRANCH  15  20
ENDBRANCH  11  15
BRANCH   9  16
ATOM     16  C   UNL     1      -1.138   1.191  23.532  0.00  0.00    +0.112 C 
BRANCH  16   5
ATOM      2  O   UNL     1       0.481  -0.504  21.875  0.00  0.00    -0.270 OA
ATOM      5  N   UNL     1       0.273   0.990  23.638  0.00  0.00    -0.311 N 
ATOM     25  C   UNL     1       0.985   0.145  22.789  0.00  0.00    +0.244 C 
ATOM     35  H   UNL     1       0.773   1.564  24.309  0.00  0.00    +0.149 HD
BRANCH  25  27
ATOM     27  C   UNL     1       2.443   0.024  23.046  0.00  0.00    +0.037 A 
ATOM     29  C   UNL     1       2.965  -1.163  23.558  0.00  0.00    +0.016 A 
ATOM     30  C   UNL     1       3.289   1.100  22.776  0.00  0.00    +0.016 A 
ATOM     31  C   UNL     1       4.334  -1.275  23.801  0.00  0.00    +0.046 A 
ATOM     32  C   UNL     1       4.658   0.989  23.018  0.00  0.00    +0.046 A 
ATOM     33  C   UNL     1       5.181  -0.199  23.531  0.00  0.00    +0.120 A 
BRANCH  33   4
ATOM      4  O   UNL     1       6.517  -0.308  23.768  0.00  0.00    -0.495 OA
ATOM     34  C   UNL     1       7.332  -0.759  22.687  0.00  0.00    +0.277 C 
ENDBRANCH  33   4
ENDBRANCH  25  27
ENDBRANCH  16   5
ENDBRANCH   9  16
TORSDOF 7
ENDMDL
MODEL 9
REMARK VINA RESULT:       7.3      1.822      4.968
REMARK  Name = 38026931
REMARK  12 active torsions:
REMARK  status: ('A' for Active; 'I' for Inactive)
REMARK    1  A    between atoms: O_4  and  C_33
REMARK    2  A    between atoms: O_4  and  C_34
REMARK    3  A    between atoms: N_5  and  C_16
REMARK    4  A    between atoms: C_8  and  C_12
REMARK    5  A    between atoms: C_9  and  C_16
REMARK    6  A    between atoms: C_11  and  C_15
REMARK    7  A    between atoms: C_12  and  C_17
REMARK    8  A    between atoms: C_12  and  C_18
REMARK    9  A    between atoms: C_13  and  C_19
REMARK   10  A    between atoms: C_15  and  C_20
REMARK   11  A    between atoms: C_25  and  C_27
REMARK   12  A    between atoms: C_26  and  C_28
REMARK                            x       y       z     vdW  Elec       q    Type
REMARK                         _______ _______ _______ _____ _____    ______ ____
ROOT
ATOM      8  C   UNL     1      -2.860   2.512  23.872  0.00  0.00    +0.000 C 
ATOM      9  C   UNL     1      -1.654   2.727  22.923  0.00  0.00    +0.032 C 
ATOM     10  C   UNL     1      -3.068   3.745  24.763  0.00  0.00    +0.012 C 
ATOM     11  C   UNL     1      -1.826   4.064  25.617  0.00  0.00    +0.023 C 
ATOM     13  C   UNL     1      -0.553   4.030  24.794  0.00  0.00    -0.073 C 
ATOM     14  C   UNL     1      -0.499   3.440  23.587  0.00  0.00    -0.022 C 
ATOM     19  C   UNL     1       0.645   4.731  25.371  0.00  0.00    +0.039 C 
ENDROOT
BRANCH   8  12
ATOM     12  C   UNL     1      -4.146   2.208  23.097  0.00  0.00    -0.013 C 
ATOM     17  C   UNL     1      -5.348   2.224  24.036  0.00  0.00    +0.007 C 
ATOM     18  C   UNL     1      -4.332   3.211  21.963  0.00  0.00    +0.007 C 
ENDBRANCH   8  12
BRANCH  11  15
ATOM     15  C   UNL     1      -1.725   3.121  26.821  0.00  0.00    +0.103 C 
BRANCH  15  20
ATOM      1  O   UNL     1       0.423   2.163  26.527  0.00  0.00    -0.276 OA
ATOM      3  O   UNL     1      -4.273  -2.744  24.300  0.00  0.00    -0.276 OA
ATOM      6  N   UNL     1      -1.394   0.759  26.183  0.00  0.00    -0.298 N 
ATOM      7  N   UNL     1      -2.459  -1.321  24.580  0.00  0.00    -0.299 N 
ATOM     20  C   UNL     1      -0.797   1.977  26.500  0.00  0.00    +0.216 C 
ATOM     21  C   UNL     1      -0.562  -0.402  25.855  0.00  0.00    +0.126 C 
ATOM     22  C   UNL     1      -2.838   0.485  26.214  0.00  0.00    +0.126 C 
ATOM     23  C   UNL     1      -1.015  -1.048  24.549  0.00  0.00    +0.126 C 
ATOM     24  C   UNL     1      -3.291  -0.160  24.907  0.00  0.00    +0.126 C 
ATOM     26  C   UNL     1      -3.057  -2.540  24.266  0.00  0.00    +0.213 C 
ATOM     28  C   UNL     1      -2.132  -3.662  23.866  0.00  0.00    +0.109 C 
ENDBRANCH  15  20
ENDBRANCH  11  15
BRANCH   9  16
ATOM     16  C   UNL     1      -1.164   1.397  22.340  0.00  0.00    +0.112 C 
BRANCH  16   5
ATOM      2  O   UNL     1       0.601  -0.565  21.210  0.00  0.00    -0.270 OA
ATOM      5  N   UNL     1       0.185   1.136  22.733  0.00  0.00    -0.311 N 
ATOM     25  C   UNL     1       0.976   0.160  22.128  0.00  0.00    +0.244 C 
ATOM     35  H   UNL     1       0.594   1.758  23.422  0.00  0.00    +0.149 HD
BRANCH  25  27
ATOM     27  C   UNL     1       2.349  -0.006  22.669  0.00  0.00    +0.037 A 
ATOM     29  C   UNL     1       2.696  -1.175  23.346  0.00  0.00    +0.016 A 
ATOM     30  C   UNL     1       3.292   1.009  22.501  0.00  0.00    +0.016 A 
ATOM     31  C   UNL     1       3.985  -1.330  23.856  0.00  0.00    +0.046 A 
ATOM     32  C   UNL     1       4.581   0.855  23.010  0.00  0.00    +0.046 A 
ATOM     33  C   UNL     1       4.928  -0.314  23.688  0.00  0.00    +0.120 A 
BRANCH  33   4
ATOM      4  O   UNL     1       6.186  -0.465  24.184  0.00  0.00    -0.495 OA
ATOM     34  C   UNL     1       7.270  -0.231  23.286  0.00  0.00    +0.277 C 
ENDBRANCH  33   4
ENDBRANCH  25  27
ENDBRANCH  16   5
ENDBRANCH   9  16
TORSDOF 7
ENDMDL
MODEL 10
REMARK VINA RESULT:       7.6      3.663      6.436
REMARK  Name = 38026931
REMARK  12 active torsions:
REMARK  status: ('A' for Active; 'I' for Inactive)
REMARK    1  A    between atoms: O_4  and  C_33
REMARK    2  A    between atoms: O_4  and  C_34
REMARK    3  A    between atoms: N_5  and  C_16
REMARK    4  A    between atoms: C_8  and  C_12
REMARK    5  A    between atoms: C_9  and  C_16
REMARK    6  A    between atoms: C_11  and  C_15
REMARK    7  A    between atoms: C_12  and  C_17
REMARK    8  A    between atoms: C_12  and  C_18
REMARK    9  A    between atoms: C_13  and  C_19
REMARK   10  A    between atoms: C_15  and  C_20
REMARK   11  A    between atoms: C_25  and  C_27
REMARK   12  A    between atoms: C_26  and  C_28
REMARK                            x       y       z     vdW  Elec       q    Type
REMARK                         _______ _______ _______ _____ _____    ______ ____
ROOT
ATOM      8  C   UNL     1      -2.991   3.348  23.507  0.00  0.00    +0.000 C 
ATOM      9  C   UNL     1      -2.011   4.458  23.963  0.00  0.00    +0.032 C 
ATOM     10  C   UNL     1      -4.439   3.741  23.838  0.00  0.00    +0.012 C 
ATOM     11  C   UNL     1      -4.646   3.986  25.345  0.00  0.00    +0.023 C 
ATOM     13  C   UNL     1      -3.556   4.864  25.928  0.00  0.00    -0.073 C 
ATOM     14  C   UNL     1      -2.391   5.074  25.290  0.00  0.00    -0.022 C 
ATOM     19  C   UNL     1      -3.855   5.531  27.241  0.00  0.00    +0.039 C 
ENDROOT
BRANCH   8  12
ATOM     12  C   UNL     1      -2.862   3.056  22.009  0.00  0.00    -0.013 C 
ATOM     17  C   UNL     1      -2.503   1.591  21.782  0.00  0.00    +0.007 C 
ATOM     18  C   UNL     1      -4.156   3.414  21.284  0.00  0.00    +0.007 C 
ENDBRANCH   8  12
BRANCH  11  15
ATOM     15  C   UNL     1      -4.753   2.663  26.111  0.00  0.00    +0.103 C 
BRANCH  15  20
ATOM      1  O   UNL     1      -6.268   1.475  24.729  0.00  0.00    -0.276 OA
ATOM      3  O   UNL     1      -0.309  -2.463  25.006  0.00  0.00    -0.276 OA
ATOM      6  N   UNL     1      -4.099   0.654  24.834  0.00  0.00    -0.298 N 
ATOM      7  N   UNL     1      -2.495  -1.679  24.954  0.00  0.00    -0.299 N 
ATOM     20  C   UNL     1      -5.115   1.548  25.162  0.00  0.00    +0.216 C 
ATOM     21  C   UNL     1      -4.369  -0.460  23.921  0.00  0.00    +0.126 C 
ATOM     22  C   UNL     1      -2.700   0.757  25.272  0.00  0.00    +0.126 C 
ATOM     23  C   UNL     1      -3.894  -1.782  24.515  0.00  0.00    +0.126 C 
ATOM     24  C   UNL     1      -2.224  -0.566  25.868  0.00  0.00    +0.126 C 
ATOM     26  C   UNL     1      -1.477  -2.572  24.624  0.00  0.00    +0.213 C 
ATOM     28  C   UNL     1      -1.859  -3.733  23.740  0.00  0.00    +0.109 C 
ENDBRANCH  15  20
ENDBRANCH  11  15
BRANCH   9  16
ATOM     16  C   UNL     1      -0.574   3.931  24.038  0.00  0.00    +0.112 C 
BRANCH  16   5
ATOM      2  O   UNL     1       0.877   1.682  25.075  0.00  0.00    -0.270 OA
ATOM      5  N   UNL     1      -0.180   3.722  25.396  0.00  0.00    -0.311 N 
ATOM     25  C   UNL     1       0.526   2.596  25.817  0.00  0.00    +0.244 C 
ATOM     35  H   UNL     1      -0.354   4.479  26.050  0.00  0.00    +0.149 HD
BRANCH  25  27
ATOM     27  C   UNL     1       0.838   2.515  27.267  0.00  0.00    +0.037 A 
ATOM     29  C   UNL     1       2.154   2.655  27.706  0.00  0.00    +0.016 A 
ATOM     30  C   UNL     1      -0.186   2.297  28.189  0.00  0.00    +0.016 A 
ATOM     31  C   UNL     1       2.447   2.577  29.068  0.00  0.00    +0.046 A 
ATOM     32  C   UNL     1       0.106   2.219  29.551  0.00  0.00    +0.046 A 
ATOM     33  C   UNL     1       1.423   2.358  29.990  0.00  0.00    +0.120 A 
BRANCH  33   4
ATOM      4  O   UNL     1       1.708   2.282  31.319  0.00  0.00    -0.495 OA
ATOM     34  C   UNL     1       0.603   2.283  32.221  0.00  0.00    +0.277 C 
ENDBRANCH  33   4
ENDBRANCH  25  27
ENDBRANCH  16   5
ENDBRANCH   9  16
TORSDOF 7
ENDMDL
