MODEL 1
REMARK VINA RESULT:      -2.4      0.000      0.000
REMARK  Name = 86769450
REMARK  1 active torsions:
REMARK  status: ('A' for Active; 'I' for Inactive)
REMARK    1  A    between atoms: N_3  and  C_9
REMARK                            x       y       z     vdW  Elec       q    Type
REMARK                         _______ _______ _______ _____ _____    ______ ____
ROOT
ATOM      2  O   UNL     1      -5.450 -10.504   8.651  0.00  0.00    -0.252 OA
ATOM      3  N   UNL     1      -3.018  -9.975  13.056  0.00  0.00    -0.296 NA
ATOM      4  N   UNL     1      -4.635  -9.915  10.755  0.00  0.00    -0.278 N 
ATOM      5  N   UNL     1      -6.880  -9.873  10.464  0.00  0.00    -0.238 N 
ATOM      6  N   UNL     1      -8.313 -10.329   8.611  0.00  0.00    -0.240 NA
ATOM      7  C   UNL     1      -5.144  -9.360  11.983  0.00  0.00    +0.109 C 
ATOM      8  C   UNL     1      -4.487 -10.029  13.189  0.00  0.00    +0.108 C 
ATOM     10  C   UNL     1      -2.576 -10.670  11.830  0.00  0.00    +0.104 C 
ATOM     11  C   UNL     1      -3.203 -10.049  10.580  0.00  0.00    +0.125 C 
ATOM     12  C   UNL     1      -6.649  -9.571  11.872  0.00  0.00    +0.140 C 
ATOM     15  C   UNL     1      -5.643 -10.138   9.803  0.00  0.00    +0.311 C 
ATOM     18  C   UNL     1      -8.189  -9.960   9.905  0.00  0.00    +0.129 A 
ATOM     19  C   UNL     1      -9.258  -9.656  10.732  0.00  0.00    +0.044 A 
ATOM     20  C   UNL     1     -10.539  -9.737  10.196  0.00  0.00    +0.005 A 
ATOM     21  C   UNL     1      -9.573 -10.398   8.124  0.00  0.00    +0.113 A 
ATOM     22  C   UNL     1     -10.708 -10.114   8.868  0.00  0.00    +0.020 A 
ENDROOT
BRANCH   3   9
ATOM      1  O   UNL     1      -1.144 -10.192  16.807  0.00  0.00    -0.380 OA
ATOM      9  C   UNL     1      -2.378 -10.560  14.231  0.00  0.00    +0.061 C 
ATOM     13  C   UNL     1      -3.191 -10.280  15.499  0.00  0.00    +0.047 C 
ATOM     14  C   UNL     1      -0.956 -10.015  14.391  0.00  0.00    +0.047 C 
ATOM     16  C   UNL     1      -2.444 -10.780  16.730  0.00  0.00    +0.161 C 
ATOM     17  C   UNL     1      -0.332 -10.530  15.683  0.00  0.00    +0.161 C 
ENDBRANCH   3   9
TORSDOF 1
ENDMDL
MODEL 2
REMARK VINA RESULT:      -1.1     16.108     17.518
REMARK  Name = 86769450
REMARK  1 active torsions:
REMARK  status: ('A' for Active; 'I' for Inactive)
REMARK    1  A    between atoms: N_3  and  C_9
REMARK                            x       y       z     vdW  Elec       q    Type
REMARK                         _______ _______ _______ _____ _____    ______ ____
ROOT
ATOM      2  O   UNL     1      -3.417  -0.806  24.849  0.00  0.00    -0.252 OA
ATOM      3  N   UNL     1       1.359  -0.016  23.379  0.00  0.00    -0.296 NA
ATOM      4  N   UNL     1      -1.402  -0.101  23.912  0.00  0.00    -0.278 N 
ATOM      5  N   UNL     1      -2.902   1.501  24.468  0.00  0.00    -0.238 N 
ATOM      6  N   UNL     1      -5.091   1.454  25.416  0.00  0.00    -0.240 NA
ATOM      7  C   UNL     1      -0.822   1.120  23.412  0.00  0.00    +0.109 C 
ATOM      8  C   UNL     1       0.654   1.212  23.797  0.00  0.00    +0.108 C 
ATOM     10  C   UNL     1       0.774  -1.205  24.029  0.00  0.00    +0.104 C 
ATOM     11  C   UNL     1      -0.710  -1.354  23.687  0.00  0.00    +0.125 C 
ATOM     12  C   UNL     1      -1.710   2.205  24.010  0.00  0.00    +0.140 C 
ATOM     15  C   UNL     1      -2.681   0.091  24.457  0.00  0.00    +0.311 C 
ATOM     18  C   UNL     1      -4.065   2.185  24.929  0.00  0.00    +0.129 A 
ATOM     19  C   UNL     1      -4.067   3.568  24.847  0.00  0.00    +0.044 A 
ATOM     20  C   UNL     1      -5.196   4.245  25.294  0.00  0.00    +0.005 A 
ATOM     21  C   UNL     1      -6.172   2.145  25.843  0.00  0.00    +0.113 A 
ATOM     22  C   UNL     1      -6.274   3.527  25.803  0.00  0.00    +0.020 A 
ENDROOT
BRANCH   3   9
ATOM      1  O   UNL     1       5.517  -0.330  22.883  0.00  0.00    -0.380 OA
ATOM      9  C   UNL     1       2.784   0.085  23.688  0.00  0.00    +0.061 C 
ATOM     13  C   UNL     1       3.498   1.012  22.701  0.00  0.00    +0.047 C 
ATOM     14  C   UNL     1       3.432  -1.302  23.667  0.00  0.00    +0.047 C 
ATOM     16  C   UNL     1       5.002   1.000  22.955  0.00  0.00    +0.161 C 
ATOM     17  C   UNL     1       4.939  -1.186  23.869  0.00  0.00    +0.161 C 
ENDBRANCH   3   9
TORSDOF 1
ENDMDL
