MODEL 1
REMARK VINA RESULT:      -0.9      0.000      0.000
REMARK  Name = 51136663
REMARK  11 active torsions:
REMARK  status: ('A' for Active; 'I' for Inactive)
REMARK    1  A    between atoms: O_2  and  C_17
REMARK    2  A    between atoms: O_4  and  C_28
REMARK    3  A    between atoms: O_4  and  C_29
REMARK    4  A    between atoms: C_7  and  C_12
REMARK    5  A    between atoms: C_8  and  C_13
REMARK    6  A    between atoms: C_12  and  C_15
REMARK    7  A    between atoms: C_13  and  C_17
REMARK    8  A    between atoms: C_14  and  C_16
REMARK    9  A    between atoms: C_16  and  C_19
REMARK   10  A    between atoms: C_16  and  C_20
REMARK   11  A    between atoms: C_16  and  C_21
REMARK                            x       y       z     vdW  Elec       q    Type
REMARK                         _______ _______ _______ _____ _____    ______ ____
ROOT
ATOM      1  O   UNL     1      -4.241  -0.634  23.767  0.00  0.00    -0.275 OA
ATOM      5  N   UNL     1      -1.943  -0.952  23.627  0.00  0.00    -0.301 N 
ATOM      7  C   UNL     1      -0.644   1.145  23.851  0.00  0.00    +0.016 C 
ATOM      8  C   UNL     1       0.661   0.327  24.022  0.00  0.00    +0.006 C 
ATOM      9  C   UNL     1      -1.700   0.372  23.048  0.00  0.00    +0.112 C 
ATOM     10  C   UNL     1       0.323  -1.059  24.599  0.00  0.00    +0.023 C 
ATOM     11  C   UNL     1      -0.748  -1.789  23.790  0.00  0.00    +0.108 C 
ATOM     14  C   UNL     1      -3.249  -1.353  23.911  0.00  0.00    +0.221 C 
ENDROOT
BRANCH  14  16
ATOM     16  C   UNL     1      -3.428  -2.758  24.430  0.00  0.00    +0.039 C 
ATOM     19  C   UNL     1      -4.793  -3.261  23.960  0.00  0.00    +0.020 C 
ATOM     20  C   UNL     1      -3.365  -2.731  25.958  0.00  0.00    +0.020 C 
ATOM     21  C   UNL     1      -2.311  -3.638  23.868  0.00  0.00    +0.020 C 
ENDBRANCH  14  16
BRANCH   7  12
ATOM     12  C   UNL     1      -0.409   2.526  23.241  0.00  0.00    +0.061 C 
BRANCH  12  15
ATOM      6  N   UNL     1      -0.493   4.642  24.375  0.00  0.00    -0.287 NA
ATOM     15  C   UNL     1      -1.141   3.573  24.045  0.00  0.00    +0.044 C 
ATOM     18  C   UNL     1      -2.556   3.325  24.423  0.00  0.00    -0.001 A 
ATOM     22  C   UNL     1      -3.077   4.101  25.467  0.00  0.00    -0.033 A 
ATOM     23  C   UNL     1      -2.182   5.104  26.133  0.00  0.00    +0.059 C 
ATOM     24  C   UNL     1      -1.223   5.686  25.104  0.00  0.00    +0.146 C 
ATOM     25  C   UNL     1      -3.348   2.363  23.794  0.00  0.00    +0.013 A 
ATOM     26  C   UNL     1      -4.390   3.889  25.895  0.00  0.00    +0.050 A 
ATOM     27  C   UNL     1      -4.663   2.169  24.219  0.00  0.00    +0.046 A 
ATOM     28  C   UNL     1      -5.181   2.927  25.269  0.00  0.00    +0.120 A 
BRANCH  28   4
ATOM      4  O   UNL     1      -6.463   2.726  25.683  0.00  0.00    -0.495 OA
ATOM     29  C   UNL     1      -6.678   1.702  26.653  0.00  0.00    +0.277 C 
ENDBRANCH  28   4
ENDBRANCH  12  15
ENDBRANCH   7  12
BRANCH   8  13
ATOM     13  C   UNL     1       1.489   0.198  22.737  0.00  0.00    +0.124 C 
BRANCH  13  17
ATOM      3  O   UNL     1       3.552   1.479  22.946  0.00  0.00    -0.251 OA
ATOM     17  C   UNL     1       2.953   0.415  22.998  0.00  0.00    +0.305 C 
BRANCH  17   2
ATOM      2  O   UNL     1       3.543  -0.768  23.310  0.00  0.00    -0.481 OA
ATOM     30  H   UNL     1       4.521  -0.716  23.254  0.00  0.00    +0.295 HD
ENDBRANCH  17   2
ENDBRANCH  13  17
ENDBRANCH   8  13
TORSDOF 7
ENDMDL
MODEL 2
REMARK VINA RESULT:       2.0      1.673      5.270
REMARK  Name = 51136663
REMARK  11 active torsions:
REMARK  status: ('A' for Active; 'I' for Inactive)
REMARK    1  A    between atoms: O_2  and  C_17
REMARK    2  A    between atoms: O_4  and  C_28
REMARK    3  A    between atoms: O_4  and  C_29
REMARK    4  A    between atoms: C_7  and  C_12
REMARK    5  A    between atoms: C_8  and  C_13
REMARK    6  A    between atoms: C_12  and  C_15
REMARK    7  A    between atoms: C_13  and  C_17
REMARK    8  A    between atoms: C_14  and  C_16
REMARK    9  A    between atoms: C_16  and  C_19
REMARK   10  A    between atoms: C_16  and  C_20
REMARK   11  A    between atoms: C_16  and  C_21
REMARK                            x       y       z     vdW  Elec       q    Type
REMARK                         _______ _______ _______ _____ _____    ______ ____
ROOT
ATOM      1  O   UNL     1      -1.939   3.285  26.226  0.00  0.00    -0.275 OA
ATOM      5  N   UNL     1      -0.224   2.478  24.879  0.00  0.00    -0.301 N 
ATOM      7  C   UNL     1      -0.485   0.089  24.280  0.00  0.00    +0.016 C 
ATOM      8  C   UNL     1       0.627   0.228  23.211  0.00  0.00    +0.006 C 
ATOM      9  C   UNL     1      -0.321   1.116  25.410  0.00  0.00    +0.112 C 
ATOM     10  C   UNL     1       0.692   1.689  22.728  0.00  0.00    +0.023 C 
ATOM     11  C   UNL     1       0.830   2.684  23.879  0.00  0.00    +0.108 C 
ATOM     14  C   UNL     1      -1.057   3.477  25.384  0.00  0.00    +0.221 C 
ENDROOT
BRANCH  14  16
ATOM     16  C   UNL     1      -0.846   4.871  24.848  0.00  0.00    +0.039 C 
ATOM     19  C   UNL     1      -2.011   5.739  25.322  0.00  0.00    +0.020 C 
ATOM     20  C   UNL     1      -0.811   4.811  23.319  0.00  0.00    +0.020 C 
ATOM     21  C   UNL     1       0.479   5.412  25.388  0.00  0.00    +0.020 C 
ENDBRANCH  14  16
BRANCH   7  12
ATOM     12  C   UNL     1      -0.595  -1.324  24.849  0.00  0.00    +0.061 C 
BRANCH  12  15
ATOM      6  N   UNL     1      -2.191  -3.087  24.510  0.00  0.00    -0.287 NA
ATOM     15  C   UNL     1      -2.013  -1.823  24.717  0.00  0.00    +0.044 C 
ATOM     18  C   UNL     1      -3.127  -0.846  24.820  0.00  0.00    -0.001 A 
ATOM     22  C   UNL     1      -4.371  -1.250  24.318  0.00  0.00    -0.033 A 
ATOM     23  C   UNL     1      -4.491  -2.615  23.705  0.00  0.00    +0.059 C 
ATOM     24  C   UNL     1      -3.571  -3.580  24.442  0.00  0.00    +0.146 C 
ATOM     25  C   UNL     1      -2.968   0.425  25.374  0.00  0.00    +0.013 A 
ATOM     26  C   UNL     1      -5.450  -0.364  24.350  0.00  0.00    +0.050 A 
ATOM     27  C   UNL     1      -4.056   1.299  25.414  0.00  0.00    +0.046 A 
ATOM     28  C   UNL     1      -5.292   0.908  24.901  0.00  0.00    +0.120 A 
BRANCH  28   4
ATOM      4  O   UNL     1      -6.346   1.769  24.938  0.00  0.00    -0.495 OA
ATOM     29  C   UNL     1      -6.108   3.062  25.491  0.00  0.00    +0.277 C 
ENDBRANCH  28   4
ENDBRANCH  12  15
ENDBRANCH   7  12
BRANCH   8  13
ATOM     13  C   UNL     1       2.005  -0.256  23.677  0.00  0.00    +0.124 C 
BRANCH  13  17
ATOM      3  O   UNL     1       3.123   0.157  21.551  0.00  0.00    -0.251 OA
ATOM     17  C   UNL     1       3.100   0.232  22.771  0.00  0.00    +0.305 C 
BRANCH  17   2
ATOM      2  O   UNL     1       4.095   0.785  23.511  0.00  0.00    -0.481 OA
ATOM     30  H   UNL     1       4.822   0.148  23.682  0.00  0.00    +0.295 HD
ENDBRANCH  17   2
ENDBRANCH  13  17
ENDBRANCH   8  13
TORSDOF 7
ENDMDL
MODEL 3
REMARK VINA RESULT:       2.1      1.709      4.745
REMARK  Name = 51136663
REMARK  11 active torsions:
REMARK  status: ('A' for Active; 'I' for Inactive)
REMARK    1  A    between atoms: O_2  and  C_17
REMARK    2  A    between atoms: O_4  and  C_28
REMARK    3  A    between atoms: O_4  and  C_29
REMARK    4  A    between atoms: C_7  and  C_12
REMARK    5  A    between atoms: C_8  and  C_13
REMARK    6  A    between atoms: C_12  and  C_15
REMARK    7  A    between atoms: C_13  and  C_17
REMARK    8  A    between atoms: C_14  and  C_16
REMARK    9  A    between atoms: C_16  and  C_19
REMARK   10  A    between atoms: C_16  and  C_20
REMARK   11  A    between atoms: C_16  and  C_21
REMARK                            x       y       z     vdW  Elec       q    Type
REMARK                         _______ _______ _______ _____ _____    ______ ____
ROOT
ATOM      1  O   UNL     1       3.625   1.771  22.371  0.00  0.00    -0.275 OA
ATOM      5  N   UNL     1       2.153   0.429  23.569  0.00  0.00    -0.301 N 
ATOM      7  C   UNL     1      -0.175   0.530  22.730  0.00  0.00    +0.016 C 
ATOM      8  C   UNL     1      -0.548  -0.700  23.593  0.00  0.00    +0.006 C 
ATOM      9  C   UNL     1       1.006   1.309  23.326  0.00  0.00    +0.112 C 
ATOM     10  C   UNL     1       0.710  -1.555  23.835  0.00  0.00    +0.023 C 
ATOM     11  C   UNL     1       1.872  -0.744  24.405  0.00  0.00    +0.108 C 
ATOM     14  C   UNL     1       3.409   0.779  23.073  0.00  0.00    +0.221 C 
ENDROOT
BRANCH  14  16
ATOM     16  C   UNL     1       4.556  -0.132  23.431  0.00  0.00    +0.039 C 
ATOM     19  C   UNL     1       5.502  -0.190  22.230  0.00  0.00    +0.020 C 
ATOM     20  C   UNL     1       4.002  -1.523  23.742  0.00  0.00    +0.020 C 
ATOM     21  C   UNL     1       5.278   0.438  24.653  0.00  0.00    +0.020 C 
ENDBRANCH  14  16
BRANCH   7  12
ATOM     12  C   UNL     1      -1.359   1.462  22.473  0.00  0.00    +0.061 C 
BRANCH  12  15
ATOM      6  N   UNL     1      -0.440   3.174  23.886  0.00  0.00    -0.287 NA
ATOM     15  C   UNL     1      -1.479   2.460  23.599  0.00  0.00    +0.044 C 
ATOM     18  C   UNL     1      -2.771   2.569  24.323  0.00  0.00    -0.001 A 
ATOM     22  C   UNL     1      -2.743   3.196  25.575  0.00  0.00    -0.033 A 
ATOM     23  C   UNL     1      -1.429   3.695  26.101  0.00  0.00    +0.059 C 
ATOM     24  C   UNL     1      -0.576   4.186  24.939  0.00  0.00    +0.146 C 
ATOM     25  C   UNL     1      -3.968   2.067  23.810  0.00  0.00    +0.013 A 
ATOM     26  C   UNL     1      -3.918   3.295  26.324  0.00  0.00    +0.050 A 
ATOM     27  C   UNL     1      -5.140   2.184  24.560  0.00  0.00    +0.046 A 
ATOM     28  C   UNL     1      -5.115   2.793  25.814  0.00  0.00    +0.120 A 
BRANCH  28   4
ATOM      4  O   UNL     1      -6.261   2.897  26.542  0.00  0.00    -0.495 OA
ATOM     29  C   UNL     1      -6.814   1.686  27.056  0.00  0.00    +0.277 C 
ENDBRANCH  28   4
ENDBRANCH  12  15
ENDBRANCH   7  12
BRANCH   8  13
ATOM     13  C   UNL     1      -1.233  -0.348  24.919  0.00  0.00    +0.124 C 
BRANCH  13  17
ATOM      3  O   UNL     1      -3.446  -0.819  25.827  0.00  0.00    -0.251 OA
ATOM     17  C   UNL     1      -2.504  -1.127  25.111  0.00  0.00    +0.305 C 
BRANCH  17   2
ATOM      2  O   UNL     1      -2.466  -2.257  24.359  0.00  0.00    -0.481 OA
ATOM     30  H   UNL     1      -3.365  -2.560  24.108  0.00  0.00    +0.295 HD
ENDBRANCH  17   2
ENDBRANCH  13  17
ENDBRANCH   8  13
TORSDOF 7
ENDMDL
