MODEL 1
REMARK VINA RESULT:      -0.6      0.000      0.000
REMARK  Name = 38030827
REMARK  15 active torsions:
REMARK  status: ('A' for Active; 'I' for Inactive)
REMARK    1  A    between atoms: O_2  and  C_30
REMARK    2  A    between atoms: O_2  and  C_31
REMARK    3  A    between atoms: N_3  and  C_14
REMARK    4  A    between atoms: N_3  and  C_20
REMARK    5  A    between atoms: N_3  and  C_21
REMARK    6  A    between atoms: C_7  and  C_11
REMARK    7  A    between atoms: C_8  and  C_14
REMARK    8  A    between atoms: C_10  and  C_15
REMARK    9  A    between atoms: C_11  and  C_16
REMARK   10  A    between atoms: C_11  and  C_17
REMARK   11  A    between atoms: C_12  and  C_18
REMARK   12  A    between atoms: C_15  and  C_19
REMARK   13  A    between atoms: C_20  and  C_22
REMARK   14  A    between atoms: C_22  and  C_24
REMARK   15  A    between atoms: C_23  and  C_25
REMARK                            x       y       z     vdW  Elec       q    Type
REMARK                         _______ _______ _______ _____ _____    ______ ____
ROOT
ATOM      7  C   UNL     1      -2.243   3.323  25.692  0.00  0.00    +0.000 C 
ATOM      8  C   UNL     1      -3.700   3.719  25.360  0.00  0.00    +0.029 C 
ATOM      9  C   UNL     1      -1.819   2.097  24.871  0.00  0.00    +0.012 C 
ATOM     10  C   UNL     1      -1.960   2.302  23.347  0.00  0.00    +0.024 C 
ATOM     12  C   UNL     1      -3.215   3.072  22.964  0.00  0.00    -0.073 C 
ATOM     13  C   UNL     1      -3.985   3.689  23.879  0.00  0.00    -0.023 C 
ATOM     18  C   UNL     1      -3.547   3.178  21.501  0.00  0.00    +0.039 C 
ENDROOT
BRANCH   7  11
ATOM     11  C   UNL     1      -1.279   4.497  25.474  0.00  0.00    -0.013 C 
ATOM     16  C   UNL     1      -0.235   4.139  24.422  0.00  0.00    +0.007 C 
ATOM     17  C   UNL     1      -2.048   5.750  25.069  0.00  0.00    +0.007 C 
ENDBRANCH   7  11
BRANCH   8  14
ATOM     14  C   UNL     1      -4.710   2.826  26.087  0.00  0.00    +0.092 C 
BRANCH  14   3
ATOM      3  N   UNL     1      -5.240   1.814  25.189  0.00  0.00    -0.304 NA
ATOM     21  C   UNL     1      -6.702   1.750  25.284  0.00  0.00    +0.104 C 
BRANCH   3  20
ATOM     20  C   UNL     1      -4.658   0.502  25.481  0.00  0.00    +0.099 C 
BRANCH  20  22
ATOM     22  C   UNL     1      -4.529  -0.318  24.200  0.00  0.00    +0.134 C 
BRANCH  22  24
ATOM      6  N   UNL     1      -3.652  -2.743  24.716  0.00  0.00    -0.197 NA
ATOM     24  C   UNL     1      -4.040  -1.673  24.490  0.00  0.00    +0.064 C 
ENDBRANCH  22  24
ENDBRANCH  20  22
ENDBRANCH   3  20
ENDBRANCH  14   3
ENDBRANCH   8  14
BRANCH  10  15
ATOM     15  C   UNL     1      -1.865   0.936  22.658  0.00  0.00    +0.105 C 
BRANCH  15  19
ATOM      1  O   UNL     1       0.526   0.526  22.921  0.00  0.00    -0.420 OA
ATOM      4  N   UNL     1      -0.779  -0.960  23.968  0.00  0.00    -0.112 NA
ATOM      5  N   UNL     1       0.538  -1.310  24.199  0.00  0.00    -0.107 NA
ATOM     19  C   UNL     1      -0.738   0.116  23.218  0.00  0.00    +0.218 A 
ATOM     23  C   UNL     1       1.264  -0.416  23.570  0.00  0.00    +0.248 A 
BRANCH  23  25
ATOM     25  C   UNL     1       2.687  -0.281  23.462  0.00  0.00    +0.039 A 
ATOM     26  C   UNL     1       3.521  -1.320  23.877  0.00  0.00    +0.017 A 
ATOM     27  C   UNL     1       3.240   0.890  22.943  0.00  0.00    +0.017 A 
ATOM     28  C   UNL     1       4.905  -1.189  23.772  0.00  0.00    +0.046 A 
ATOM     29  C   UNL     1       4.625   1.022  22.838  0.00  0.00    +0.046 A 
ATOM     30  C   UNL     1       5.457  -0.018  23.253  0.00  0.00    +0.120 A 
BRANCH  30   2
ATOM      2  O   UNL     1       6.808   0.109  23.148  0.00  0.00    -0.495 OA
ATOM     31  C   UNL     1       7.526  -1.005  22.621  0.00  0.00    +0.277 C 
ENDBRANCH  30   2
ENDBRANCH  23  25
ENDBRANCH  15  19
ENDBRANCH  10  15
TORSDOF 10
ENDMDL
MODEL 2
REMARK VINA RESULT:      -0.4      1.983      4.049
REMARK  Name = 38030827
REMARK  15 active torsions:
REMARK  status: ('A' for Active; 'I' for Inactive)
REMARK    1  A    between atoms: O_2  and  C_30
REMARK    2  A    between atoms: O_2  and  C_31
REMARK    3  A    between atoms: N_3  and  C_14
REMARK    4  A    between atoms: N_3  and  C_20
REMARK    5  A    between atoms: N_3  and  C_21
REMARK    6  A    between atoms: C_7  and  C_11
REMARK    7  A    between atoms: C_8  and  C_14
REMARK    8  A    between atoms: C_10  and  C_15
REMARK    9  A    between atoms: C_11  and  C_16
REMARK   10  A    between atoms: C_11  and  C_17
REMARK   11  A    between atoms: C_12  and  C_18
REMARK   12  A    between atoms: C_15  and  C_19
REMARK   13  A    between atoms: C_20  and  C_22
REMARK   14  A    between atoms: C_22  and  C_24
REMARK   15  A    between atoms: C_23  and  C_25
REMARK                            x       y       z     vdW  Elec       q    Type
REMARK                         _______ _______ _______ _____ _____    ______ ____
ROOT
ATOM      7  C   UNL     1      -3.012   2.849  23.960  0.00  0.00    +0.000 C 
ATOM      8  C   UNL     1      -3.588   3.707  25.111  0.00  0.00    +0.029 C 
ATOM      9  C   UNL     1      -3.039   1.360  24.335  0.00  0.00    +0.012 C 
ATOM     10  C   UNL     1      -4.447   0.846  24.702  0.00  0.00    +0.024 C 
ATOM     12  C   UNL     1      -5.251   1.847  25.520  0.00  0.00    -0.073 C 
ATOM     13  C   UNL     1      -4.844   3.117  25.700  0.00  0.00    -0.023 C 
ATOM     18  C   UNL     1      -6.566   1.386  26.084  0.00  0.00    +0.039 C 
ENDROOT
BRANCH   7  11
ATOM     11  C   UNL     1      -3.759   3.103  22.644  0.00  0.00    -0.013 C 
ATOM     16  C   UNL     1      -4.140   4.574  22.524  0.00  0.00    +0.007 C 
ATOM     17  C   UNL     1      -2.908   2.665  21.456  0.00  0.00    +0.007 C 
ENDBRANCH   7  11
BRANCH   8  14
ATOM     14  C   UNL     1      -2.559   3.922  26.225  0.00  0.00    +0.092 C 
BRANCH  14   3
ATOM      3  N   UNL     1      -1.377   4.592  25.711  0.00  0.00    -0.304 NA
ATOM     21  C   UNL     1      -1.725   5.478  24.596  0.00  0.00    +0.104 C 
BRANCH   3  20
ATOM     20  C   UNL     1      -0.369   3.618  25.285  0.00  0.00    +0.099 C 
BRANCH  20  22
ATOM     22  C   UNL     1      -0.294   2.462  26.279  0.00  0.00    +0.134 C 
BRANCH  22  24
ATOM      6  N   UNL     1       1.696   2.799  27.964  0.00  0.00    -0.197 NA
ATOM     24  C   UNL     1       0.818   2.648  27.221  0.00  0.00    +0.064 C 
ENDBRANCH  22  24
ENDBRANCH  20  22
ENDBRANCH   3  20
ENDBRANCH  14   3
ENDBRANCH   8  14
BRANCH  10  15
ATOM     15  C   UNL     1      -4.307  -0.514  25.396  0.00  0.00    +0.105 C 
BRANCH  15  19
ATOM      1  O   UNL     1      -1.998  -0.364  24.617  0.00  0.00    -0.420 OA
ATOM      4  N   UNL     1      -2.672  -2.444  25.093  0.00  0.00    -0.112 NA
ATOM      5  N   UNL     1      -1.358  -2.507  24.667  0.00  0.00    -0.107 NA
ATOM     19  C   UNL     1      -3.004  -1.175  25.047  0.00  0.00    +0.218 A 
ATOM     23  C   UNL     1      -1.007  -1.270  24.401  0.00  0.00    +0.248 A 
BRANCH  23  25
ATOM     25  C   UNL     1       0.237  -0.738  23.926  0.00  0.00    +0.039 A 
ATOM     26  C   UNL     1       0.311   0.589  23.501  0.00  0.00    +0.017 A 
ATOM     27  C   UNL     1       1.373  -1.546  23.887  0.00  0.00    +0.017 A 
ATOM     28  C   UNL     1       1.520   1.108  23.039  0.00  0.00    +0.046 A 
ATOM     29  C   UNL     1       2.583  -1.028  23.424  0.00  0.00    +0.046 A 
ATOM     30  C   UNL     1       2.656   0.299  23.001  0.00  0.00    +0.120 A 
BRANCH  30   2
ATOM      2  O   UNL     1       3.837   0.806  22.552  0.00  0.00    -0.495 OA
ATOM     31  C   UNL     1       5.017   0.424  23.258  0.00  0.00    +0.277 C 
ENDBRANCH  30   2
ENDBRANCH  23  25
ENDBRANCH  15  19
ENDBRANCH  10  15
TORSDOF 10
ENDMDL
MODEL 3
REMARK VINA RESULT:       0.7      2.855      6.471
REMARK  Name = 38030827
REMARK  15 active torsions:
REMARK  status: ('A' for Active; 'I' for Inactive)
REMARK    1  A    between atoms: O_2  and  C_30
REMARK    2  A    between atoms: O_2  and  C_31
REMARK    3  A    between atoms: N_3  and  C_14
REMARK    4  A    between atoms: N_3  and  C_20
REMARK    5  A    between atoms: N_3  and  C_21
REMARK    6  A    between atoms: C_7  and  C_11
REMARK    7  A    between atoms: C_8  and  C_14
REMARK    8  A    between atoms: C_10  and  C_15
REMARK    9  A    between atoms: C_11  and  C_16
REMARK   10  A    between atoms: C_11  and  C_17
REMARK   11  A    between atoms: C_12  and  C_18
REMARK   12  A    between atoms: C_15  and  C_19
REMARK   13  A    between atoms: C_20  and  C_22
REMARK   14  A    between atoms: C_22  and  C_24
REMARK   15  A    between atoms: C_23  and  C_25
REMARK                            x       y       z     vdW  Elec       q    Type
REMARK                         _______ _______ _______ _____ _____    ______ ____
ROOT
ATOM      7  C   UNL     1      -0.987   3.555  24.126  0.00  0.00    +0.000 C 
ATOM      8  C   UNL     1      -0.682   2.626  25.324  0.00  0.00    +0.029 C 
ATOM      9  C   UNL     1      -2.490   3.856  24.048  0.00  0.00    +0.012 C 
ATOM     10  C   UNL     1      -3.057   4.483  25.340  0.00  0.00    +0.024 C 
ATOM     12  C   UNL     1      -2.473   3.870  26.604  0.00  0.00    -0.073 C 
ATOM     13  C   UNL     1      -1.419   3.033  26.575  0.00  0.00    -0.023 C 
ATOM     18  C   UNL     1      -3.079   4.277  27.919  0.00  0.00    +0.039 C 
ENDROOT
BRANCH   7  11
ATOM     11  C   UNL     1      -0.165   4.850  24.198  0.00  0.00    -0.013 C 
ATOM     16  C   UNL     1       0.429   5.179  22.832  0.00  0.00    +0.007 C 
ATOM     17  C   UNL     1      -1.027   6.001  24.705  0.00  0.00    +0.007 C 
ENDBRANCH   7  11
BRANCH   8  14
ATOM     14  C   UNL     1      -1.005   1.164  25.001  0.00  0.00    +0.092 C 
BRANCH  14   3
ATOM      3  N   UNL     1      -0.290   0.730  23.813  0.00  0.00    -0.304 NA
ATOM     21  C   UNL     1      -0.389  -0.724  23.649  0.00  0.00    +0.104 C 
BRANCH   3  20
ATOM     20  C   UNL     1       1.116   1.136  23.874  0.00  0.00    +0.099 C 
BRANCH  20  22
ATOM     22  C   UNL     1       1.927   0.403  22.809  0.00  0.00    +0.134 C 
BRANCH  22  24
ATOM      6  N   UNL     1       4.503   0.826  23.125  0.00  0.00    -0.197 NA
ATOM     24  C   UNL     1       3.366   0.640  22.987  0.00  0.00    +0.064 C 
ENDBRANCH  22  24
ENDBRANCH  20  22
ENDBRANCH   3  20
ENDBRANCH  14   3
ENDBRANCH   8  14
BRANCH  10  15
ATOM     15  C   UNL     1      -4.588   4.404  25.292  0.00  0.00    +0.105 C 
BRANCH  15  19
ATOM      1  O   UNL     1      -4.285   1.993  25.061  0.00  0.00    -0.420 OA
ATOM      4  N   UNL     1      -6.162   2.584  26.127  0.00  0.00    -0.112 NA
ATOM      5  N   UNL     1      -6.120   1.203  26.067  0.00  0.00    -0.107 NA
ATOM     19  C   UNL     1      -5.072   3.002  25.527  0.00  0.00    +0.218 A 
ATOM     23  C   UNL     1      -5.008   0.904  25.437  0.00  0.00    +0.248 A 
BRANCH  23  25
ATOM     25  C   UNL     1      -4.449  -0.370  25.091  0.00  0.00    +0.039 A 
ATOM     26  C   UNL     1      -4.742  -0.949  23.855  0.00  0.00    +0.017 A 
ATOM     27  C   UNL     1      -3.611  -1.032  25.988  0.00  0.00    +0.017 A 
ATOM     28  C   UNL     1      -4.198  -2.188  23.518  0.00  0.00    +0.046 A 
ATOM     29  C   UNL     1      -3.067  -2.272  25.651  0.00  0.00    +0.046 A 
ATOM     30  C   UNL     1      -3.360  -2.849  24.416  0.00  0.00    +0.120 A 
BRANCH  30   2
ATOM      2  O   UNL     1      -2.827  -4.057  24.086  0.00  0.00    -0.495 OA
ATOM     31  C   UNL     1      -1.772  -4.060  23.125  0.00  0.00    +0.277 C 
ENDBRANCH  30   2
ENDBRANCH  23  25
ENDBRANCH  15  19
ENDBRANCH  10  15
TORSDOF 10
ENDMDL
MODEL 4
REMARK VINA RESULT:       0.8      1.522      2.864
REMARK  Name = 38030827
REMARK  15 active torsions:
REMARK  status: ('A' for Active; 'I' for Inactive)
REMARK    1  A    between atoms: O_2  and  C_30
REMARK    2  A    between atoms: O_2  and  C_31
REMARK    3  A    between atoms: N_3  and  C_14
REMARK    4  A    between atoms: N_3  and  C_20
REMARK    5  A    between atoms: N_3  and  C_21
REMARK    6  A    between atoms: C_7  and  C_11
REMARK    7  A    between atoms: C_8  and  C_14
REMARK    8  A    between atoms: C_10  and  C_15
REMARK    9  A    between atoms: C_11  and  C_16
REMARK   10  A    between atoms: C_11  and  C_17
REMARK   11  A    between atoms: C_12  and  C_18
REMARK   12  A    between atoms: C_15  and  C_19
REMARK   13  A    between atoms: C_20  and  C_22
REMARK   14  A    between atoms: C_22  and  C_24
REMARK   15  A    between atoms: C_23  and  C_25
REMARK                            x       y       z     vdW  Elec       q    Type
REMARK                         _______ _______ _______ _____ _____    ______ ____
ROOT
ATOM      7  C   UNL     1      -4.239   1.596  25.593  0.00  0.00    +0.000 C 
ATOM      8  C   UNL     1      -4.353   0.405  24.613  0.00  0.00    +0.029 C 
ATOM      9  C   UNL     1      -2.848   2.239  25.496  0.00  0.00    +0.012 C 
ATOM     10  C   UNL     1      -2.489   2.712  24.071  0.00  0.00    +0.024 C 
ATOM     12  C   UNL     1      -2.952   1.746  22.990  0.00  0.00    -0.073 C 
ATOM     13  C   UNL     1      -3.776   0.715  23.255  0.00  0.00    -0.023 C 
ATOM     18  C   UNL     1      -2.504   2.014  21.580  0.00  0.00    +0.039 C 
ENDROOT
BRANCH   7  11
ATOM     11  C   UNL     1      -5.346   2.630  25.350  0.00  0.00    -0.013 C 
ATOM     16  C   UNL     1      -6.600   2.261  26.135  0.00  0.00    +0.007 C 
ATOM     17  C   UNL     1      -4.863   4.026  25.727  0.00  0.00    +0.007 C 
ENDBRANCH   7  11
BRANCH   8  14
ATOM     14  C   UNL     1      -3.681  -0.854  25.171  0.00  0.00    +0.092 C 
BRANCH  14   3
ATOM      3  N   UNL     1      -3.426  -1.813  24.111  0.00  0.00    -0.304 NA
ATOM     21  C   UNL     1      -4.682  -2.371  23.601  0.00  0.00    +0.104 C 
BRANCH   3  20
ATOM     20  C   UNL     1      -2.550  -2.889  24.581  0.00  0.00    +0.099 C 
BRANCH  20  22
ATOM     22  C   UNL     1      -1.098  -2.420  24.606  0.00  0.00    +0.134 C 
BRANCH  22  24
ATOM      6  N   UNL     1      -0.750  -0.523  26.393  0.00  0.00    -0.197 NA
ATOM     24  C   UNL     1      -0.904  -1.361  25.605  0.00  0.00    +0.064 C 
ENDBRANCH  22  24
ENDBRANCH  20  22
ENDBRANCH   3  20
ENDBRANCH  14   3
ENDBRANCH   8  14
BRANCH  10  15
ATOM     15  C   UNL     1      -0.983   2.993  24.013  0.00  0.00    +0.105 C 
BRANCH  15  19
ATOM      1  O   UNL     1       1.128   1.785  23.817  0.00  0.00    -0.420 OA
ATOM      4  N   UNL     1      -0.641   0.675  23.015  0.00  0.00    -0.112 NA
ATOM      5  N   UNL     1       0.477  -0.119  22.840  0.00  0.00    -0.107 NA
ATOM     19  C   UNL     1      -0.214   1.776  23.587  0.00  0.00    +0.218 A 
ATOM     23  C   UNL     1       1.486   0.568  23.322  0.00  0.00    +0.248 A 
BRANCH  23  25
ATOM     25  C   UNL     1       2.879   0.242  23.406  0.00  0.00    +0.039 A 
ATOM     26  C   UNL     1       3.274  -1.052  23.747  0.00  0.00    +0.017 A 
ATOM     27  C   UNL     1       3.841   1.219  23.149  0.00  0.00    +0.017 A 
ATOM     28  C   UNL     1       4.630  -1.370  23.829  0.00  0.00    +0.046 A 
ATOM     29  C   UNL     1       5.198   0.902  23.231  0.00  0.00    +0.046 A 
ATOM     30  C   UNL     1       5.591  -0.393  23.571  0.00  0.00    +0.120 A 
BRANCH  30   2
ATOM      2  O   UNL     1       6.914  -0.703  23.648  0.00  0.00    -0.495 OA
ATOM     31  C   UNL     1       7.597  -0.943  22.419  0.00  0.00    +0.277 C 
ENDBRANCH  30   2
ENDBRANCH  23  25
ENDBRANCH  15  19
ENDBRANCH  10  15
TORSDOF 10
ENDMDL
MODEL 5
REMARK VINA RESULT:       1.1      2.187      4.395
REMARK  Name = 38030827
REMARK  15 active torsions:
REMARK  status: ('A' for Active; 'I' for Inactive)
REMARK    1  A    between atoms: O_2  and  C_30
REMARK    2  A    between atoms: O_2  and  C_31
REMARK    3  A    between atoms: N_3  and  C_14
REMARK    4  A    between atoms: N_3  and  C_20
REMARK    5  A    between atoms: N_3  and  C_21
REMARK    6  A    between atoms: C_7  and  C_11
REMARK    7  A    between atoms: C_8  and  C_14
REMARK    8  A    between atoms: C_10  and  C_15
REMARK    9  A    between atoms: C_11  and  C_16
REMARK   10  A    between atoms: C_11  and  C_17
REMARK   11  A    between atoms: C_12  and  C_18
REMARK   12  A    between atoms: C_15  and  C_19
REMARK   13  A    between atoms: C_20  and  C_22
REMARK   14  A    between atoms: C_22  and  C_24
REMARK   15  A    between atoms: C_23  and  C_25
REMARK                            x       y       z     vdW  Elec       q    Type
REMARK                         _______ _______ _______ _____ _____    ______ ____
ROOT
ATOM      7  C   UNL     1      -4.379   2.652  24.610  0.00  0.00    +0.000 C 
ATOM      8  C   UNL     1      -3.101   2.643  25.481  0.00  0.00    +0.029 C 
ATOM      9  C   UNL     1      -4.483   1.355  23.795  0.00  0.00    +0.012 C 
ATOM     10  C   UNL     1      -4.465   0.081  24.666  0.00  0.00    +0.024 C 
ATOM     12  C   UNL     1      -3.485   0.168  25.827  0.00  0.00    -0.073 C 
ATOM     13  C   UNL     1      -2.878   1.320  26.168  0.00  0.00    -0.023 C 
ATOM     18  C   UNL     1      -3.255  -1.078  26.637  0.00  0.00    +0.039 C 
ENDROOT
BRANCH   7  11
ATOM     11  C   UNL     1      -5.637   2.873  25.462  0.00  0.00    -0.013 C 
ATOM     16  C   UNL     1      -5.993   4.355  25.509  0.00  0.00    +0.007 C 
ATOM     17  C   UNL     1      -6.801   2.053  24.915  0.00  0.00    +0.007 C 
ENDBRANCH   7  11
BRANCH   8  14
ATOM     14  C   UNL     1      -1.857   3.004  24.663  0.00  0.00    +0.092 C 
BRANCH  14   3
ATOM      3  N   UNL     1      -0.958   3.841  25.439  0.00  0.00    -0.304 NA
ATOM     21  C   UNL     1      -0.702   5.108  24.748  0.00  0.00    +0.104 C 
BRANCH   3  20
ATOM     20  C   UNL     1       0.305   3.146  25.702  0.00  0.00    +0.099 C 
BRANCH  20  22
ATOM     22  C   UNL     1       0.228   2.386  27.023  0.00  0.00    +0.134 C 
BRANCH  22  24
ATOM      6  N   UNL     1       2.320   2.905  28.529  0.00  0.00    -0.197 NA
ATOM     24  C   UNL     1       1.397   2.674  27.865  0.00  0.00    +0.064 C 
ENDBRANCH  22  24
ENDBRANCH  20  22
ENDBRANCH   3  20
ENDBRANCH  14   3
ENDBRANCH   8  14
BRANCH  10  15
ATOM     15  C   UNL     1      -4.208  -1.129  23.759  0.00  0.00    +0.105 C 
BRANCH  15  19
ATOM      1  O   UNL     1      -1.817  -0.666  23.595  0.00  0.00    -0.420 OA
ATOM      4  N   UNL     1      -2.306  -2.777  24.153  0.00  0.00    -0.112 NA
ATOM      5  N   UNL     1      -0.930  -2.657  24.096  0.00  0.00    -0.107 NA
ATOM     19  C   UNL     1      -2.782  -1.591  23.853  0.00  0.00    +0.218 A 
ATOM     23  C   UNL     1      -0.690  -1.409  23.768  0.00  0.00    +0.248 A 
BRANCH  23  25
ATOM     25  C   UNL     1       0.552  -0.721  23.566  0.00  0.00    +0.039 A 
ATOM     26  C   UNL     1       0.565   0.666  23.418  0.00  0.00    +0.017 A 
ATOM     27  C   UNL     1       1.747  -1.438  23.516  0.00  0.00    +0.017 A 
ATOM     28  C   UNL     1       1.772   1.336  23.221  0.00  0.00    +0.046 A 
ATOM     29  C   UNL     1       2.955  -0.769  23.319  0.00  0.00    +0.046 A 
ATOM     30  C   UNL     1       2.967   0.618  23.172  0.00  0.00    +0.120 A 
BRANCH  30   2
ATOM      2  O   UNL     1       4.146   1.271  22.983  0.00  0.00    -0.495 OA
ATOM     31  C   UNL     1       5.332   0.611  23.423  0.00  0.00    +0.277 C 
ENDBRANCH  30   2
ENDBRANCH  23  25
ENDBRANCH  15  19
ENDBRANCH  10  15
TORSDOF 10
ENDMDL
MODEL 6
REMARK VINA RESULT:       1.7      1.691      3.985
REMARK  Name = 38030827
REMARK  15 active torsions:
REMARK  status: ('A' for Active; 'I' for Inactive)
REMARK    1  A    between atoms: O_2  and  C_30
REMARK    2  A    between atoms: O_2  and  C_31
REMARK    3  A    between atoms: N_3  and  C_14
REMARK    4  A    between atoms: N_3  and  C_20
REMARK    5  A    between atoms: N_3  and  C_21
REMARK    6  A    between atoms: C_7  and  C_11
REMARK    7  A    between atoms: C_8  and  C_14
REMARK    8  A    between atoms: C_10  and  C_15
REMARK    9  A    between atoms: C_11  and  C_16
REMARK   10  A    between atoms: C_11  and  C_17
REMARK   11  A    between atoms: C_12  and  C_18
REMARK   12  A    between atoms: C_15  and  C_19
REMARK   13  A    between atoms: C_20  and  C_22
REMARK   14  A    between atoms: C_22  and  C_24
REMARK   15  A    between atoms: C_23  and  C_25
REMARK                            x       y       z     vdW  Elec       q    Type
REMARK                         _______ _______ _______ _____ _____    ______ ____
ROOT
ATOM      7  C   UNL     1      -4.330  -0.617  24.026  0.00  0.00    +0.000 C 
ATOM      8  C   UNL     1      -4.649   0.248  25.268  0.00  0.00    +0.029 C 
ATOM      9  C   UNL     1      -3.207   0.025  23.199  0.00  0.00    +0.012 C 
ATOM     10  C   UNL     1      -1.912   0.262  24.005  0.00  0.00    +0.024 C 
ATOM     12  C   UNL     1      -2.174   0.742  25.425  0.00  0.00    -0.073 C 
ATOM     13  C   UNL     1      -3.406   0.738  25.967  0.00  0.00    -0.023 C 
ATOM     18  C   UNL     1      -0.988   1.174  26.243  0.00  0.00    +0.039 C 
ENDROOT
BRANCH   7  11
ATOM     11  C   UNL     1      -3.974  -2.056  24.421  0.00  0.00    -0.013 C 
ATOM     16  C   UNL     1      -4.700  -3.050  23.521  0.00  0.00    +0.007 C 
ATOM     17  C   UNL     1      -2.466  -2.269  24.357  0.00  0.00    +0.007 C 
ENDBRANCH   7  11
BRANCH   8  14
ATOM     14  C   UNL     1      -5.534   1.446  24.912  0.00  0.00    +0.092 C 
BRANCH  14   3
ATOM      3  N   UNL     1      -4.864   2.694  25.238  0.00  0.00    -0.304 NA
ATOM     21  C   UNL     1      -5.822   3.681  25.745  0.00  0.00    +0.104 C 
BRANCH   3  20
ATOM     20  C   UNL     1      -4.161   3.228  24.069  0.00  0.00    +0.099 C 
BRANCH  20  22
ATOM     22  C   UNL     1      -3.548   4.588  24.394  0.00  0.00    +0.134 C 
BRANCH  22  24
ATOM      6  N   UNL     1      -1.060   4.332  25.205  0.00  0.00    -0.197 NA
ATOM     24  C   UNL     1      -2.159   4.444  24.848  0.00  0.00    +0.064 C 
ENDBRANCH  22  24
ENDBRANCH  20  22
ENDBRANCH   3  20
ENDBRANCH  14   3
ENDBRANCH   8  14
BRANCH  10  15
ATOM     15  C   UNL     1      -1.009   1.214  23.212  0.00  0.00    +0.105 C 
BRANCH  15  19
ATOM      1  O   UNL     1       1.365   0.657  23.315  0.00  0.00    -0.420 OA
ATOM      4  N   UNL     1       0.277  -0.280  21.599  0.00  0.00    -0.112 NA
ATOM      5  N   UNL     1       1.600  -0.677  21.534  0.00  0.00    -0.107 NA
ATOM     19  C   UNL     1       0.186   0.497  22.652  0.00  0.00    +0.218 A 
ATOM     23  C   UNL     1       2.197  -0.107  22.555  0.00  0.00    +0.248 A 
BRANCH  23  25
ATOM     25  C   UNL     1       3.564  -0.163  22.984  0.00  0.00    +0.039 A 
ATOM     26  C   UNL     1       4.395   0.944  22.813  0.00  0.00    +0.017 A 
ATOM     27  C   UNL     1       4.063  -1.325  23.573  0.00  0.00    +0.017 A 
ATOM     28  C   UNL     1       5.725   0.890  23.230  0.00  0.00    +0.046 A 
ATOM     29  C   UNL     1       5.393  -1.380  23.991  0.00  0.00    +0.046 A 
ATOM     30  C   UNL     1       6.223  -0.272  23.819  0.00  0.00    +0.120 A 
BRANCH  30   2
ATOM      2  O   UNL     1       7.520  -0.324  24.229  0.00  0.00    -0.495 OA
ATOM     31  C   UNL     1       8.525  -0.230  23.221  0.00  0.00    +0.277 C 
ENDBRANCH  30   2
ENDBRANCH  23  25
ENDBRANCH  15  19
ENDBRANCH  10  15
TORSDOF 10
ENDMDL
MODEL 7
REMARK VINA RESULT:       1.7      2.131      4.129
REMARK  Name = 38030827
REMARK  15 active torsions:
REMARK  status: ('A' for Active; 'I' for Inactive)
REMARK    1  A    between atoms: O_2  and  C_30
REMARK    2  A    between atoms: O_2  and  C_31
REMARK    3  A    between atoms: N_3  and  C_14
REMARK    4  A    between atoms: N_3  and  C_20
REMARK    5  A    between atoms: N_3  and  C_21
REMARK    6  A    between atoms: C_7  and  C_11
REMARK    7  A    between atoms: C_8  and  C_14
REMARK    8  A    between atoms: C_10  and  C_15
REMARK    9  A    between atoms: C_11  and  C_16
REMARK   10  A    between atoms: C_11  and  C_17
REMARK   11  A    between atoms: C_12  and  C_18
REMARK   12  A    between atoms: C_15  and  C_19
REMARK   13  A    between atoms: C_20  and  C_22
REMARK   14  A    between atoms: C_22  and  C_24
REMARK   15  A    between atoms: C_23  and  C_25
REMARK                            x       y       z     vdW  Elec       q    Type
REMARK                         _______ _______ _______ _____ _____    ______ ____
ROOT
ATOM      7  C   UNL     1      -4.689   0.970  25.509  0.00  0.00    +0.000 C 
ATOM      8  C   UNL     1      -4.275   0.879  24.022  0.00  0.00    +0.029 C 
ATOM      9  C   UNL     1      -3.895   2.074  26.222  0.00  0.00    +0.012 C 
ATOM     10  C   UNL     1      -4.046   3.461  25.561  0.00  0.00    +0.024 C 
ATOM     12  C   UNL     1      -4.057   3.398  24.041  0.00  0.00    -0.073 C 
ATOM     13  C   UNL     1      -4.149   2.234  23.372  0.00  0.00    -0.023 C 
ATOM     18  C   UNL     1      -4.022   4.701  23.291  0.00  0.00    +0.039 C 
ENDROOT
BRANCH   7  11
ATOM     11  C   UNL     1      -6.201   1.191  25.658  0.00  0.00    -0.013 C 
ATOM     16  C   UNL     1      -6.488   2.142  26.815  0.00  0.00    +0.007 C 
ATOM     17  C   UNL     1      -6.791   1.728  24.358  0.00  0.00    +0.007 C 
ENDBRANCH   7  11
BRANCH   8  14
ATOM     14  C   UNL     1      -2.962   0.110  23.847  0.00  0.00    +0.092 C 
BRANCH  14   3
ATOM      3  N   UNL     1      -3.130  -1.284  24.218  0.00  0.00    -0.304 NA
ATOM     21  C   UNL     1      -4.417  -1.798  23.741  0.00  0.00    +0.104 C 
BRANCH   3  20
ATOM     20  C   UNL     1      -3.026  -1.453  25.670  0.00  0.00    +0.099 C 
BRANCH  20  22
ATOM     22  C   UNL     1      -1.685  -0.923  26.172  0.00  0.00    +0.134 C 
BRANCH  22  24
ATOM      6  N   UNL     1       0.278  -2.529  25.477  0.00  0.00    -0.197 NA
ATOM     24  C   UNL     1      -0.587  -1.820  25.784  0.00  0.00    +0.064 C 
ENDBRANCH  22  24
ENDBRANCH  20  22
ENDBRANCH   3  20
ENDBRANCH  14   3
ENDBRANCH   8  14
BRANCH  10  15
ATOM     15  C   UNL     1      -2.955   4.387  26.111  0.00  0.00    +0.105 C 
BRANCH  15  19
ATOM      1  O   UNL     1      -1.209   3.051  25.052  0.00  0.00    -0.420 OA
ATOM      4  N   UNL     1      -0.977   5.257  24.763  0.00  0.00    -0.112 NA
ATOM      5  N   UNL     1       0.071   4.629  24.117  0.00  0.00    -0.107 NA
ATOM     19  C   UNL     1      -1.698   4.299  25.294  0.00  0.00    +0.218 A 
ATOM     23  C   UNL     1      -0.105   3.343  24.311  0.00  0.00    +0.248 A 
BRANCH  23  25
ATOM     25  C   UNL     1       0.672   2.220  23.874  0.00  0.00    +0.039 A 
ATOM     26  C   UNL     1       2.035   2.371  23.618  0.00  0.00    +0.017 A 
ATOM     27  C   UNL     1       0.064   0.976  23.702  0.00  0.00    +0.017 A 
ATOM     28  C   UNL     1       2.791   1.279  23.193  0.00  0.00    +0.046 A 
ATOM     29  C   UNL     1       0.819  -0.117  23.276  0.00  0.00    +0.046 A 
ATOM     30  C   UNL     1       2.183   0.035  23.022  0.00  0.00    +0.120 A 
BRANCH  30   2
ATOM      2  O   UNL     1       2.920  -1.032  22.609  0.00  0.00    -0.495 OA
ATOM     31  C   UNL     1       4.015  -1.424  23.436  0.00  0.00    +0.277 C 
ENDBRANCH  30   2
ENDBRANCH  23  25
ENDBRANCH  15  19
ENDBRANCH  10  15
TORSDOF 10
ENDMDL
MODEL 8
REMARK VINA RESULT:       1.9      3.395      5.412
REMARK  Name = 38030827
REMARK  15 active torsions:
REMARK  status: ('A' for Active; 'I' for Inactive)
REMARK    1  A    between atoms: O_2  and  C_30
REMARK    2  A    between atoms: O_2  and  C_31
REMARK    3  A    between atoms: N_3  and  C_14
REMARK    4  A    between atoms: N_3  and  C_20
REMARK    5  A    between atoms: N_3  and  C_21
REMARK    6  A    between atoms: C_7  and  C_11
REMARK    7  A    between atoms: C_8  and  C_14
REMARK    8  A    between atoms: C_10  and  C_15
REMARK    9  A    between atoms: C_11  and  C_16
REMARK   10  A    between atoms: C_11  and  C_17
REMARK   11  A    between atoms: C_12  and  C_18
REMARK   12  A    between atoms: C_15  and  C_19
REMARK   13  A    between atoms: C_20  and  C_22
REMARK   14  A    between atoms: C_22  and  C_24
REMARK   15  A    between atoms: C_23  and  C_25
REMARK                            x       y       z     vdW  Elec       q    Type
REMARK                         _______ _______ _______ _____ _____    ______ ____
ROOT
ATOM      7  C   UNL     1      -4.419   1.689  25.676  0.00  0.00    +0.000 C 
ATOM      8  C   UNL     1      -4.050   0.489  24.773  0.00  0.00    +0.029 C 
ATOM      9  C   UNL     1      -3.414   2.833  25.485  0.00  0.00    +0.012 C 
ATOM     10  C   UNL     1      -3.299   3.310  24.021  0.00  0.00    +0.024 C 
ATOM     12  C   UNL     1      -3.342   2.166  23.018  0.00  0.00    -0.073 C 
ATOM     13  C   UNL     1      -3.669   0.911  23.376  0.00  0.00    -0.023 C 
ATOM     18  C   UNL     1      -3.062   2.494  21.578  0.00  0.00    +0.039 C 
ENDROOT
BRANCH   7  11
ATOM     11  C   UNL     1      -5.855   2.163  25.419  0.00  0.00    -0.013 C 
ATOM     16  C   UNL     1      -6.794   1.624  26.493  0.00  0.00    +0.007 C 
ATOM     17  C   UNL     1      -5.911   3.686  25.366  0.00  0.00    +0.007 C 
ENDBRANCH   7  11
BRANCH   8  14
ATOM     14  C   UNL     1      -2.916  -0.345  25.375  0.00  0.00    +0.092 C 
BRANCH  14   3
ATOM      3  N   UNL     1      -2.670  -1.533  24.575  0.00  0.00    -0.304 NA
ATOM     21  C   UNL     1      -3.515  -2.645  25.021  0.00  0.00    +0.104 C 
BRANCH   3  20
ATOM     20  C   UNL     1      -1.258  -1.918  24.633  0.00  0.00    +0.099 C 
BRANCH  20  22
ATOM     22  C   UNL     1      -0.375  -0.680  24.770  0.00  0.00    +0.134 C 
BRANCH  22  24
ATOM      6  N   UNL     1       1.059  -0.301  22.599  0.00  0.00    -0.197 NA
ATOM     24  C   UNL     1       0.425  -0.467  23.557  0.00  0.00    +0.064 C 
ENDBRANCH  22  24
ENDBRANCH  20  22
ENDBRANCH   3  20
ENDBRANCH  14   3
ENDBRANCH   8  14
BRANCH  10  15
ATOM     15  C   UNL     1      -2.040   4.175  23.885  0.00  0.00    +0.105 C 
BRANCH  15  19
ATOM      1  O   UNL     1      -0.767   3.494  25.853  0.00  0.00    -0.420 OA
ATOM      4  N   UNL     1       0.166   2.902  23.907  0.00  0.00    -0.112 NA
ATOM      5  N   UNL     1       0.986   2.457  24.927  0.00  0.00    -0.107 NA
ATOM     19  C   UNL     1      -0.844   3.501  24.493  0.00  0.00    +0.218 A 
ATOM     23  C   UNL     1       0.402   2.824  26.044  0.00  0.00    +0.248 A 
BRANCH  23  25
ATOM     25  C   UNL     1       0.799   2.633  27.409  0.00  0.00    +0.039 A 
ATOM     26  C   UNL     1       2.142   2.749  27.768  0.00  0.00    +0.017 A 
ATOM     27  C   UNL     1      -0.157   2.331  28.378  0.00  0.00    +0.017 A 
ATOM     28  C   UNL     1       2.529   2.563  29.095  0.00  0.00    +0.046 A 
ATOM     29  C   UNL     1       0.229   2.145  29.706  0.00  0.00    +0.046 A 
ATOM     30  C   UNL     1       1.572   2.261  30.064  0.00  0.00    +0.120 A 
BRANCH  30   2
ATOM      2  O   UNL     1       1.948   2.083  31.359  0.00  0.00    -0.495 OA
ATOM     31  C   UNL     1       0.912   2.074  32.341  0.00  0.00    +0.277 C 
ENDBRANCH  30   2
ENDBRANCH  23  25
ENDBRANCH  15  19
ENDBRANCH  10  15
TORSDOF 10
ENDMDL
MODEL 9
REMARK VINA RESULT:       1.9      1.872      3.910
REMARK  Name = 38030827
REMARK  15 active torsions:
REMARK  status: ('A' for Active; 'I' for Inactive)
REMARK    1  A    between atoms: O_2  and  C_30
REMARK    2  A    between atoms: O_2  and  C_31
REMARK    3  A    between atoms: N_3  and  C_14
REMARK    4  A    between atoms: N_3  and  C_20
REMARK    5  A    between atoms: N_3  and  C_21
REMARK    6  A    between atoms: C_7  and  C_11
REMARK    7  A    between atoms: C_8  and  C_14
REMARK    8  A    between atoms: C_10  and  C_15
REMARK    9  A    between atoms: C_11  and  C_16
REMARK   10  A    between atoms: C_11  and  C_17
REMARK   11  A    between atoms: C_12  and  C_18
REMARK   12  A    between atoms: C_15  and  C_19
REMARK   13  A    between atoms: C_20  and  C_22
REMARK   14  A    between atoms: C_22  and  C_24
REMARK   15  A    between atoms: C_23  and  C_25
REMARK                            x       y       z     vdW  Elec       q    Type
REMARK                         _______ _______ _______ _____ _____    ______ ____
ROOT
ATOM      7  C   UNL     1      -4.305   1.585  24.301  0.00  0.00    +0.000 C 
ATOM      8  C   UNL     1      -3.290   2.446  25.089  0.00  0.00    +0.029 C 
ATOM      9  C   UNL     1      -3.613   0.350  23.706  0.00  0.00    +0.012 C 
ATOM     10  C   UNL     1      -2.909  -0.526  24.763  0.00  0.00    +0.024 C 
ATOM     12  C   UNL     1      -2.206   0.288  25.839  0.00  0.00    -0.073 C 
ATOM     13  C   UNL     1      -2.381   1.617  25.960  0.00  0.00    -0.023 C 
ATOM     18  C   UNL     1      -1.340  -0.454  26.818  0.00  0.00    +0.039 C 
ENDROOT
BRANCH   7  11
ATOM     11  C   UNL     1      -5.498   1.183  25.178  0.00  0.00    -0.013 C 
ATOM     16  C   UNL     1      -5.773   2.256  26.227  0.00  0.00    +0.007 C 
ATOM     17  C   UNL     1      -6.733   0.939  24.317  0.00  0.00    +0.007 C 
ENDBRANCH   7  11
BRANCH   8  14
ATOM     14  C   UNL     1      -2.441   3.315  24.156  0.00  0.00    +0.092 C 
BRANCH  14   3
ATOM      3  N   UNL     1      -1.381   3.979  24.895  0.00  0.00    -0.304 NA
ATOM     21  C   UNL     1      -1.641   5.418  24.997  0.00  0.00    +0.104 C 
BRANCH   3  20
ATOM     20  C   UNL     1      -0.080   3.745  24.264  0.00  0.00    +0.099 C 
BRANCH  20  22
ATOM     22  C   UNL     1       0.556   2.470  24.812  0.00  0.00    +0.134 C 
BRANCH  22  24
ATOM      6  N   UNL     1       0.758   2.567  27.432  0.00  0.00    -0.197 NA
ATOM     24  C   UNL     1       0.669   2.526  26.276  0.00  0.00    +0.064 C 
ENDBRANCH  22  24
ENDBRANCH  20  22
ENDBRANCH   3  20
ENDBRANCH  14   3
ENDBRANCH   8  14
BRANCH  10  15
ATOM     15  C   UNL     1      -1.968  -1.500  24.043  0.00  0.00    +0.105 C 
BRANCH  15  19
ATOM      1  O   UNL     1       0.415  -1.027  23.803  0.00  0.00    -0.420 OA
ATOM      4  N   UNL     1      -0.891   0.089  22.369  0.00  0.00    -0.112 NA
ATOM      5  N   UNL     1       0.421   0.450  22.124  0.00  0.00    -0.107 NA
ATOM     19  C   UNL     1      -0.847  -0.774  23.357  0.00  0.00    +0.218 A 
ATOM     23  C   UNL     1       1.147  -0.225  22.983  0.00  0.00    +0.248 A 
BRANCH  23  25
ATOM     25  C   UNL     1       2.566  -0.248  23.188  0.00  0.00    +0.039 A 
ATOM     26  C   UNL     1       3.177  -1.385  23.718  0.00  0.00    +0.017 A 
ATOM     27  C   UNL     1       3.337   0.866  22.859  0.00  0.00    +0.017 A 
ATOM     28  C   UNL     1       4.557  -1.408  23.918  0.00  0.00    +0.046 A 
ATOM     29  C   UNL     1       4.718   0.844  23.059  0.00  0.00    +0.046 A 
ATOM     30  C   UNL     1       5.327  -0.293  23.588  0.00  0.00    +0.120 A 
BRANCH  30   2
ATOM      2  O   UNL     1       6.674  -0.316  23.780  0.00  0.00    -0.495 OA
ATOM     31  C   UNL     1       7.480  -0.727  22.677  0.00  0.00    +0.277 C 
ENDBRANCH  30   2
ENDBRANCH  23  25
ENDBRANCH  15  19
ENDBRANCH  10  15
TORSDOF 10
ENDMDL
MODEL 10
REMARK VINA RESULT:       2.5      2.122      3.920
REMARK  Name = 38030827
REMARK  15 active torsions:
REMARK  status: ('A' for Active; 'I' for Inactive)
REMARK    1  A    between atoms: O_2  and  C_30
REMARK    2  A    between atoms: O_2  and  C_31
REMARK    3  A    between atoms: N_3  and  C_14
REMARK    4  A    between atoms: N_3  and  C_20
REMARK    5  A    between atoms: N_3  and  C_21
REMARK    6  A    between atoms: C_7  and  C_11
REMARK    7  A    between atoms: C_8  and  C_14
REMARK    8  A    between atoms: C_10  and  C_15
REMARK    9  A    between atoms: C_11  and  C_16
REMARK   10  A    between atoms: C_11  and  C_17
REMARK   11  A    between atoms: C_12  and  C_18
REMARK   12  A    between atoms: C_15  and  C_19
REMARK   13  A    between atoms: C_20  and  C_22
REMARK   14  A    between atoms: C_22  and  C_24
REMARK   15  A    between atoms: C_23  and  C_25
REMARK                            x       y       z     vdW  Elec       q    Type
REMARK                         _______ _______ _______ _____ _____    ______ ____
ROOT
ATOM      7  C   UNL     1      -4.684   1.863  25.900  0.00  0.00    +0.000 C 
ATOM      8  C   UNL     1      -4.102   0.813  24.925  0.00  0.00    +0.029 C 
ATOM      9  C   UNL     1      -4.006   3.224  25.691  0.00  0.00    +0.012 C 
ATOM     10  C   UNL     1      -4.122   3.749  24.244  0.00  0.00    +0.024 C 
ATOM     12  C   UNL     1      -3.960   2.655  23.199  0.00  0.00    -0.073 C 
ATOM     13  C   UNL     1      -3.942   1.350  23.525  0.00  0.00    -0.023 C 
ATOM     18  C   UNL     1      -3.878   3.077  21.758  0.00  0.00    +0.039 C 
ENDROOT
BRANCH   7  11
ATOM     11  C   UNL     1      -6.208   1.974  25.760  0.00  0.00    -0.013 C 
ATOM     16  C   UNL     1      -6.697   1.137  24.584  0.00  0.00    +0.007 C 
ATOM     17  C   UNL     1      -6.894   1.545  27.053  0.00  0.00    +0.007 C 
ENDBRANCH   7  11
BRANCH   8  14
ATOM     14  C   UNL     1      -2.756   0.270  25.414  0.00  0.00    +0.092 C 
BRANCH  14   3
ATOM      3  N   UNL     1      -2.845  -1.154  25.686  0.00  0.00    -0.304 NA
ATOM     21  C   UNL     1      -2.677  -1.423  27.117  0.00  0.00    +0.104 C 
BRANCH   3  20
ATOM     20  C   UNL     1      -1.845  -1.895  24.913  0.00  0.00    +0.099 C 
BRANCH  20  22
ATOM     22  C   UNL     1      -2.485  -3.105  24.237  0.00  0.00    +0.134 C 
BRANCH  22  24
ATOM      6  N   UNL     1      -4.936  -2.560  23.454  0.00  0.00    -0.197 NA
ATOM     24  C   UNL     1      -3.854  -2.799  23.798  0.00  0.00    +0.064 C 
ENDBRANCH  22  24
ENDBRANCH  20  22
ENDBRANCH   3  20
ENDBRANCH  14   3
ENDBRANCH   8  14
BRANCH  10  15
ATOM     15  C   UNL     1      -3.126   4.901  24.059  0.00  0.00    +0.105 C 
BRANCH  15  19
ATOM      1  O   UNL     1      -1.282   3.319  23.826  0.00  0.00    -0.420 OA
ATOM      4  N   UNL     1      -0.838   5.053  25.168  0.00  0.00    -0.112 NA
ATOM      5  N   UNL     1       0.283   4.245  25.129  0.00  0.00    -0.107 NA
ATOM     19  C   UNL     1      -1.726   4.474  24.395  0.00  0.00    +0.218 A 
ATOM     23  C   UNL     1      -0.022   3.246  24.334  0.00  0.00    +0.248 A 
BRANCH  23  25
ATOM     25  C   UNL     1       0.753   2.111  23.926  0.00  0.00    +0.039 A 
ATOM     26  C   UNL     1       0.168   0.845  23.882  0.00  0.00    +0.017 A 
ATOM     27  C   UNL     1       2.093   2.271  23.574  0.00  0.00    +0.017 A 
ATOM     28  C   UNL     1       0.921  -0.259  23.486  0.00  0.00    +0.046 A 
ATOM     29  C   UNL     1       2.848   1.166  23.177  0.00  0.00    +0.046 A 
ATOM     30  C   UNL     1       2.261  -0.098  23.133  0.00  0.00    +0.120 A 
BRANCH  30   2
ATOM      2  O   UNL     1       2.996  -1.175  22.743  0.00  0.00    -0.495 OA
ATOM     31  C   UNL     1       4.167  -1.472  23.503  0.00  0.00    +0.277 C 
ENDBRANCH  30   2
ENDBRANCH  23  25
ENDBRANCH  15  19
ENDBRANCH  10  15
TORSDOF 10
ENDMDL
