MODEL 1
REMARK VINA RESULT:       2.3      0.000      0.000
REMARK  Name = 45783250
REMARK  12 active torsions:
REMARK  status: ('A' for Active; 'I' for Inactive)
REMARK    1  A    between atoms: S_1  and  C_22
REMARK    2  A    between atoms: S_1  and  C_28
REMARK    3  A    between atoms: O_6  and  C_36
REMARK    4  A    between atoms: N_9  and  C_14
REMARK    5  A    between atoms: N_10  and  C_21
REMARK    6  A    between atoms: C_15  and  C_19
REMARK    7  A    between atoms: C_20  and  C_22
REMARK    8  A    between atoms: C_21  and  C_24
REMARK    9  A    between atoms: C_21  and  C_25
REMARK   10  A    between atoms: C_23  and  C_26
REMARK   11  A    between atoms: C_24  and  C_27
REMARK   12  A    between atoms: C_28  and  C_36
REMARK                            x       y       z     vdW  Elec       q    Type
REMARK                         _______ _______ _______ _____ _____    ______ ____
ROOT
ATOM      3  O   UNL     1      -4.212  -0.955  23.009  0.00  0.00    -0.275 OA
ATOM      8  N   UNL     1      -2.430   0.257  23.891  0.00  0.00    -0.289 N 
ATOM     14  C   UNL     1       0.394   0.985  23.749  0.00  0.00    +0.077 C 
ATOM     15  C   UNL     1      -1.847   1.055  24.982  0.00  0.00    +0.164 C 
ATOM     16  C   UNL     1      -0.329   0.899  25.097  0.00  0.00    +0.054 C 
ATOM     17  C   UNL     1      -0.242   0.027  22.746  0.00  0.00    +0.041 C 
ATOM     18  C   UNL     1      -1.734   0.301  22.600  0.00  0.00    +0.110 C 
ATOM     20  C   UNL     1      -3.663  -0.402  23.966  0.00  0.00    +0.226 C 
ENDROOT
BRANCH  15  19
ATOM      2  O   UNL     1      -2.449   2.918  23.614  0.00  0.00    -0.274 OA
ATOM     10  N   UNL     1      -2.344   3.203  25.921  0.00  0.00    -0.302 N 
ATOM     19  C   UNL     1      -2.252   2.481  24.743  0.00  0.00    +0.234 C 
ATOM     39  H   UNL     1      -2.297   2.707  26.807  0.00  0.00    +0.150 HD
BRANCH  10  21
ATOM     21  C   UNL     1      -2.696   4.604  25.964  0.00  0.00    +0.163 C 
BRANCH  21  25
ATOM      5  O   UNL     1      -1.785   6.495  24.741  0.00  0.00    -0.274 OA
ATOM     11  N   UNL     1      -0.456   4.648  25.058  0.00  0.00    -0.328 N 
ATOM     25  C   UNL     1      -1.632   5.358  25.181  0.00  0.00    +0.231 C 
ATOM     40  H   UNL     1       0.341   5.043  24.568  0.00  0.00    +0.145 HD
ATOM     41  H   UNL     1      -0.337   3.718  25.444  0.00  0.00    +0.145 HD
ENDBRANCH  21  25
BRANCH  21  24
ATOM     24  C   UNL     1      -4.085   4.871  25.371  0.00  0.00    +0.067 C 
BRANCH  24  27
ATOM     27  C   UNL     1      -5.010   3.685  25.493  0.00  0.00    -0.045 A 
ATOM     30  C   UNL     1      -5.467   3.036  24.346  0.00  0.00    +0.004 A 
ATOM     31  C   UNL     1      -5.407   3.236  26.753  0.00  0.00    +0.004 A 
ATOM     32  C   UNL     1      -6.322   1.939  24.459  0.00  0.00    +0.000 A 
ATOM     33  C   UNL     1      -6.262   2.141  26.865  0.00  0.00    +0.000 A 
ATOM     35  C   UNL     1      -6.720   1.492  25.718  0.00  0.00    +0.000 A 
ENDBRANCH  24  27
ENDBRANCH  21  24
ENDBRANCH  10  21
ENDBRANCH  15  19
BRANCH  14   9
ATOM      4  O   UNL     1       2.108  -0.282  21.825  0.00  0.00    -0.268 OA
ATOM      9  N   UNL     1       1.800   0.703  23.902  0.00  0.00    -0.307 N 
ATOM     23  C   UNL     1       2.548   0.084  22.912  0.00  0.00    +0.264 C 
ATOM     38  H   UNL     1       2.244   0.921  24.790  0.00  0.00    +0.149 HD
BRANCH  23  26
ATOM     12  N   UNL     1       4.297  -1.397  23.663  0.00  0.00    -0.247 NA
ATOM     13  N   UNL     1       6.223   0.623  23.392  0.00  0.00    -0.259 NA
ATOM     26  C   UNL     1       3.977  -0.160  23.234  0.00  0.00    +0.143 A 
ATOM     29  C   UNL     1       4.923   0.832  23.100  0.00  0.00    +0.143 A 
ATOM     34  C   UNL     1       5.596  -1.607  23.954  0.00  0.00    +0.131 A 
ATOM     37  C   UNL     1       6.541  -0.614  23.821  0.00  0.00    +0.130 A 
ENDBRANCH  23  26
ENDBRANCH  14   9
BRANCH  20  22
ATOM     22  C   UNL     1      -4.339  -0.430  25.315  0.00  0.00    +0.165 C 
BRANCH  22   1
ATOM      1  S   UNL     1      -3.338  -1.454  26.404  0.00  0.00    -0.140 S 
BRANCH   1  28
ATOM     28  C   UNL     1      -3.113  -2.882  25.316  0.00  0.00    +0.189 C 
BRANCH  28  36
ATOM      7  O   UNL     1      -1.534  -3.169  23.518  0.00  0.00    -0.250 OA
ATOM     36  C   UNL     1      -1.762  -2.807  24.665  0.00  0.00    +0.315 C 
BRANCH  36   6
ATOM      6  O   UNL     1      -0.815  -2.278  25.481  0.00  0.00    -0.480 OA
ATOM     42  H   UNL     1      -0.645  -1.333  25.282  0.00  0.00    +0.295 HD
ENDBRANCH  36   6
ENDBRANCH  28  36
ENDBRANCH   1  28
ENDBRANCH  22   1
ENDBRANCH  20  22
TORSDOF 12
ENDMDL
MODEL 2
REMARK VINA RESULT:       3.5      1.430      2.936
REMARK  Name = 45783250
REMARK  12 active torsions:
REMARK  status: ('A' for Active; 'I' for Inactive)
REMARK    1  A    between atoms: S_1  and  C_22
REMARK    2  A    between atoms: S_1  and  C_28
REMARK    3  A    between atoms: O_6  and  C_36
REMARK    4  A    between atoms: N_9  and  C_14
REMARK    5  A    between atoms: N_10  and  C_21
REMARK    6  A    between atoms: C_15  and  C_19
REMARK    7  A    between atoms: C_20  and  C_22
REMARK    8  A    between atoms: C_21  and  C_24
REMARK    9  A    between atoms: C_21  and  C_25
REMARK   10  A    between atoms: C_23  and  C_26
REMARK   11  A    between atoms: C_24  and  C_27
REMARK   12  A    between atoms: C_28  and  C_36
REMARK                            x       y       z     vdW  Elec       q    Type
REMARK                         _______ _______ _______ _____ _____    ______ ____
ROOT
ATOM      3  O   UNL     1      -4.580  -1.699  22.791  0.00  0.00    -0.275 OA
ATOM      8  N   UNL     1      -2.946  -0.249  23.594  0.00  0.00    -0.289 N 
ATOM     14  C   UNL     1      -0.193   0.714  23.459  0.00  0.00    +0.077 C 
ATOM     15  C   UNL     1      -2.476   0.704  24.613  0.00  0.00    +0.164 C 
ATOM     16  C   UNL     1      -0.956   0.699  24.787  0.00  0.00    +0.054 C 
ATOM     17  C   UNL     1      -0.704  -0.393  22.542  0.00  0.00    +0.041 C 
ATOM     18  C   UNL     1      -2.207  -0.271  22.326  0.00  0.00    +0.110 C 
ATOM     20  C   UNL     1      -4.119  -1.006  23.701  0.00  0.00    +0.226 C 
ENDROOT
BRANCH  15  19
ATOM      2  O   UNL     1      -2.600   2.632  23.209  0.00  0.00    -0.274 OA
ATOM     10  N   UNL     1      -3.919   2.547  25.125  0.00  0.00    -0.302 N 
ATOM     19  C   UNL     1      -2.995   2.056  24.218  0.00  0.00    +0.234 C 
ATOM     39  H   UNL     1      -4.276   1.928  25.848  0.00  0.00    +0.150 HD
BRANCH  10  21
ATOM     21  C   UNL     1      -4.553   3.838  24.986  0.00  0.00    +0.163 C 
BRANCH  21  25
ATOM      5  O   UNL     1      -6.609   4.747  25.908  0.00  0.00    -0.274 OA
ATOM     11  N   UNL     1      -6.115   2.537  26.294  0.00  0.00    -0.328 N 
ATOM     25  C   UNL     1      -5.852   3.789  25.777  0.00  0.00    +0.231 C 
ATOM     40  H   UNL     1      -6.957   2.364  26.833  0.00  0.00    +0.145 HD
ATOM     41  H   UNL     1      -5.490   1.749  26.160  0.00  0.00    +0.145 HD
ENDBRANCH  21  25
BRANCH  21  24
ATOM     24  C   UNL     1      -3.662   4.979  25.493  0.00  0.00    +0.067 C 
BRANCH  24  27
ATOM     27  C   UNL     1      -2.199   4.608  25.524  0.00  0.00    -0.045 A 
ATOM     30  C   UNL     1      -1.739   3.662  26.440  0.00  0.00    +0.004 A 
ATOM     31  C   UNL     1      -1.308   5.210  24.637  0.00  0.00    +0.004 A 
ATOM     32  C   UNL     1      -0.387   3.318  26.469  0.00  0.00    +0.000 A 
ATOM     33  C   UNL     1       0.043   4.867  24.666  0.00  0.00    +0.000 A 
ATOM     35  C   UNL     1       0.504   3.921  25.582  0.00  0.00    +0.000 A 
ENDBRANCH  24  27
ENDBRANCH  21  24
ENDBRANCH  10  21
ENDBRANCH  15  19
BRANCH  14   9
ATOM      4  O   UNL     1       1.732  -0.370  21.625  0.00  0.00    -0.268 OA
ATOM      9  N   UNL     1       1.226   0.577  23.680  0.00  0.00    -0.307 N 
ATOM     23  C   UNL     1       2.079   0.039  22.730  0.00  0.00    +0.264 C 
ATOM     38  H   UNL     1       1.601   0.840  24.588  0.00  0.00    +0.149 HD
BRANCH  23  26
ATOM     12  N   UNL     1       3.918  -1.238  23.630  0.00  0.00    -0.247 NA
ATOM     13  N   UNL     1       5.668   0.933  23.325  0.00  0.00    -0.259 NA
ATOM     26  C   UNL     1       3.509  -0.058  23.121  0.00  0.00    +0.143 A 
ATOM     29  C   UNL     1       4.369   1.008  22.971  0.00  0.00    +0.143 A 
ATOM     34  C   UNL     1       5.216  -1.313  23.983  0.00  0.00    +0.131 A 
ATOM     37  C   UNL     1       6.075  -0.247  23.834  0.00  0.00    +0.130 A 
ENDBRANCH  23  26
ENDBRANCH  14   9
BRANCH  20  22
ATOM     22  C   UNL     1      -4.839  -0.961  25.025  0.00  0.00    +0.165 C 
BRANCH  22   1
ATOM      1  S   UNL     1      -3.661  -1.424  26.303  0.00  0.00    -0.140 S 
BRANCH   1  28
ATOM     28  C   UNL     1      -3.157  -3.034  25.647  0.00  0.00    +0.189 C 
BRANCH  28  36
ATOM      7  O   UNL     1      -0.844  -2.396  25.413  0.00  0.00    -0.250 OA
ATOM     36  C   UNL     1      -1.851  -2.891  24.920  0.00  0.00    +0.315 C 
BRANCH  36   6
ATOM      6  O   UNL     1      -1.898  -3.381  23.656  0.00  0.00    -0.480 OA
ATOM     42  H   UNL     1      -2.709  -3.099  23.182  0.00  0.00    +0.295 HD
ENDBRANCH  36   6
ENDBRANCH  28  36
ENDBRANCH   1  28
ENDBRANCH  22   1
ENDBRANCH  20  22
TORSDOF 12
ENDMDL
MODEL 3
REMARK VINA RESULT:       3.9      2.168      5.160
REMARK  Name = 45783250
REMARK  12 active torsions:
REMARK  status: ('A' for Active; 'I' for Inactive)
REMARK    1  A    between atoms: S_1  and  C_22
REMARK    2  A    between atoms: S_1  and  C_28
REMARK    3  A    between atoms: O_6  and  C_36
REMARK    4  A    between atoms: N_9  and  C_14
REMARK    5  A    between atoms: N_10  and  C_21
REMARK    6  A    between atoms: C_15  and  C_19
REMARK    7  A    between atoms: C_20  and  C_22
REMARK    8  A    between atoms: C_21  and  C_24
REMARK    9  A    between atoms: C_21  and  C_25
REMARK   10  A    between atoms: C_23  and  C_26
REMARK   11  A    between atoms: C_24  and  C_27
REMARK   12  A    between atoms: C_28  and  C_36
REMARK                            x       y       z     vdW  Elec       q    Type
REMARK                         _______ _______ _______ _____ _____    ______ ____
ROOT
ATOM      3  O   UNL     1      -3.201   4.824  27.063  0.00  0.00    -0.275 OA
ATOM      8  N   UNL     1      -2.236   3.445  25.455  0.00  0.00    -0.289 N 
ATOM     14  C   UNL     1      -0.104   1.588  24.728  0.00  0.00    +0.077 C 
ATOM     15  C   UNL     1      -2.128   2.998  24.056  0.00  0.00    +0.164 C 
ATOM     16  C   UNL     1      -0.725   2.519  23.683  0.00  0.00    +0.054 C 
ATOM     17  C   UNL     1      -0.181   2.221  26.114  0.00  0.00    +0.041 C 
ATOM     18  C   UNL     1      -1.619   2.581  26.469  0.00  0.00    +0.110 C 
ATOM     20  C   UNL     1      -3.004   4.535  25.880  0.00  0.00    +0.226 C 
ENDROOT
BRANCH  15  19
ATOM      2  O   UNL     1      -3.946   1.949  22.915  0.00  0.00    -0.274 OA
ATOM     10  N   UNL     1      -3.123   0.972  24.861  0.00  0.00    -0.302 N 
ATOM     19  C   UNL     1      -3.162   1.928  23.860  0.00  0.00    +0.234 C 
ATOM     39  H   UNL     1      -2.345   0.976  25.514  0.00  0.00    +0.150 HD
BRANCH  10  21
ATOM     21  C   UNL     1      -4.029  -0.152  24.916  0.00  0.00    +0.163 C 
BRANCH  21  25
ATOM      5  O   UNL     1      -3.424  -0.339  22.570  0.00  0.00    -0.274 OA
ATOM     11  N   UNL     1      -4.767  -1.960  23.491  0.00  0.00    -0.328 N 
ATOM     25  C   UNL     1      -4.037  -0.790  23.534  0.00  0.00    +0.231 C 
ATOM     40  H   UNL     1      -4.843  -2.493  22.631  0.00  0.00    +0.145 HD
ATOM     41  H   UNL     1      -5.250  -2.332  24.301  0.00  0.00    +0.145 HD
ENDBRANCH  21  25
BRANCH  21  24
ATOM     24  C   UNL     1      -3.614  -1.180  25.976  0.00  0.00    +0.067 C 
BRANCH  24  27
ATOM     27  C   UNL     1      -2.219  -1.713  25.758  0.00  0.00    -0.045 A 
ATOM     30  C   UNL     1      -1.993  -2.711  24.810  0.00  0.00    +0.004 A 
ATOM     31  C   UNL     1      -1.155  -1.206  26.504  0.00  0.00    +0.004 A 
ATOM     32  C   UNL     1      -0.703  -3.203  24.609  0.00  0.00    +0.000 A 
ATOM     33  C   UNL     1       0.134  -1.699  26.304  0.00  0.00    +0.000 A 
ATOM     35  C   UNL     1       0.360  -2.698  25.356  0.00  0.00    +0.000 A 
ENDBRANCH  24  27
ENDBRANCH  21  24
ENDBRANCH  10  21
ENDBRANCH  15  19
BRANCH  14   9
ATOM      4  O   UNL     1       0.787  -0.441  22.902  0.00  0.00    -0.268 OA
ATOM      9  N   UNL     1       1.263   1.273  24.389  0.00  0.00    -0.307 N 
ATOM     23  C   UNL     1       1.596   0.270  23.492  0.00  0.00    +0.264 C 
ATOM     38  H   UNL     1       2.007   1.774  24.867  0.00  0.00    +0.149 HD
BRANCH  23  26
ATOM     12  N   UNL     1       3.567  -1.098  23.746  0.00  0.00    -0.247 NA
ATOM     13  N   UNL     1       5.142   0.798  22.408  0.00  0.00    -0.259 NA
ATOM     26  C   UNL     1       3.049   0.053  23.270  0.00  0.00    +0.143 A 
ATOM     29  C   UNL     1       3.823   0.983  22.612  0.00  0.00    +0.143 A 
ATOM     34  C   UNL     1       4.885  -1.284  23.542  0.00  0.00    +0.131 A 
ATOM     37  C   UNL     1       5.659  -0.352  22.885  0.00  0.00    +0.130 A 
ENDBRANCH  23  26
ENDBRANCH  14   9
BRANCH  20  22
ATOM     22  C   UNL     1      -3.611   5.400  24.803  0.00  0.00    +0.165 C 
BRANCH  22   1
ATOM      1  S   UNL     1      -5.309   4.859  24.561  0.00  0.00    -0.140 S 
BRANCH   1  28
ATOM     28  C   UNL     1      -5.505   3.873  26.065  0.00  0.00    +0.189 C 
BRANCH  28  36
ATOM      7  O   UNL     1      -6.429   2.201  24.595  0.00  0.00    -0.250 OA
ATOM     36  C   UNL     1      -6.222   2.595  25.736  0.00  0.00    +0.315 C 
BRANCH  36   6
ATOM      6  O   UNL     1      -6.606   1.909  26.842  0.00  0.00    -0.480 OA
ATOM     42  H   UNL     1      -7.001   1.040  26.616  0.00  0.00    +0.295 HD
ENDBRANCH  36   6
ENDBRANCH  28  36
ENDBRANCH   1  28
ENDBRANCH  22   1
ENDBRANCH  20  22
TORSDOF 12
ENDMDL
MODEL 4
REMARK VINA RESULT:       4.3      2.251      5.197
REMARK  Name = 45783250
REMARK  12 active torsions:
REMARK  status: ('A' for Active; 'I' for Inactive)
REMARK    1  A    between atoms: S_1  and  C_22
REMARK    2  A    between atoms: S_1  and  C_28
REMARK    3  A    between atoms: O_6  and  C_36
REMARK    4  A    between atoms: N_9  and  C_14
REMARK    5  A    between atoms: N_10  and  C_21
REMARK    6  A    between atoms: C_15  and  C_19
REMARK    7  A    between atoms: C_20  and  C_22
REMARK    8  A    between atoms: C_21  and  C_24
REMARK    9  A    between atoms: C_21  and  C_25
REMARK   10  A    between atoms: C_23  and  C_26
REMARK   11  A    between atoms: C_24  and  C_27
REMARK   12  A    between atoms: C_28  and  C_36
REMARK                            x       y       z     vdW  Elec       q    Type
REMARK                         _______ _______ _______ _____ _____    ______ ____
ROOT
ATOM      3  O   UNL     1      -2.657   5.511  26.340  0.00  0.00    -0.275 OA
ATOM      8  N   UNL     1      -1.759   3.792  25.053  0.00  0.00    -0.289 N 
ATOM     14  C   UNL     1       0.240   1.683  24.769  0.00  0.00    +0.077 C 
ATOM     15  C   UNL     1      -1.647   3.088  23.765  0.00  0.00    +0.164 C 
ATOM     16  C   UNL     1      -0.275   2.447  23.546  0.00  0.00    +0.054 C 
ATOM     17  C   UNL     1       0.173   2.565  26.012  0.00  0.00    +0.041 C 
ATOM     18  C   UNL     1      -1.241   3.089  26.233  0.00  0.00    +0.110 C 
ATOM     20  C   UNL     1      -2.450   4.995  25.239  0.00  0.00    +0.226 C 
ENDROOT
BRANCH  15  19
ATOM      2  O   UNL     1      -3.170   1.614  22.664  0.00  0.00    -0.274 OA
ATOM     10  N   UNL     1      -3.238   1.776  24.985  0.00  0.00    -0.302 N 
ATOM     19  C   UNL     1      -2.756   2.077  23.723  0.00  0.00    +0.234 C 
ATOM     39  H   UNL     1      -2.729   2.111  25.799  0.00  0.00    +0.150 HD
BRANCH  10  21
ATOM     21  C   UNL     1      -4.321   0.848  25.217  0.00  0.00    +0.163 C 
BRANCH  21  25
ATOM      5  O   UNL     1      -6.063   2.136  24.117  0.00  0.00    -0.274 OA
ATOM     11  N   UNL     1      -6.264   1.712  26.366  0.00  0.00    -0.328 N 
ATOM     25  C   UNL     1      -5.617   1.644  25.150  0.00  0.00    +0.231 C 
ATOM     40  H   UNL     1      -7.147   2.203  26.458  0.00  0.00    +0.145 HD
ATOM     41  H   UNL     1      -5.893   1.281  27.207  0.00  0.00    +0.145 HD
ENDBRANCH  21  25
BRANCH  21  24
ATOM     24  C   UNL     1      -4.340  -0.289  24.188  0.00  0.00    +0.067 C 
BRANCH  24  27
ATOM     27  C   UNL     1      -3.230  -1.289  24.402  0.00  0.00    -0.045 A 
ATOM     30  C   UNL     1      -1.973  -0.856  24.827  0.00  0.00    +0.004 A 
ATOM     31  C   UNL     1      -3.460  -2.646  24.176  0.00  0.00    +0.004 A 
ATOM     32  C   UNL     1      -0.947  -1.780  25.025  0.00  0.00    +0.000 A 
ATOM     33  C   UNL     1      -2.434  -3.569  24.373  0.00  0.00    +0.000 A 
ATOM     35  C   UNL     1      -1.177  -3.137  24.798  0.00  0.00    +0.000 A 
ENDBRANCH  24  27
ENDBRANCH  21  24
ENDBRANCH  10  21
ENDBRANCH  15  19
BRANCH  14   9
ATOM      4  O   UNL     1       1.116  -0.125  22.717  0.00  0.00    -0.268 OA
ATOM      9  N   UNL     1       1.586   1.213  24.552  0.00  0.00    -0.307 N 
ATOM     23  C   UNL     1       1.914   0.336  23.529  0.00  0.00    +0.264 C 
ATOM     38  H   UNL     1       2.310   1.498  25.207  0.00  0.00    +0.149 HD
BRANCH  23  26
ATOM     12  N   UNL     1       4.225   0.880  23.101  0.00  0.00    -0.247 NA
ATOM     13  N   UNL     1       5.023  -1.748  23.670  0.00  0.00    -0.259 NA
ATOM     26  C   UNL     1       3.340  -0.074  23.456  0.00  0.00    +0.143 A 
ATOM     29  C   UNL     1       3.732  -1.364  23.735  0.00  0.00    +0.143 A 
ATOM     34  C   UNL     1       5.515   0.497  23.035  0.00  0.00    +0.131 A 
ATOM     37  C   UNL     1       5.906  -0.794  23.314  0.00  0.00    +0.130 A 
ENDBRANCH  23  26
ENDBRANCH  14   9
BRANCH  20  22
ATOM     22  C   UNL     1      -2.955   5.688  23.998  0.00  0.00    +0.165 C 
BRANCH  22   1
ATOM      1  S   UNL     1      -4.448   4.837  23.468  0.00  0.00    -0.140 S 
BRANCH   1  28
ATOM     28  C   UNL     1      -5.621   5.580  24.628  0.00  0.00    +0.189 C 
BRANCH  28  36
ATOM      7  O   UNL     1      -4.910   4.161  26.441  0.00  0.00    -0.250 OA
ATOM     36  C   UNL     1      -5.824   4.657  25.795  0.00  0.00    +0.315 C 
BRANCH  36   6
ATOM      6  O   UNL     1      -7.134   4.438  26.070  0.00  0.00    -0.480 OA
ATOM     42  H   UNL     1      -7.514   5.146  26.634  0.00  0.00    +0.295 HD
ENDBRANCH  36   6
ENDBRANCH  28  36
ENDBRANCH   1  28
ENDBRANCH  22   1
ENDBRANCH  20  22
TORSDOF 12
ENDMDL
MODEL 5
REMARK VINA RESULT:       4.7      2.243      5.133
REMARK  Name = 45783250
REMARK  12 active torsions:
REMARK  status: ('A' for Active; 'I' for Inactive)
REMARK    1  A    between atoms: S_1  and  C_22
REMARK    2  A    between atoms: S_1  and  C_28
REMARK    3  A    between atoms: O_6  and  C_36
REMARK    4  A    between atoms: N_9  and  C_14
REMARK    5  A    between atoms: N_10  and  C_21
REMARK    6  A    between atoms: C_15  and  C_19
REMARK    7  A    between atoms: C_20  and  C_22
REMARK    8  A    between atoms: C_21  and  C_24
REMARK    9  A    between atoms: C_21  and  C_25
REMARK   10  A    between atoms: C_23  and  C_26
REMARK   11  A    between atoms: C_24  and  C_27
REMARK   12  A    between atoms: C_28  and  C_36
REMARK                            x       y       z     vdW  Elec       q    Type
REMARK                         _______ _______ _______ _____ _____    ______ ____
ROOT
ATOM      3  O   UNL     1      -3.430   4.960  26.785  0.00  0.00    -0.275 OA
ATOM      8  N   UNL     1      -2.472   3.409  25.337  0.00  0.00    -0.289 N 
ATOM     14  C   UNL     1      -0.289   1.555  24.771  0.00  0.00    +0.077 C 
ATOM     15  C   UNL     1      -2.404   2.775  24.010  0.00  0.00    +0.164 C 
ATOM     16  C   UNL     1      -0.997   2.305  23.638  0.00  0.00    +0.054 C 
ATOM     17  C   UNL     1      -0.337   2.372  26.058  0.00  0.00    +0.041 C 
ATOM     18  C   UNL     1      -1.773   2.721  26.429  0.00  0.00    +0.110 C 
ATOM     20  C   UNL     1      -3.271   4.516  25.645  0.00  0.00    +0.226 C 
ENDROOT
BRANCH  15  19
ATOM      2  O   UNL     1      -3.601   0.962  23.016  0.00  0.00    -0.274 OA
ATOM     10  N   UNL     1      -4.028   1.511  25.238  0.00  0.00    -0.302 N 
ATOM     19  C   UNL     1      -3.395   1.647  24.014  0.00  0.00    +0.234 C 
ATOM     39  H   UNL     1      -3.680   2.038  26.033  0.00  0.00    +0.150 HD
BRANCH  10  21
ATOM     21  C   UNL     1      -5.041   0.513  25.496  0.00  0.00    +0.163 C 
BRANCH  21  25
ATOM      5  O   UNL     1      -6.975   1.368  24.299  0.00  0.00    -0.274 OA
ATOM     11  N   UNL     1      -6.918   1.576  26.586  0.00  0.00    -0.328 N 
ATOM     25  C   UNL     1      -6.392   1.201  25.368  0.00  0.00    +0.231 C 
ATOM     40  H   UNL     1      -7.822   2.034  26.644  0.00  0.00    +0.145 HD
ATOM     41  H   UNL     1      -6.435   1.412  27.463  0.00  0.00    +0.145 HD
ENDBRANCH  21  25
BRANCH  21  24
ATOM     24  C   UNL     1      -4.950  -0.670  24.525  0.00  0.00    +0.067 C 
BRANCH  24  27
ATOM     27  C   UNL     1      -3.656  -1.436  24.656  0.00  0.00    -0.045 A 
ATOM     30  C   UNL     1      -3.434  -2.569  23.874  0.00  0.00    +0.004 A 
ATOM     31  C   UNL     1      -2.682  -1.009  25.559  0.00  0.00    +0.004 A 
ATOM     32  C   UNL     1      -2.237  -3.276  23.995  0.00  0.00    +0.000 A 
ATOM     33  C   UNL     1      -1.486  -1.717  25.681  0.00  0.00    +0.000 A 
ATOM     35  C   UNL     1      -1.264  -2.851  24.899  0.00  0.00    +0.000 A 
ENDBRANCH  24  27
ENDBRANCH  21  24
ENDBRANCH  10  21
ENDBRANCH  15  19
BRANCH  14   9
ATOM      4  O   UNL     1       0.601  -0.568  23.054  0.00  0.00    -0.268 OA
ATOM      9  N   UNL     1       1.075   1.251  24.412  0.00  0.00    -0.307 N 
ATOM     23  C   UNL     1       1.408   0.199  23.572  0.00  0.00    +0.264 C 
ATOM     38  H   UNL     1       1.820   1.799  24.833  0.00  0.00    +0.149 HD
BRANCH  23  26
ATOM     12  N   UNL     1       3.400  -1.146  23.778  0.00  0.00    -0.247 NA
ATOM     13  N   UNL     1       4.926   0.781  22.427  0.00  0.00    -0.259 NA
ATOM     26  C   UNL     1       2.859   0.002  23.322  0.00  0.00    +0.143 A 
ATOM     29  C   UNL     1       3.609   0.948  22.658  0.00  0.00    +0.143 A 
ATOM     34  C   UNL     1       4.717  -1.313  23.547  0.00  0.00    +0.131 A 
ATOM     37  C   UNL     1       5.467  -0.367  22.884  0.00  0.00    +0.130 A 
ENDBRANCH  23  26
ENDBRANCH  14   9
BRANCH  20  22
ATOM     22  C   UNL     1      -3.963   5.197  24.490  0.00  0.00    +0.165 C 
BRANCH  22   1
ATOM      1  S   UNL     1      -2.749   6.233  23.660  0.00  0.00    -0.140 S 
BRANCH   1  28
ATOM     28  C   UNL     1      -1.441   6.184  24.910  0.00  0.00    +0.189 C 
BRANCH  28  36
ATOM      7  O   UNL     1      -0.015   5.301  23.179  0.00  0.00    -0.250 OA
ATOM     36  C   UNL     1      -0.263   5.423  24.372  0.00  0.00    +0.315 C 
BRANCH  36   6
ATOM      6  O   UNL     1       0.511   4.893  25.352  0.00  0.00    -0.480 OA
ATOM     42  H   UNL     1       0.023   4.231  25.887  0.00  0.00    +0.295 HD
ENDBRANCH  36   6
ENDBRANCH  28  36
ENDBRANCH   1  28
ENDBRANCH  22   1
ENDBRANCH  20  22
TORSDOF 12
ENDMDL
