MODEL 1
REMARK VINA RESULT:      -7.1      0.000      0.000
REMARK  Name = 40777964
REMARK  8 active torsions:
REMARK  status: ('A' for Active; 'I' for Inactive)
REMARK    1  A    between atoms: O_2  and  C_9
REMARK    2  A    between atoms: O_3  and  C_10
REMARK    3  A    between atoms: N_7  and  C_14
REMARK    4  A    between atoms: N_8  and  C_17
REMARK    5  A    between atoms: C_11  and  C_13
REMARK    6  A    between atoms: C_12  and  C_14
REMARK    7  A    between atoms: C_13  and  C_15
REMARK    8  A    between atoms: C_16  and  C_18
REMARK                            x       y       z     vdW  Elec       q    Type
REMARK                         _______ _______ _______ _____ _____    ______ ____
ROOT
ATOM      1  O   UNL     1      -2.328   2.952  23.839  0.00  0.00    -0.366 OA
ATOM      9  C   UNL     1      -1.675   4.408  25.602  0.00  0.00    +0.175 C 
ATOM     10  C   UNL     1      -0.763   3.200  25.586  0.00  0.00    +0.176 C 
ATOM     11  C   UNL     1      -2.856   3.927  24.767  0.00  0.00    +0.159 C 
ATOM     12  C   UNL     1      -0.949   2.697  24.164  0.00  0.00    +0.167 C 
ENDROOT
BRANCH   9   2
ATOM      2  O   UNL     1      -1.063   5.501  24.917  0.00  0.00    -0.387 OA
ATOM     27  H   UNL     1      -1.180   5.348  23.963  0.00  0.00    +0.210 HD
ENDBRANCH   9   2
BRANCH  10   3
ATOM      3  O   UNL     1       0.585   3.512  25.865  0.00  0.00    -0.387 OA
ATOM     28  H   UNL     1       1.051   2.675  26.030  0.00  0.00    +0.210 HD
ENDBRANCH  10   3
BRANCH  11  13
ATOM     13  C   UNL     1      -3.935   3.244  25.597  0.00  0.00    +0.130 C 
BRANCH  13  15
ATOM      4  O   UNL     1      -5.371   1.838  24.270  0.00  0.00    -0.275 OA
ATOM      8  N   UNL     1      -3.543   0.890  25.400  0.00  0.00    -0.285 N 
ATOM     15  C   UNL     1      -4.387   1.921  24.999  0.00  0.00    +0.220 C 
ATOM     30  H   UNL     1      -2.765   1.132  26.010  0.00  0.00    +0.155 HD
BRANCH   8  17
ATOM     17  C   UNL     1      -3.630  -0.480  25.057  0.00  0.00    +0.033 A 
ATOM     19  C   UNL     1      -4.250  -0.864  23.868  0.00  0.00    +0.023 A 
ATOM     20  C   UNL     1      -3.096  -1.447  25.908  0.00  0.00    +0.023 A 
ATOM     22  C   UNL     1      -4.337  -2.214  23.531  0.00  0.00    +0.002 A 
ATOM     23  C   UNL     1      -3.182  -2.798  25.571  0.00  0.00    +0.002 A 
ATOM     26  C   UNL     1      -3.803  -3.181  24.382  0.00  0.00    +0.000 A 
ENDBRANCH   8  17
ENDBRANCH  13  15
ENDBRANCH  11  13
BRANCH  12  14
ATOM     14  C   UNL     1      -0.651   1.217  24.005  0.00  0.00    +0.138 C 
BRANCH  14   7
ATOM      5  O   UNL     1       0.810  -0.235  22.004  0.00  0.00    -0.267 OA
ATOM      7  N   UNL     1       0.761   0.972  23.986  0.00  0.00    -0.306 N 
ATOM     16  C   UNL     1       1.389   0.254  22.972  0.00  0.00    +0.279 C 
ATOM     29  H   UNL     1       1.323   1.339  24.748  0.00  0.00    +0.149 HD
BRANCH  16  18
ATOM      6  O   UNL     1       3.299  -1.133  23.580  0.00  0.00    -0.458 OA
ATOM     18  C   UNL     1       2.855   0.064  23.112  0.00  0.00    +0.189 A 
ATOM     21  C   UNL     1       3.913   0.902  22.849  0.00  0.00    +0.054 A 
ATOM     24  C   UNL     1       5.083   0.174  23.174  0.00  0.00    +0.042 A 
ATOM     25  C   UNL     1       4.655  -1.057  23.614  0.00  0.00    +0.196 A 
ENDBRANCH  16  18
ENDBRANCH  14   7
ENDBRANCH  12  14
TORSDOF 8
ENDMDL
MODEL 2
REMARK VINA RESULT:      -5.2     14.205     15.982
REMARK  Name = 40777964
REMARK  8 active torsions:
REMARK  status: ('A' for Active; 'I' for Inactive)
REMARK    1  A    between atoms: O_2  and  C_9
REMARK    2  A    between atoms: O_3  and  C_10
REMARK    3  A    between atoms: N_7  and  C_14
REMARK    4  A    between atoms: N_8  and  C_17
REMARK    5  A    between atoms: C_11  and  C_13
REMARK    6  A    between atoms: C_12  and  C_14
REMARK    7  A    between atoms: C_13  and  C_15
REMARK    8  A    between atoms: C_16  and  C_18
REMARK                            x       y       z     vdW  Elec       q    Type
REMARK                         _______ _______ _______ _____ _____    ______ ____
ROOT
ATOM      1  O   UNL     1      -7.900  -9.158  15.978  0.00  0.00    -0.366 OA
ATOM      9  C   UNL     1     -10.209  -8.958  16.515  0.00  0.00    +0.175 C 
ATOM     10  C   UNL     1      -9.524  -9.820  17.555  0.00  0.00    +0.176 C 
ATOM     11  C   UNL     1      -9.200  -8.978  15.372  0.00  0.00    +0.159 C 
ATOM     12  C   UNL     1      -8.072  -9.406  17.385  0.00  0.00    +0.167 C 
ENDROOT
BRANCH   9   2
ATOM      2  O   UNL     1     -10.322  -7.614  16.982  0.00  0.00    -0.387 OA
ATOM     27  H   UNL     1     -11.045  -7.194  16.485  0.00  0.00    +0.210 HD
ENDBRANCH   9   2
BRANCH  10   3
ATOM      3  O   UNL     1      -9.990  -9.591  18.868  0.00  0.00    -0.387 OA
ATOM     28  H   UNL     1      -9.387 -10.050  19.476  0.00  0.00    +0.210 HD
ENDBRANCH  10   3
BRANCH  11  13
ATOM     13  C   UNL     1      -9.424 -10.129  14.399  0.00  0.00    +0.130 C 
BRANCH  13  15
ATOM      4  O   UNL     1      -9.439  -9.799  12.013  0.00  0.00    -0.275 OA
ATOM      8  N   UNL     1      -7.395  -9.790  13.172  0.00  0.00    -0.285 N 
ATOM     15  C   UNL     1      -8.778  -9.886  13.043  0.00  0.00    +0.220 C 
ATOM     30  H   UNL     1      -7.004  -9.885  14.107  0.00  0.00    +0.155 HD
BRANCH   8  17
ATOM     17  C   UNL     1      -6.446  -9.569  12.146  0.00  0.00    +0.033 A 
ATOM     19  C   UNL     1      -5.218 -10.228  12.178  0.00  0.00    +0.023 A 
ATOM     20  C   UNL     1      -6.740  -8.692  11.102  0.00  0.00    +0.023 A 
ATOM     22  C   UNL     1      -4.282 -10.010  11.167  0.00  0.00    +0.002 A 
ATOM     23  C   UNL     1      -5.805  -8.473  10.091  0.00  0.00    +0.002 A 
ATOM     26  C   UNL     1      -4.576  -9.132  10.124  0.00  0.00    +0.000 A 
ENDBRANCH   8  17
ENDBRANCH  13  15
ENDBRANCH  11  13
BRANCH  12  14
ATOM     14  C   UNL     1      -7.086 -10.467  17.841  0.00  0.00    +0.138 C 
BRANCH  14   7
ATOM      5  O   UNL     1      -4.335 -10.781  18.604  0.00  0.00    -0.267 OA
ATOM      7  N   UNL     1      -5.956 -10.537  16.961  0.00  0.00    -0.306 N 
ATOM     16  C   UNL     1      -4.651 -10.690  17.419  0.00  0.00    +0.279 C 
ATOM     29  H   UNL     1      -6.121 -10.470  15.961  0.00  0.00    +0.149 HD
BRANCH  16  18
ATOM      6  O   UNL     1      -2.295 -10.734  16.797  0.00  0.00    -0.458 OA
ATOM     18  C   UNL     1      -3.588 -10.718  16.381  0.00  0.00    +0.189 A 
ATOM     21  C   UNL     1      -3.655 -10.731  15.008  0.00  0.00    +0.054 A 
ATOM     24  C   UNL     1      -2.315 -10.759  14.549  0.00  0.00    +0.042 A 
ATOM     25  C   UNL     1      -1.527 -10.759  15.676  0.00  0.00    +0.196 A 
ENDBRANCH  16  18
ENDBRANCH  14   7
ENDBRANCH  12  14
TORSDOF 8
ENDMDL
MODEL 3
REMARK VINA RESULT:      -5.1      1.953      4.728
REMARK  Name = 40777964
REMARK  8 active torsions:
REMARK  status: ('A' for Active; 'I' for Inactive)
REMARK    1  A    between atoms: O_2  and  C_9
REMARK    2  A    between atoms: O_3  and  C_10
REMARK    3  A    between atoms: N_7  and  C_14
REMARK    4  A    between atoms: N_8  and  C_17
REMARK    5  A    between atoms: C_11  and  C_13
REMARK    6  A    between atoms: C_12  and  C_14
REMARK    7  A    between atoms: C_13  and  C_15
REMARK    8  A    between atoms: C_16  and  C_18
REMARK                            x       y       z     vdW  Elec       q    Type
REMARK                         _______ _______ _______ _____ _____    ______ ____
ROOT
ATOM      1  O   UNL     1      -1.944  -0.270  25.447  0.00  0.00    -0.366 OA
ATOM      9  C   UNL     1      -3.253  -2.238  25.173  0.00  0.00    +0.175 C 
ATOM     10  C   UNL     1      -2.351  -2.062  23.969  0.00  0.00    +0.176 C 
ATOM     11  C   UNL     1      -3.223  -0.847  25.797  0.00  0.00    +0.159 C 
ATOM     12  C   UNL     1      -1.273  -1.149  24.526  0.00  0.00    +0.167 C 
ENDROOT
BRANCH   9   2
ATOM      2  O   UNL     1      -2.669  -3.152  26.100  0.00  0.00    -0.387 OA
ATOM     27  H   UNL     1      -3.203  -3.965  26.083  0.00  0.00    +0.210 HD
ENDBRANCH   9   2
BRANCH  10   3
ATOM      3  O   UNL     1      -1.819  -3.278  23.486  0.00  0.00    -0.387 OA
ATOM     28  H   UNL     1      -2.550  -3.916  23.433  0.00  0.00    +0.210 HD
ENDBRANCH  10   3
BRANCH  11  13
ATOM     13  C   UNL     1      -4.312   0.071  25.259  0.00  0.00    +0.130 C 
BRANCH  13  15
ATOM      4  O   UNL     1      -4.073   1.652  23.457  0.00  0.00    -0.275 OA
ATOM      8  N   UNL     1      -2.873   1.976  25.451  0.00  0.00    -0.285 N 
ATOM     15  C   UNL     1      -3.753   1.321  24.595  0.00  0.00    +0.220 C 
ATOM     30  H   UNL     1      -2.719   1.564  26.369  0.00  0.00    +0.155 HD
BRANCH   8  17
ATOM     17  C   UNL     1      -2.151   3.168  25.200  0.00  0.00    +0.033 A 
ATOM     19  C   UNL     1      -2.693   4.400  25.565  0.00  0.00    +0.023 A 
ATOM     20  C   UNL     1      -0.899   3.109  24.589  0.00  0.00    +0.023 A 
ATOM     22  C   UNL     1      -1.983   5.575  25.317  0.00  0.00    +0.002 A 
ATOM     23  C   UNL     1      -0.189   4.283  24.342  0.00  0.00    +0.002 A 
ATOM     26  C   UNL     1      -0.731   5.516  24.706  0.00  0.00    +0.000 A 
ENDBRANCH   8  17
ENDBRANCH  13  15
ENDBRANCH  11  13
BRANCH  12  14
ATOM     14  C   UNL     1      -0.567  -0.330  23.460  0.00  0.00    +0.138 C 
BRANCH  14   7
ATOM      5  O   UNL     1       1.511  -0.302  21.478  0.00  0.00    -0.267 OA
ATOM      7  N   UNL     1       0.845  -0.273  23.701  0.00  0.00    -0.306 N 
ATOM     16  C   UNL     1       1.786  -0.263  22.675  0.00  0.00    +0.279 C 
ATOM     29  H   UNL     1       1.168  -0.238  24.664  0.00  0.00    +0.149 HD
BRANCH  16  18
ATOM      6  O   UNL     1       3.726  -1.336  23.688  0.00  0.00    -0.458 OA
ATOM     18  C   UNL     1       3.212  -0.229  23.091  0.00  0.00    +0.189 A 
ATOM     21  C   UNL     1       4.169   0.754  22.988  0.00  0.00    +0.054 A 
ATOM     24  C   UNL     1       5.348   0.215  23.556  0.00  0.00    +0.042 A 
ATOM     25  C   UNL     1       5.027  -1.058  23.967  0.00  0.00    +0.196 A 
ENDBRANCH  16  18
ENDBRANCH  14   7
ENDBRANCH  12  14
TORSDOF 8
ENDMDL
MODEL 4
REMARK VINA RESULT:      -4.4      1.990      4.841
REMARK  Name = 40777964
REMARK  8 active torsions:
REMARK  status: ('A' for Active; 'I' for Inactive)
REMARK    1  A    between atoms: O_2  and  C_9
REMARK    2  A    between atoms: O_3  and  C_10
REMARK    3  A    between atoms: N_7  and  C_14
REMARK    4  A    between atoms: N_8  and  C_17
REMARK    5  A    between atoms: C_11  and  C_13
REMARK    6  A    between atoms: C_12  and  C_14
REMARK    7  A    between atoms: C_13  and  C_15
REMARK    8  A    between atoms: C_16  and  C_18
REMARK                            x       y       z     vdW  Elec       q    Type
REMARK                         _______ _______ _______ _____ _____    ______ ____
ROOT
ATOM      1  O   UNL     1      -3.362  -0.686  25.889  0.00  0.00    -0.366 OA
ATOM      9  C   UNL     1      -3.494  -2.348  24.193  0.00  0.00    +0.175 C 
ATOM     10  C   UNL     1      -2.081  -1.809  24.259  0.00  0.00    +0.176 C 
ATOM     11  C   UNL     1      -4.279  -1.275  24.938  0.00  0.00    +0.159 C 
ATOM     12  C   UNL     1      -2.045  -1.218  25.658  0.00  0.00    +0.167 C 
ENDROOT
BRANCH   9   2
ATOM      2  O   UNL     1      -3.595  -3.565  24.933  0.00  0.00    -0.387 OA
ATOM     27  H   UNL     1      -3.156  -4.259  24.412  0.00  0.00    +0.210 HD
ENDBRANCH   9   2
BRANCH  10   3
ATOM      3  O   UNL     1      -1.093  -2.802  24.078  0.00  0.00    -0.387 OA
ATOM     28  H   UNL     1      -1.551  -3.649  23.943  0.00  0.00    +0.210 HD
ENDBRANCH  10   3
BRANCH  11  13
ATOM     13  C   UNL     1      -4.783  -0.164  24.027  0.00  0.00    +0.130 C 
BRANCH  13  15
ATOM      4  O   UNL     1      -5.348   1.816  25.276  0.00  0.00    -0.275 OA
ATOM      8  N   UNL     1      -3.256   1.672  24.216  0.00  0.00    -0.285 N 
ATOM     15  C   UNL     1      -4.520   1.225  24.591  0.00  0.00    +0.220 C 
ATOM     30  H   UNL     1      -2.690   1.051  23.642  0.00  0.00    +0.155 HD
BRANCH   8  17
ATOM     17  C   UNL     1      -2.647   2.908  24.540  0.00  0.00    +0.033 A 
ATOM     19  C   UNL     1      -1.615   3.407  23.746  0.00  0.00    +0.023 A 
ATOM     20  C   UNL     1      -3.079   3.627  25.655  0.00  0.00    +0.023 A 
ATOM     22  C   UNL     1      -1.014   4.623  24.066  0.00  0.00    +0.002 A 
ATOM     23  C   UNL     1      -2.479   4.844  25.975  0.00  0.00    +0.002 A 
ATOM     26  C   UNL     1      -1.446   5.342  25.180  0.00  0.00    +0.000 A 
ENDBRANCH   8  17
ENDBRANCH  13  15
ENDBRANCH  11  13
BRANCH  12  14
ATOM     14  C   UNL     1      -1.013  -0.116  25.820  0.00  0.00    +0.138 C 
BRANCH  14   7
ATOM      5  O   UNL     1       0.693   2.006  24.909  0.00  0.00    -0.267 OA
ATOM      7  N   UNL     1       0.006  -0.209  24.817  0.00  0.00    -0.306 N 
ATOM     16  C   UNL     1       0.790   0.876  24.434  0.00  0.00    +0.279 C 
ATOM     29  H   UNL     1       0.158  -1.107  24.368  0.00  0.00    +0.149 HD
BRANCH  16  18
ATOM      6  O   UNL     1       2.995   1.235  23.459  0.00  0.00    -0.458 OA
ATOM     18  C   UNL     1       1.786   0.622  23.361  0.00  0.00    +0.189 A 
ATOM     21  C   UNL     1       1.725  -0.151  22.225  0.00  0.00    +0.054 A 
ATOM     24  C   UNL     1       2.979  -0.006  21.584  0.00  0.00    +0.042 A 
ATOM     25  C   UNL     1       3.715   0.847  22.374  0.00  0.00    +0.196 A 
ENDBRANCH  16  18
ENDBRANCH  14   7
ENDBRANCH  12  14
TORSDOF 8
ENDMDL
MODEL 5
REMARK VINA RESULT:      -4.1      2.474      6.918
REMARK  Name = 40777964
REMARK  8 active torsions:
REMARK  status: ('A' for Active; 'I' for Inactive)
REMARK    1  A    between atoms: O_2  and  C_9
REMARK    2  A    between atoms: O_3  and  C_10
REMARK    3  A    between atoms: N_7  and  C_14
REMARK    4  A    between atoms: N_8  and  C_17
REMARK    5  A    between atoms: C_11  and  C_13
REMARK    6  A    between atoms: C_12  and  C_14
REMARK    7  A    between atoms: C_13  and  C_15
REMARK    8  A    between atoms: C_16  and  C_18
REMARK                            x       y       z     vdW  Elec       q    Type
REMARK                         _______ _______ _______ _____ _____    ______ ____
ROOT
ATOM      1  O   UNL     1      -1.278  -2.353  23.633  0.00  0.00    -0.366 OA
ATOM      9  C   UNL     1      -0.277  -1.106  25.394  0.00  0.00    +0.175 C 
ATOM     10  C   UNL     1      -1.784  -1.039  25.525  0.00  0.00    +0.176 C 
ATOM     11  C   UNL     1      -0.104  -1.572  23.953  0.00  0.00    +0.159 C 
ATOM     12  C   UNL     1      -2.214  -2.254  24.722  0.00  0.00    +0.167 C 
ENDROOT
BRANCH   9   2
ATOM      2  O   UNL     1       0.250  -2.116  26.254  0.00  0.00    -0.387 OA
ATOM     27  H   UNL     1      -0.503  -2.617  26.609  0.00  0.00    +0.210 HD
ENDBRANCH   9   2
BRANCH  10   3
ATOM      3  O   UNL     1      -2.234  -1.100  26.862  0.00  0.00    -0.387 OA
ATOM     28  H   UNL     1      -1.620  -1.674  27.350  0.00  0.00    +0.210 HD
ENDBRANCH  10   3
BRANCH  11  13
ATOM     13  C   UNL     1      -0.024  -0.421  22.959  0.00  0.00    +0.130 C 
BRANCH  13  15
ATOM      4  O   UNL     1       1.317   1.295  23.986  0.00  0.00    -0.275 OA
ATOM      8  N   UNL     1      -1.001   1.609  23.771  0.00  0.00    -0.285 N 
ATOM     15  C   UNL     1       0.202   0.923  23.634  0.00  0.00    +0.220 C 
ATOM     30  H   UNL     1      -1.842   1.154  23.421  0.00  0.00    +0.155 HD
BRANCH   8  17
ATOM     17  C   UNL     1      -1.206   2.885  24.347  0.00  0.00    +0.033 A 
ATOM     19  C   UNL     1      -0.496   3.988  23.871  0.00  0.00    +0.023 A 
ATOM     20  C   UNL     1      -2.118   3.041  25.390  0.00  0.00    +0.023 A 
ATOM     22  C   UNL     1      -0.698   5.245  24.439  0.00  0.00    +0.002 A 
ATOM     23  C   UNL     1      -2.321   4.299  25.958  0.00  0.00    +0.002 A 
ATOM     26  C   UNL     1      -1.610   5.401  25.482  0.00  0.00    +0.000 A 
ENDBRANCH   8  17
ENDBRANCH  13  15
ENDBRANCH  11  13
BRANCH  12  14
ATOM     14  C   UNL     1      -3.626  -2.146  24.174  0.00  0.00    +0.138 C 
BRANCH  14   7
ATOM      5  O   UNL     1      -3.522   0.522  23.119  0.00  0.00    -0.267 OA
ATOM      7  N   UNL     1      -4.297  -0.993  24.697  0.00  0.00    -0.306 N 
ATOM     16  C   UNL     1      -4.190   0.270  24.119  0.00  0.00    +0.279 C 
ATOM     29  H   UNL     1      -4.874  -1.106  25.525  0.00  0.00    +0.149 HD
BRANCH  16  18
ATOM      6  O   UNL     1      -5.576   1.077  25.954  0.00  0.00    -0.458 OA
ATOM     18  C   UNL     1      -4.927   1.368  24.796  0.00  0.00    +0.189 A 
ATOM     21  C   UNL     1      -5.092   2.693  24.469  0.00  0.00    +0.054 A 
ATOM     24  C   UNL     1      -5.894   3.254  25.492  0.00  0.00    +0.042 A 
ATOM     25  C   UNL     1      -6.162   2.230  26.371  0.00  0.00    +0.196 A 
ENDBRANCH  16  18
ENDBRANCH  14   7
ENDBRANCH  12  14
TORSDOF 8
ENDMDL
MODEL 6
REMARK VINA RESULT:      -3.5      2.460      4.756
REMARK  Name = 40777964
REMARK  8 active torsions:
REMARK  status: ('A' for Active; 'I' for Inactive)
REMARK    1  A    between atoms: O_2  and  C_9
REMARK    2  A    between atoms: O_3  and  C_10
REMARK    3  A    between atoms: N_7  and  C_14
REMARK    4  A    between atoms: N_8  and  C_17
REMARK    5  A    between atoms: C_11  and  C_13
REMARK    6  A    between atoms: C_12  and  C_14
REMARK    7  A    between atoms: C_13  and  C_15
REMARK    8  A    between atoms: C_16  and  C_18
REMARK                            x       y       z     vdW  Elec       q    Type
REMARK                         _______ _______ _______ _____ _____    ______ ____
ROOT
ATOM      1  O   UNL     1       0.843   2.969  24.232  0.00  0.00    -0.366 OA
ATOM      9  C   UNL     1      -0.167   2.851  26.382  0.00  0.00    +0.175 C 
ATOM     10  C   UNL     1      -0.542   1.621  25.583  0.00  0.00    +0.176 C 
ATOM     11  C   UNL     1       0.322   3.800  25.294  0.00  0.00    +0.159 C 
ATOM     12  C   UNL     1       0.557   1.592  24.534  0.00  0.00    +0.167 C 
ENDROOT
BRANCH   9   2
ATOM      2  O   UNL     1       0.933   2.563  27.246  0.00  0.00    -0.387 OA
ATOM     27  H   UNL     1       1.589   3.271  27.127  0.00  0.00    +0.210 HD
ENDBRANCH   9   2
BRANCH  10   3
ATOM      3  O   UNL     1      -0.571   0.439  26.354  0.00  0.00    -0.387 OA
ATOM     28  H   UNL     1      -1.467   0.351  26.720  0.00  0.00    +0.210 HD
ENDBRANCH  10   3
BRANCH  11  13
ATOM     13  C   UNL     1      -0.790   4.661  24.710  0.00  0.00    +0.130 C 
BRANCH  13  15
ATOM      4  O   UNL     1      -2.574   4.962  26.301  0.00  0.00    -0.275 OA
ATOM      8  N   UNL     1      -2.784   3.338  24.616  0.00  0.00    -0.285 N 
ATOM     15  C   UNL     1      -2.151   4.357  25.321  0.00  0.00    +0.220 C 
ATOM     30  H   UNL     1      -2.290   2.942  23.819  0.00  0.00    +0.155 HD
BRANCH   8  17
ATOM     17  C   UNL     1      -4.057   2.774  24.872  0.00  0.00    +0.033 A 
ATOM     19  C   UNL     1      -4.304   1.438  24.556  0.00  0.00    +0.023 A 
ATOM     20  C   UNL     1      -5.063   3.554  25.441  0.00  0.00    +0.023 A 
ATOM     22  C   UNL     1      -5.558   0.882  24.808  0.00  0.00    +0.002 A 
ATOM     23  C   UNL     1      -6.317   2.998  25.693  0.00  0.00    +0.002 A 
ATOM     26  C   UNL     1      -6.565   1.662  25.376  0.00  0.00    +0.000 A 
ENDBRANCH   8  17
ENDBRANCH  13  15
ENDBRANCH  11  13
BRANCH  12  14
ATOM     14  C   UNL     1       0.158   0.862  23.264  0.00  0.00    +0.138 C 
BRANCH  14   7
ATOM      5  O   UNL     1       0.051  -1.684  24.586  0.00  0.00    -0.267 OA
ATOM      7  N   UNL     1      -1.008   0.055  23.474  0.00  0.00    -0.306 N 
ATOM     16  C   UNL     1      -0.968  -1.173  24.128  0.00  0.00    +0.279 C 
ATOM     29  H   UNL     1      -1.899   0.399  23.128  0.00  0.00    +0.149 HD
BRANCH  16  18
ATOM      6  O   UNL     1      -3.311  -1.442  23.514  0.00  0.00    -0.458 OA
ATOM     18  C   UNL     1      -2.259  -1.899  24.242  0.00  0.00    +0.189 A 
ATOM     21  C   UNL     1      -2.623  -3.003  24.977  0.00  0.00    +0.054 A 
ATOM     24  C   UNL     1      -3.987  -3.241  24.681  0.00  0.00    +0.042 A 
ATOM     25  C   UNL     1      -4.359  -2.264  23.786  0.00  0.00    +0.196 A 
ENDBRANCH  16  18
ENDBRANCH  14   7
ENDBRANCH  12  14
TORSDOF 8
ENDMDL
MODEL 7
REMARK VINA RESULT:      -3.3      1.853      5.775
REMARK  Name = 40777964
REMARK  8 active torsions:
REMARK  status: ('A' for Active; 'I' for Inactive)
REMARK    1  A    between atoms: O_2  and  C_9
REMARK    2  A    between atoms: O_3  and  C_10
REMARK    3  A    between atoms: N_7  and  C_14
REMARK    4  A    between atoms: N_8  and  C_17
REMARK    5  A    between atoms: C_11  and  C_13
REMARK    6  A    between atoms: C_12  and  C_14
REMARK    7  A    between atoms: C_13  and  C_15
REMARK    8  A    between atoms: C_16  and  C_18
REMARK                            x       y       z     vdW  Elec       q    Type
REMARK                         _______ _______ _______ _____ _____    ______ ____
ROOT
ATOM      1  O   UNL     1      -3.408   3.343  26.588  0.00  0.00    -0.366 OA
ATOM      9  C   UNL     1      -1.926   4.174  24.922  0.00  0.00    +0.175 C 
ATOM     10  C   UNL     1      -3.223   3.742  24.271  0.00  0.00    +0.176 C 
ATOM     11  C   UNL     1      -2.002   3.474  26.275  0.00  0.00    +0.159 C 
ATOM     12  C   UNL     1      -4.180   3.768  25.451  0.00  0.00    +0.167 C 
ENDROOT
BRANCH   9   2
ATOM      2  O   UNL     1      -1.931   5.582  25.151  0.00  0.00    -0.387 OA
ATOM     27  H   UNL     1      -1.584   5.733  26.047  0.00  0.00    +0.210 HD
ENDBRANCH   9   2
BRANCH  10   3
ATOM      3  O   UNL     1      -3.640   4.601  23.231  0.00  0.00    -0.387 OA
ATOM     28  H   UNL     1      -3.595   4.098  22.401  0.00  0.00    +0.210 HD
ENDBRANCH  10   3
BRANCH  11  13
ATOM     13  C   UNL     1      -1.396   2.077  26.259  0.00  0.00    +0.130 C 
BRANCH  13  15
ATOM      4  O   UNL     1       0.881   2.734  25.826  0.00  0.00    -0.275 OA
ATOM      8  N   UNL     1      -0.122   1.080  24.492  0.00  0.00    -0.285 N 
ATOM     15  C   UNL     1      -0.069   2.021  25.516  0.00  0.00    +0.220 C 
ATOM     30  H   UNL     1      -0.994   0.569  24.371  0.00  0.00    +0.155 HD
BRANCH   8  17
ATOM     17  C   UNL     1       0.905   0.737  23.581  0.00  0.00    +0.033 A 
ATOM     19  C   UNL     1       2.170   1.311  23.708  0.00  0.00    +0.023 A 
ATOM     20  C   UNL     1       0.653  -0.176  22.558  0.00  0.00    +0.023 A 
ATOM     22  C   UNL     1       3.182   0.973  22.810  0.00  0.00    +0.002 A 
ATOM     23  C   UNL     1       1.664  -0.514  21.660  0.00  0.00    +0.002 A 
ATOM     26  C   UNL     1       2.929   0.061  21.786  0.00  0.00    +0.000 A 
ENDBRANCH   8  17
ENDBRANCH  13  15
ENDBRANCH  11  13
BRANCH  12  14
ATOM     14  C   UNL     1      -5.378   2.852  25.275  0.00  0.00    +0.138 C 
BRANCH  14   7
ATOM      5  O   UNL     1      -3.729   1.375  23.447  0.00  0.00    -0.267 OA
ATOM      7  N   UNL     1      -4.998   1.475  25.387  0.00  0.00    -0.306 N 
ATOM     16  C   UNL     1      -4.191   0.836  24.450  0.00  0.00    +0.279 C 
ATOM     29  H   UNL     1      -5.334   0.947  26.187  0.00  0.00    +0.149 HD
BRANCH  16  18
ATOM      6  O   UNL     1      -4.367  -1.503  23.786  0.00  0.00    -0.458 OA
ATOM     18  C   UNL     1      -3.910  -0.602  24.695  0.00  0.00    +0.189 A 
ATOM     21  C   UNL     1      -3.242  -1.240  25.715  0.00  0.00    +0.054 A 
ATOM     24  C   UNL     1      -3.291  -2.622  25.413  0.00  0.00    +0.042 A 
ATOM     25  C   UNL     1      -3.985  -2.730  24.230  0.00  0.00    +0.196 A 
ENDBRANCH  16  18
ENDBRANCH  14   7
ENDBRANCH  12  14
TORSDOF 8
ENDMDL
