MODEL 1
REMARK VINA RESULT:      -3.3      0.000      0.000
REMARK  Name = 11911516
REMARK  9 active torsions:
REMARK  status: ('A' for Active; 'I' for Inactive)
REMARK    1  A    between atoms: N_3  and  C_10
REMARK    2  A    between atoms: N_4  and  C_11
REMARK    3  A    between atoms: N_4  and  C_23
REMARK    4  A    between atoms: N_7  and  C_29
REMARK    5  A    between atoms: N_7  and  C_30
REMARK    6  A    between atoms: N_7  and  C_31
REMARK    7  A    between atoms: C_14  and  C_15
REMARK    8  A    between atoms: C_15  and  C_19
REMARK    9  A    between atoms: C_23  and  C_24
REMARK                            x       y       z     vdW  Elec       q    Type
REMARK                         _______ _______ _______ _____ _____    ______ ____
ROOT
ATOM      1  O   UNL     1      -0.747   4.582  24.747  0.00  0.00    -0.370 OA
ATOM      2  O   UNL     1      -2.507   3.150  26.891  0.00  0.00    -0.370 OA
ATOM      8  C   UNL     1      -1.965   2.732  25.624  0.00  0.00    +0.175 C 
ATOM      9  C   UNL     1      -2.028   3.932  24.700  0.00  0.00    +0.168 C 
ATOM     10  C   UNL     1      -0.485   2.439  25.770  0.00  0.00    +0.166 C 
ATOM     11  C   UNL     1      -3.090   4.821  25.309  0.00  0.00    +0.111 C 
ATOM     12  C   UNL     1       0.156   3.805  25.545  0.00  0.00    +0.189 C 
ATOM     13  C   UNL     1      -2.940   4.514  26.790  0.00  0.00    +0.181 C 
ENDROOT
BRANCH  10   3
ATOM      3  N   UNL     1      -0.030   1.380  24.866  0.00  0.00    -0.244 N 
ATOM      5  N   UNL     1      -0.436   0.112  25.038  0.00  0.00    -0.065 NA
ATOM      6  N   UNL     1       0.133  -0.617  24.085  0.00  0.00    -0.134 NA
ATOM     18  C   UNL     1       0.807   1.498  23.800  0.00  0.00    +0.134 A 
ATOM     19  C   UNL     1       0.884   0.226  23.340  0.00  0.00    +0.083 A 
BRANCH  19  15
ATOM     15  C   UNL     1       1.664  -0.289  22.171  0.00  0.00    +0.062 C 
BRANCH  15  14
ATOM     14  C   UNL     1       3.157  -0.401  22.476  0.00  0.00    -0.005 C 
ATOM     16  C   UNL     1       3.405  -1.410  23.605  0.00  0.00    +0.004 C 
ATOM     17  C   UNL     1       3.741   0.972  22.833  0.00  0.00    +0.004 C 
ATOM     20  C   UNL     1       4.887  -1.501  23.965  0.00  0.00    +0.000 C 
ATOM     21  C   UNL     1       5.222   0.878  23.193  0.00  0.00    +0.000 C 
ATOM     22  C   UNL     1       5.467  -0.133  24.310  0.00  0.00    +0.000 C 
ENDBRANCH  15  14
ENDBRANCH  19  15
ENDBRANCH  10   3
BRANCH  11   4
ATOM      4  N   UNL     1      -4.419   4.419  24.855  0.00  0.00    -0.305 NA
ATOM     32  H   UNL     1      -4.992   5.253  24.718  0.00  0.00    +0.123 HD
BRANCH   4  23
ATOM     23  C   UNL     1      -4.335   3.677  23.606  0.00  0.00    +0.116 C 
BRANCH  23  24
ATOM     24  C   UNL     1      -4.214   2.195  23.841  0.00  0.00    -0.033 A 
ATOM     25  C   UNL     1      -4.966   1.598  24.843  0.00  0.00    +0.007 A 
ATOM     26  C   UNL     1      -3.351   1.448  23.053  0.00  0.00    +0.007 A 
ATOM     27  C   UNL     1      -4.852   0.225  25.061  0.00  0.00    +0.023 A 
ATOM     28  C   UNL     1      -3.237   0.074  23.271  0.00  0.00    +0.023 A 
ATOM     29  C   UNL     1      -3.988  -0.537  24.275  0.00  0.00    +0.029 A 
BRANCH  29   7
ATOM      7  N   UNL     1      -3.873  -1.926  24.494  0.00  0.00    -0.336 N 
ATOM     30  C   UNL     1      -4.371  -2.867  23.510  0.00  0.00    +0.129 C 
ATOM     31  C   UNL     1      -3.244  -2.429  25.698  0.00  0.00    +0.129 C 
ENDBRANCH  29   7
ENDBRANCH  23  24
ENDBRANCH   4  23
ENDBRANCH  11   4
TORSDOF 7
ENDMDL
MODEL 2
REMARK VINA RESULT:      -1.8      1.547      2.282
REMARK  Name = 11911516
REMARK  9 active torsions:
REMARK  status: ('A' for Active; 'I' for Inactive)
REMARK    1  A    between atoms: N_3  and  C_10
REMARK    2  A    between atoms: N_4  and  C_11
REMARK    3  A    between atoms: N_4  and  C_23
REMARK    4  A    between atoms: N_7  and  C_29
REMARK    5  A    between atoms: N_7  and  C_30
REMARK    6  A    between atoms: N_7  and  C_31
REMARK    7  A    between atoms: C_14  and  C_15
REMARK    8  A    between atoms: C_15  and  C_19
REMARK    9  A    between atoms: C_23  and  C_24
REMARK                            x       y       z     vdW  Elec       q    Type
REMARK                         _______ _______ _______ _____ _____    ______ ____
ROOT
ATOM      1  O   UNL     1      -3.443   4.324  23.763  0.00  0.00    -0.370 OA
ATOM      2  O   UNL     1      -3.584   4.274  26.881  0.00  0.00    -0.370 OA
ATOM      8  C   UNL     1      -2.958   3.413  25.910  0.00  0.00    +0.175 C 
ATOM      9  C   UNL     1      -3.889   3.345  24.716  0.00  0.00    +0.168 C 
ATOM     10  C   UNL     1      -1.700   4.070  25.377  0.00  0.00    +0.166 C 
ATOM     11  C   UNL     1      -5.243   3.733  25.271  0.00  0.00    +0.111 C 
ATOM     12  C   UNL     1      -2.223   4.921  24.224  0.00  0.00    +0.189 C 
ATOM     13  C   UNL     1      -4.859   4.700  26.379  0.00  0.00    +0.181 C 
ENDROOT
BRANCH  10   3
ATOM      3  N   UNL     1      -0.667   3.096  25.017  0.00  0.00    -0.244 N 
ATOM      5  N   UNL     1       0.211   2.658  25.933  0.00  0.00    -0.065 NA
ATOM      6  N   UNL     1       1.019   1.797  25.325  0.00  0.00    -0.134 NA
ATOM     18  C   UNL     1      -0.448   2.529  23.800  0.00  0.00    +0.134 A 
ATOM     19  C   UNL     1       0.617   1.724  24.035  0.00  0.00    +0.083 A 
BRANCH  19  15
ATOM     15  C   UNL     1       1.330   0.828  23.072  0.00  0.00    +0.062 C 
BRANCH  15  14
ATOM     14  C   UNL     1       2.715   0.424  23.575  0.00  0.00    -0.005 C 
ATOM     16  C   UNL     1       3.807   1.243  22.873  0.00  0.00    +0.004 C 
ATOM     17  C   UNL     1       2.947  -1.079  23.375  0.00  0.00    +0.004 C 
ATOM     20  C   UNL     1       5.204   0.821  23.321  0.00  0.00    +0.000 C 
ATOM     21  C   UNL     1       4.345  -1.499  23.822  0.00  0.00    +0.000 C 
ATOM     22  C   UNL     1       5.428  -0.676  23.129  0.00  0.00    +0.000 C 
ENDBRANCH  15  14
ENDBRANCH  19  15
ENDBRANCH  10   3
BRANCH  11   4
ATOM      4  N   UNL     1      -5.915   2.569  25.844  0.00  0.00    -0.305 NA
ATOM     32  H   UNL     1      -6.836   2.849  26.184  0.00  0.00    +0.123 HD
BRANCH   4  23
ATOM     23  C   UNL     1      -6.064   1.518  24.850  0.00  0.00    +0.116 C 
BRANCH  23  24
ATOM     24  C   UNL     1      -4.863   0.610  24.808  0.00  0.00    -0.033 A 
ATOM     25  C   UNL     1      -4.518  -0.118  25.937  0.00  0.00    +0.007 A 
ATOM     26  C   UNL     1      -4.119   0.516  23.641  0.00  0.00    +0.007 A 
ATOM     27  C   UNL     1      -3.405  -0.959  25.899  0.00  0.00    +0.023 A 
ATOM     28  C   UNL     1      -3.006  -0.324  23.603  0.00  0.00    +0.023 A 
ATOM     29  C   UNL     1      -2.650  -1.061  24.732  0.00  0.00    +0.029 A 
BRANCH  29   7
ATOM      7  N   UNL     1      -1.524  -1.911  24.692  0.00  0.00    -0.336 N 
ATOM     30  C   UNL     1      -0.341  -1.597  25.468  0.00  0.00    +0.129 C 
ATOM     31  C   UNL     1      -1.542  -3.115  23.886  0.00  0.00    +0.129 C 
ENDBRANCH  29   7
ENDBRANCH  23  24
ENDBRANCH   4  23
ENDBRANCH  11   4
TORSDOF 7
ENDMDL
MODEL 3
REMARK VINA RESULT:      -0.9      1.878      4.361
REMARK  Name = 11911516
REMARK  9 active torsions:
REMARK  status: ('A' for Active; 'I' for Inactive)
REMARK    1  A    between atoms: N_3  and  C_10
REMARK    2  A    between atoms: N_4  and  C_11
REMARK    3  A    between atoms: N_4  and  C_23
REMARK    4  A    between atoms: N_7  and  C_29
REMARK    5  A    between atoms: N_7  and  C_30
REMARK    6  A    between atoms: N_7  and  C_31
REMARK    7  A    between atoms: C_14  and  C_15
REMARK    8  A    between atoms: C_15  and  C_19
REMARK    9  A    between atoms: C_23  and  C_24
REMARK                            x       y       z     vdW  Elec       q    Type
REMARK                         _______ _______ _______ _____ _____    ______ ____
ROOT
ATOM      1  O   UNL     1      -2.451  -0.724  26.310  0.00  0.00    -0.370 OA
ATOM      2  O   UNL     1      -3.303  -1.962  23.574  0.00  0.00    -0.370 OA
ATOM      8  C   UNL     1      -2.514  -0.811  23.930  0.00  0.00    +0.175 C 
ATOM      9  C   UNL     1      -3.149  -0.205  25.166  0.00  0.00    +0.168 C 
ATOM     10  C   UNL     1      -1.137  -1.254  24.386  0.00  0.00    +0.166 C 
ATOM     11  C   UNL     1      -4.573  -0.716  25.146  0.00  0.00    +0.111 C 
ATOM     12  C   UNL     1      -1.341  -1.521  25.874  0.00  0.00    +0.189 C 
ATOM     13  C   UNL     1      -4.407  -2.074  24.483  0.00  0.00    +0.181 C 
ENDROOT
BRANCH  10   3
ATOM      3  N   UNL     1      -0.097  -0.273  24.065  0.00  0.00    -0.244 N 
ATOM      5  N   UNL     1      -0.058   0.913  24.691  0.00  0.00    -0.065 NA
ATOM      6  N   UNL     1       0.976   1.586  24.197  0.00  0.00    -0.134 NA
ATOM     18  C   UNL     1       0.908  -0.395  23.156  0.00  0.00    +0.134 A 
ATOM     19  C   UNL     1       1.556   0.790  23.269  0.00  0.00    +0.083 A 
BRANCH  19  15
ATOM     15  C   UNL     1       2.762   1.260  22.519  0.00  0.00    +0.062 C 
BRANCH  15  14
ATOM     14  C   UNL     1       3.964   0.337  22.721  0.00  0.00    -0.005 C 
ATOM     16  C   UNL     1       3.554  -0.924  23.493  0.00  0.00    +0.004 C 
ATOM     17  C   UNL     1       5.098   1.075  23.443  0.00  0.00    +0.004 C 
ATOM     20  C   UNL     1       4.749  -1.839  23.753  0.00  0.00    +0.000 C 
ATOM     21  C   UNL     1       6.291   0.158  23.704  0.00  0.00    +0.000 C 
ATOM     22  C   UNL     1       5.879  -1.100  24.463  0.00  0.00    +0.000 C 
ENDBRANCH  15  14
ENDBRANCH  19  15
ENDBRANCH  10   3
BRANCH  11   4
ATOM      4  N   UNL     1      -5.414   0.139  24.311  0.00  0.00    -0.305 NA
ATOM     32  H   UNL     1      -6.265  -0.367  24.064  0.00  0.00    +0.123 HD
BRANCH   4  23
ATOM     23  C   UNL     1      -5.765   1.363  25.015  0.00  0.00    +0.116 C 
BRANCH  23  24
ATOM     24  C   UNL     1      -4.645   2.369  24.985  0.00  0.00    -0.033 A 
ATOM     25  C   UNL     1      -3.952   2.584  23.802  0.00  0.00    +0.007 A 
ATOM     26  C   UNL     1      -4.321   3.065  26.140  0.00  0.00    +0.007 A 
ATOM     27  C   UNL     1      -2.914   3.516  23.774  0.00  0.00    +0.023 A 
ATOM     28  C   UNL     1      -3.283   3.996  26.113  0.00  0.00    +0.023 A 
ATOM     29  C   UNL     1      -2.580   4.221  24.929  0.00  0.00    +0.029 A 
BRANCH  29   7
ATOM      7  N   UNL     1      -1.530   5.164  24.902  0.00  0.00    -0.336 N 
ATOM     30  C   UNL     1      -0.155   4.725  24.770  0.00  0.00    +0.129 C 
ATOM     31  C   UNL     1      -1.814   6.582  24.991  0.00  0.00    +0.129 C 
ENDBRANCH  29   7
ENDBRANCH  23  24
ENDBRANCH   4  23
ENDBRANCH  11   4
TORSDOF 7
ENDMDL
