MODEL 1
REMARK VINA RESULT:       3.5      0.000      0.000
REMARK  Name = 11865998
REMARK  4 active torsions:
REMARK  status: ('A' for Active; 'I' for Inactive)
REMARK    1  A    between atoms: O_2  and  C_10
REMARK    2  A    between atoms: O_5  and  C_21
REMARK    3  A    between atoms: O_5  and  C_26
REMARK    4  A    between atoms: C_18  and  C_20
REMARK                            x       y       z     vdW  Elec       q    Type
REMARK                         _______ _______ _______ _____ _____    ______ ____
ROOT
ATOM      3  O   UNL     1      -4.535   4.355  26.639  0.00  0.00    -0.273 OA
ATOM      4  O   UNL     1      -2.834  -0.361  24.991  0.00  0.00    -0.270 OA
ATOM      6  N   UNL     1      -4.117   1.546  24.952  0.00  0.00    -0.283 N 
ATOM      7  N   UNL     1      -2.427   3.646  26.138  0.00  0.00    -0.283 N 
ATOM      8  C   UNL     1      -4.293   2.960  24.690  0.00  0.00    +0.165 C 
ATOM      9  C   UNL     1      -5.791   3.116  24.437  0.00  0.00    +0.065 C 
ATOM     10  C   UNL     1      -6.413   1.986  25.255  0.00  0.00    +0.134 C 
ATOM     11  C   UNL     1      -5.394   0.867  25.113  0.00  0.00    +0.140 C 
ATOM     12  C   UNL     1      -3.790   3.683  25.923  0.00  0.00    +0.238 C 
ATOM     13  C   UNL     1      -2.921   0.865  24.917  0.00  0.00    +0.249 C 
ATOM     14  C   UNL     1      -1.668   1.657  24.812  0.00  0.00    +0.059 A 
ATOM     15  C   UNL     1      -1.450   2.886  25.459  0.00  0.00    +0.046 A 
ATOM     16  C   UNL     1      -0.598   1.024  24.153  0.00  0.00    +0.023 A 
ATOM     17  C   UNL     1      -0.148   3.416  25.485  0.00  0.00    +0.024 A 
ATOM     18  C   UNL     1       0.676   1.590  24.150  0.00  0.00    -0.014 A 
ATOM     19  C   UNL     1       0.904   2.780  24.827  0.00  0.00    +0.010 A 
ATOM     27  H   UNL     1      -2.076   4.317  26.816  0.00  0.00    +0.155 HD
ENDROOT
BRANCH  18  20
ATOM      1 CL   UNL     1       5.764   1.028  23.553  0.00  0.00    -0.084 Cl
ATOM     20  C   UNL     1       1.763   0.927  23.462  0.00  0.00    +0.025 A 
ATOM     21  C   UNL     1       1.512  -0.028  22.476  0.00  0.00    +0.128 A 
ATOM     22  C   UNL     1       3.080   1.253  23.794  0.00  0.00    +0.032 A 
ATOM     23  C   UNL     1       2.574  -0.655  21.823  0.00  0.00    +0.047 A 
ATOM     24  C   UNL     1       4.141   0.626  23.142  0.00  0.00    +0.042 A 
ATOM     25  C   UNL     1       3.889  -0.329  22.157  0.00  0.00    +0.023 A 
BRANCH  21   5
ATOM      5  O   UNL     1       0.237  -0.367  22.129  0.00  0.00    -0.495 OA
ATOM     26  C   UNL     1      -0.376  -1.418  22.873  0.00  0.00    +0.277 C 
ENDBRANCH  21   5
ENDBRANCH  18  20
BRANCH  10   2
ATOM      2  O   UNL     1      -7.669   1.601  24.734  0.00  0.00    -0.390 OA
ATOM     28  H   UNL     1      -8.079   0.998  25.377  0.00  0.00    +0.210 HD
ENDBRANCH  10   2
TORSDOF 3
ENDMDL
MODEL 2
REMARK VINA RESULT:       3.6      3.581      7.892
REMARK  Name = 11865998
REMARK  4 active torsions:
REMARK  status: ('A' for Active; 'I' for Inactive)
REMARK    1  A    between atoms: O_2  and  C_10
REMARK    2  A    between atoms: O_5  and  C_21
REMARK    3  A    between atoms: O_5  and  C_26
REMARK    4  A    between atoms: C_18  and  C_20
REMARK                            x       y       z     vdW  Elec       q    Type
REMARK                         _______ _______ _______ _____ _____    ______ ____
ROOT
ATOM      3  O   UNL     1       2.425  -2.146  24.169  0.00  0.00    -0.273 OA
ATOM      4  O   UNL     1       0.702   2.830  24.522  0.00  0.00    -0.270 OA
ATOM      6  N   UNL     1       1.592   0.977  23.491  0.00  0.00    -0.283 N 
ATOM      7  N   UNL     1       0.423  -1.333  24.894  0.00  0.00    -0.283 N 
ATOM      8  C   UNL     1       1.463  -0.339  22.899  0.00  0.00    +0.165 C 
ATOM      9  C   UNL     1       2.642  -0.438  21.933  0.00  0.00    +0.065 C 
ATOM     10  C   UNL     1       3.698   0.471  22.560  0.00  0.00    +0.134 C 
ATOM     11  C   UNL     1       2.865   1.597  23.152  0.00  0.00    +0.140 C 
ATOM     12  C   UNL     1       1.514  -1.324  24.049  0.00  0.00    +0.238 C 
ATOM     13  C   UNL     1       0.604   1.653  24.172  0.00  0.00    +0.249 C 
ATOM     14  C   UNL     1      -0.634   0.911  24.525  0.00  0.00    +0.059 A 
ATOM     15  C   UNL     1      -0.664  -0.433  24.936  0.00  0.00    +0.046 A 
ATOM     16  C   UNL     1      -1.808   1.684  24.603  0.00  0.00    +0.023 A 
ATOM     17  C   UNL     1      -1.854  -0.949  25.477  0.00  0.00    +0.024 A 
ATOM     18  C   UNL     1      -2.991   1.139  25.099  0.00  0.00    -0.014 A 
ATOM     19  C   UNL     1      -3.012  -0.175  25.548  0.00  0.00    +0.010 A 
ATOM     27  H   UNL     1       0.355  -2.140  25.508  0.00  0.00    +0.155 HD
ENDROOT
BRANCH  18  20
ATOM      1 CL   UNL     1      -8.003   1.608  23.995  0.00  0.00    -0.084 Cl
ATOM     20  C   UNL     1      -4.190   1.947  25.165  0.00  0.00    +0.025 A 
ATOM     21  C   UNL     1      -4.175   3.206  25.768  0.00  0.00    +0.128 A 
ATOM     22  C   UNL     1      -5.376   1.454  24.617  0.00  0.00    +0.032 A 
ATOM     23  C   UNL     1      -5.341   3.970  25.822  0.00  0.00    +0.047 A 
ATOM     24  C   UNL     1      -6.542   2.217  24.671  0.00  0.00    +0.042 A 
ATOM     25  C   UNL     1      -6.525   3.475  25.274  0.00  0.00    +0.023 A 
BRANCH  21   5
ATOM      5  O   UNL     1      -3.033   3.715  26.312  0.00  0.00    -0.495 OA
ATOM     26  C   UNL     1      -2.354   4.722  25.566  0.00  0.00    +0.277 C 
ENDBRANCH  21   5
ENDBRANCH  18  20
BRANCH  10   2
ATOM      2  O   UNL     1       4.600   0.960  21.589  0.00  0.00    -0.390 OA
ATOM     28  H   UNL     1       5.113   1.676  22.002  0.00  0.00    +0.210 HD
ENDBRANCH  10   2
TORSDOF 3
ENDMDL
MODEL 3
REMARK VINA RESULT:       4.1      1.678      2.547
REMARK  Name = 11865998
REMARK  4 active torsions:
REMARK  status: ('A' for Active; 'I' for Inactive)
REMARK    1  A    between atoms: O_2  and  C_10
REMARK    2  A    between atoms: O_5  and  C_21
REMARK    3  A    between atoms: O_5  and  C_26
REMARK    4  A    between atoms: C_18  and  C_20
REMARK                            x       y       z     vdW  Elec       q    Type
REMARK                         _______ _______ _______ _____ _____    ______ ____
ROOT
ATOM      3  O   UNL     1      -5.312   0.363  25.950  0.00  0.00    -0.273 OA
ATOM      4  O   UNL     1      -2.235   2.709  22.362  0.00  0.00    -0.270 OA
ATOM      6  N   UNL     1      -3.473   2.549  24.293  0.00  0.00    -0.283 N 
ATOM      7  N   UNL     1      -3.297  -0.277  25.100  0.00  0.00    -0.283 N 
ATOM      8  C   UNL     1      -3.660   2.091  25.654  0.00  0.00    +0.165 C 
ATOM      9  C   UNL     1      -4.648   3.088  26.257  0.00  0.00    +0.065 C 
ATOM     10  C   UNL     1      -5.461   3.561  25.054  0.00  0.00    +0.134 C 
ATOM     11  C   UNL     1      -4.429   3.589  23.939  0.00  0.00    +0.140 C 
ATOM     12  C   UNL     1      -4.188   0.674  25.553  0.00  0.00    +0.238 C 
ATOM     13  C   UNL     1      -2.445   2.180  23.454  0.00  0.00    +0.249 C 
ATOM     14  C   UNL     1      -1.562   1.063  23.881  0.00  0.00    +0.059 A 
ATOM     15  C   UNL     1      -2.007  -0.086  24.556  0.00  0.00    +0.046 A 
ATOM     16  C   UNL     1      -0.236   1.120  23.413  0.00  0.00    +0.023 A 
ATOM     17  C   UNL     1      -1.130  -1.177  24.687  0.00  0.00    +0.024 A 
ATOM     18  C   UNL     1       0.633   0.045  23.593  0.00  0.00    -0.014 A 
ATOM     19  C   UNL     1       0.182  -1.109  24.220  0.00  0.00    +0.010 A 
ATOM     27  H   UNL     1      -3.573  -1.243  25.258  0.00  0.00    +0.155 HD
ENDROOT
BRANCH  18  20
ATOM      1 CL   UNL     1       5.628   0.644  24.708  0.00  0.00    -0.084 Cl
ATOM     20  C   UNL     1       1.995   0.124  23.111  0.00  0.00    +0.025 A 
ATOM     21  C   UNL     1       2.282   0.006  21.751  0.00  0.00    +0.128 A 
ATOM     22  C   UNL     1       3.031   0.322  24.026  0.00  0.00    +0.032 A 
ATOM     23  C   UNL     1       3.602   0.085  21.305  0.00  0.00    +0.047 A 
ATOM     24  C   UNL     1       4.351   0.401  23.580  0.00  0.00    +0.042 A 
ATOM     25  C   UNL     1       4.637   0.282  22.220  0.00  0.00    +0.023 A 
BRANCH  21   5
ATOM      5  O   UNL     1       1.291  -0.188  20.834  0.00  0.00    -0.495 OA
ATOM     26  C   UNL     1       0.676  -1.474  20.808  0.00  0.00    +0.277 C 
ENDBRANCH  21   5
ENDBRANCH  18  20
BRANCH  10   2
ATOM      2  O   UNL     1      -6.009   4.845  25.274  0.00  0.00    -0.390 OA
ATOM     28  H   UNL     1      -5.832   5.083  26.200  0.00  0.00    +0.210 HD
ENDBRANCH  10   2
TORSDOF 3
ENDMDL
MODEL 4
REMARK VINA RESULT:       4.4      3.591      7.671
REMARK  Name = 11865998
REMARK  4 active torsions:
REMARK  status: ('A' for Active; 'I' for Inactive)
REMARK    1  A    between atoms: O_2  and  C_10
REMARK    2  A    between atoms: O_5  and  C_21
REMARK    3  A    between atoms: O_5  and  C_26
REMARK    4  A    between atoms: C_18  and  C_20
REMARK                            x       y       z     vdW  Elec       q    Type
REMARK                         _______ _______ _______ _____ _____    ______ ____
ROOT
ATOM      3  O   UNL     1       2.585  -0.252  20.775  0.00  0.00    -0.273 OA
ATOM      4  O   UNL     1      -0.132  -1.557  25.107  0.00  0.00    -0.270 OA
ATOM      6  N   UNL     1       1.625  -0.690  23.906  0.00  0.00    -0.283 N 
ATOM      7  N   UNL     1       0.448   0.262  21.380  0.00  0.00    -0.283 N 
ATOM      8  C   UNL     1       2.222   0.342  23.082  0.00  0.00    +0.165 C 
ATOM      9  C   UNL     1       3.724   0.195  23.318  0.00  0.00    +0.065 C 
ATOM     10  C   UNL     1       3.892  -1.286  23.653  0.00  0.00    +0.134 C 
ATOM     11  C   UNL     1       2.629  -1.600  24.438  0.00  0.00    +0.140 C 
ATOM     12  C   UNL     1       1.783   0.052  21.661  0.00  0.00    +0.238 C 
ATOM     13  C   UNL     1       0.302  -0.754  24.281  0.00  0.00    +0.249 C 
ATOM     14  C   UNL     1      -0.655   0.179  23.631  0.00  0.00    +0.059 A 
ATOM     15  C   UNL     1      -0.604   0.551  22.276  0.00  0.00    +0.046 A 
ATOM     16  C   UNL     1      -1.763   0.560  24.411  0.00  0.00    +0.023 A 
ATOM     17  C   UNL     1      -1.698   1.238  21.721  0.00  0.00    +0.024 A 
ATOM     18  C   UNL     1      -2.816   1.282  23.853  0.00  0.00    -0.014 A 
ATOM     19  C   UNL     1      -2.790   1.611  22.504  0.00  0.00    +0.010 A 
ATOM     27  H   UNL     1       0.212   0.297  20.392  0.00  0.00    +0.155 HD
ENDROOT
BRANCH  18  20
ATOM      1 CL   UNL     1      -5.873   5.063  25.559  0.00  0.00    -0.084 Cl
ATOM     20  C   UNL     1      -3.944   1.670  24.672  0.00  0.00    +0.025 A 
ATOM     21  C   UNL     1      -4.654   0.722  25.412  0.00  0.00    +0.128 A 
ATOM     22  C   UNL     1      -4.323   3.013  24.719  0.00  0.00    +0.032 A 
ATOM     23  C   UNL     1      -5.739   1.116  26.196  0.00  0.00    +0.047 A 
ATOM     24  C   UNL     1      -5.407   3.407  25.503  0.00  0.00    +0.042 A 
ATOM     25  C   UNL     1      -6.116   2.459  26.241  0.00  0.00    +0.023 A 
BRANCH  21   5
ATOM      5  O   UNL     1      -4.308  -0.597  25.386  0.00  0.00    -0.495 OA
ATOM     26  C   UNL     1      -4.527  -1.299  24.165  0.00  0.00    +0.277 C 
ENDBRANCH  21   5
ENDBRANCH  18  20
BRANCH  10   2
ATOM      2  O   UNL     1       5.048  -1.511  24.434  0.00  0.00    -0.390 OA
ATOM     28  H   UNL     1       4.940  -2.372  24.872  0.00  0.00    +0.210 HD
ENDBRANCH  10   2
TORSDOF 3
ENDMDL
MODEL 5
REMARK VINA RESULT:       4.8      3.608      7.783
REMARK  Name = 11865998
REMARK  4 active torsions:
REMARK  status: ('A' for Active; 'I' for Inactive)
REMARK    1  A    between atoms: O_2  and  C_10
REMARK    2  A    between atoms: O_5  and  C_21
REMARK    3  A    between atoms: O_5  and  C_26
REMARK    4  A    between atoms: C_18  and  C_20
REMARK                            x       y       z     vdW  Elec       q    Type
REMARK                         _______ _______ _______ _____ _____    ______ ____
ROOT
ATOM      3  O   UNL     1       2.057  -0.658  20.664  0.00  0.00    -0.273 OA
ATOM      4  O   UNL     1      -0.337  -1.120  25.344  0.00  0.00    -0.270 OA
ATOM      6  N   UNL     1       1.367  -0.593  23.893  0.00  0.00    -0.283 N 
ATOM      7  N   UNL     1       0.042   0.139  21.367  0.00  0.00    -0.283 N 
ATOM      8  C   UNL     1       1.970   0.260  22.889  0.00  0.00    +0.165 C 
ATOM      9  C   UNL     1       3.469  -0.004  23.018  0.00  0.00    +0.065 C 
ATOM     10  C   UNL     1       3.538  -1.439  23.537  0.00  0.00    +0.134 C 
ATOM     11  C   UNL     1       2.334  -1.522  24.460  0.00  0.00    +0.140 C 
ATOM     12  C   UNL     1       1.374  -0.165  21.562  0.00  0.00    +0.238 C 
ATOM     13  C   UNL     1       0.085  -0.477  24.382  0.00  0.00    +0.249 C 
ATOM     14  C   UNL     1      -0.845   0.456  23.692  0.00  0.00    +0.059 A 
ATOM     15  C   UNL     1      -0.891   0.643  22.300  0.00  0.00    +0.046 A 
ATOM     16  C   UNL     1      -1.835   1.041  24.503  0.00  0.00    +0.023 A 
ATOM     17  C   UNL     1      -1.969   1.358  21.749  0.00  0.00    +0.024 A 
ATOM     18  C   UNL     1      -2.870   1.787  23.940  0.00  0.00    -0.014 A 
ATOM     19  C   UNL     1      -2.944   1.935  22.562  0.00  0.00    +0.010 A 
ATOM     27  H   UNL     1      -0.284   0.070  20.407  0.00  0.00    +0.155 HD
ENDROOT
BRANCH  18  20
ATOM      1 CL   UNL     1      -7.028   1.127  26.913  0.00  0.00    -0.084 Cl
ATOM     20  C   UNL     1      -3.877   2.386  24.789  0.00  0.00    +0.025 A 
ATOM     21  C   UNL     1      -3.886   3.761  25.030  0.00  0.00    +0.128 A 
ATOM     22  C   UNL     1      -4.850   1.572  25.372  0.00  0.00    +0.032 A 
ATOM     23  C   UNL     1      -4.865   4.320  25.852  0.00  0.00    +0.047 A 
ATOM     24  C   UNL     1      -5.829   2.132  26.194  0.00  0.00    +0.042 A 
ATOM     25  C   UNL     1      -5.837   3.505  26.434  0.00  0.00    +0.023 A 
BRANCH  21   5
ATOM      5  O   UNL     1      -2.949   4.582  24.475  0.00  0.00    -0.495 OA
ATOM     26  C   UNL     1      -1.786   4.855  25.253  0.00  0.00    +0.277 C 
ENDBRANCH  21   5
ENDBRANCH  18  20
BRANCH  10   2
ATOM      2  O   UNL     1       4.739  -1.675  24.243  0.00  0.00    -0.390 OA
ATOM     28  H   UNL     1       5.160  -0.813  24.399  0.00  0.00    +0.210 HD
ENDBRANCH  10   2
TORSDOF 3
ENDMDL
MODEL 6
REMARK VINA RESULT:       4.9      3.407      7.672
REMARK  Name = 11865998
REMARK  4 active torsions:
REMARK  status: ('A' for Active; 'I' for Inactive)
REMARK    1  A    between atoms: O_2  and  C_10
REMARK    2  A    between atoms: O_5  and  C_21
REMARK    3  A    between atoms: O_5  and  C_26
REMARK    4  A    between atoms: C_18  and  C_20
REMARK                            x       y       z     vdW  Elec       q    Type
REMARK                         _______ _______ _______ _____ _____    ______ ____
ROOT
ATOM      3  O   UNL     1       2.890  -1.999  24.137  0.00  0.00    -0.273 OA
ATOM      4  O   UNL     1       0.595   2.746  24.408  0.00  0.00    -0.270 OA
ATOM      6  N   UNL     1       1.691   0.991  23.405  0.00  0.00    -0.283 N 
ATOM      7  N   UNL     1       0.810  -1.412  24.861  0.00  0.00    -0.283 N 
ATOM      8  C   UNL     1       1.716  -0.342  22.840  0.00  0.00    +0.165 C 
ATOM      9  C   UNL     1       2.893  -0.321  21.868  0.00  0.00    +0.065 C 
ATOM     10  C   UNL     1       3.838   0.717  22.470  0.00  0.00    +0.134 C 
ATOM     11  C   UNL     1       2.882   1.749  23.046  0.00  0.00    +0.140 C 
ATOM     12  C   UNL     1       1.888  -1.292  24.008  0.00  0.00    +0.238 C 
ATOM     13  C   UNL     1       0.634   1.559  24.080  0.00  0.00    +0.249 C 
ATOM     14  C   UNL     1      -0.507   0.684  24.456  0.00  0.00    +0.059 A 
ATOM     15  C   UNL     1      -0.376  -0.646  24.893  0.00  0.00    +0.046 A 
ATOM     16  C   UNL     1      -1.763   1.315  24.527  0.00  0.00    +0.023 A 
ATOM     17  C   UNL     1      -1.494  -1.288  25.452  0.00  0.00    +0.024 A 
ATOM     18  C   UNL     1      -2.871   0.645  25.042  0.00  0.00    -0.014 A 
ATOM     19  C   UNL     1      -2.735  -0.654  25.516  0.00  0.00    +0.010 A 
ATOM     27  H   UNL     1       0.839  -2.210  25.490  0.00  0.00    +0.155 HD
ENDROOT
BRANCH  18  20
ATOM      1 CL   UNL     1      -5.496   5.017  25.783  0.00  0.00    -0.084 Cl
ATOM     20  C   UNL     1      -4.157   1.307  25.102  0.00  0.00    +0.025 A 
ATOM     21  C   UNL     1      -5.340   0.599  24.887  0.00  0.00    +0.128 A 
ATOM     22  C   UNL     1      -4.206   2.674  25.379  0.00  0.00    +0.032 A 
ATOM     23  C   UNL     1      -6.569   1.255  24.949  0.00  0.00    +0.047 A 
ATOM     24  C   UNL     1      -5.436   3.331  25.441  0.00  0.00    +0.042 A 
ATOM     25  C   UNL     1      -6.617   2.622  25.226  0.00  0.00    +0.023 A 
BRANCH  21   5
ATOM      5  O   UNL     1      -5.323  -0.738  24.614  0.00  0.00    -0.495 OA
ATOM     26  C   UNL     1      -4.560  -1.158  23.485  0.00  0.00    +0.277 C 
ENDBRANCH  21   5
ENDBRANCH  18  20
BRANCH  10   2
ATOM      2  O   UNL     1       4.672   1.290  21.483  0.00  0.00    -0.390 OA
ATOM     28  H   UNL     1       4.622   0.724  20.694  0.00  0.00    +0.210 HD
ENDBRANCH  10   2
TORSDOF 3
ENDMDL
MODEL 7
REMARK VINA RESULT:       5.2      1.787      3.008
REMARK  Name = 11865998
REMARK  4 active torsions:
REMARK  status: ('A' for Active; 'I' for Inactive)
REMARK    1  A    between atoms: O_2  and  C_10
REMARK    2  A    between atoms: O_5  and  C_21
REMARK    3  A    between atoms: O_5  and  C_26
REMARK    4  A    between atoms: C_18  and  C_20
REMARK                            x       y       z     vdW  Elec       q    Type
REMARK                         _______ _______ _______ _____ _____    ______ ____
ROOT
ATOM      3  O   UNL     1      -6.060   0.222  25.214  0.00  0.00    -0.273 OA
ATOM      4  O   UNL     1      -2.294   3.112  22.908  0.00  0.00    -0.270 OA
ATOM      6  N   UNL     1      -3.856   2.579  24.509  0.00  0.00    -0.283 N 
ATOM      7  N   UNL     1      -3.961  -0.363  24.547  0.00  0.00    -0.283 N 
ATOM      8  C   UNL     1      -4.300   1.808  25.651  0.00  0.00    +0.165 C 
ATOM      9  C   UNL     1      -5.328   2.704  26.339  0.00  0.00    +0.065 C 
ATOM     10  C   UNL     1      -5.895   3.543  25.196  0.00  0.00    +0.134 C 
ATOM     11  C   UNL     1      -4.684   3.759  24.303  0.00  0.00    +0.140 C 
ATOM     12  C   UNL     1      -4.870   0.519  25.094  0.00  0.00    +0.238 C 
ATOM     13  C   UNL     1      -2.718   2.343  23.772  0.00  0.00    +0.249 C 
ATOM     14  C   UNL     1      -1.978   1.077  24.015  0.00  0.00    +0.059 A 
ATOM     15  C   UNL     1      -2.589  -0.161  24.281  0.00  0.00    +0.046 A 
ATOM     16  C   UNL     1      -0.589   1.128  23.791  0.00  0.00    +0.023 A 
ATOM     17  C   UNL     1      -1.803  -1.325  24.249  0.00  0.00    +0.024 A 
ATOM     18  C   UNL     1       0.181  -0.033  23.810  0.00  0.00    -0.014 A 
ATOM     19  C   UNL     1      -0.427  -1.262  24.027  0.00  0.00    +0.010 A 
ATOM     27  H   UNL     1      -4.308  -1.307  24.395  0.00  0.00    +0.155 HD
ENDROOT
BRANCH  18  20
ATOM      1 CL   UNL     1       4.713  -2.485  23.709  0.00  0.00    -0.084 Cl
ATOM     20  C   UNL     1       1.609   0.039  23.584  0.00  0.00    +0.025 A 
ATOM     21  C   UNL     1       2.217   1.241  23.218  0.00  0.00    +0.128 A 
ATOM     22  C   UNL     1       2.382  -1.113  23.736  0.00  0.00    +0.032 A 
ATOM     23  C   UNL     1       3.595   1.291  23.004  0.00  0.00    +0.047 A 
ATOM     24  C   UNL     1       3.760  -1.063  23.522  0.00  0.00    +0.042 A 
ATOM     25  C   UNL     1       4.367   0.138  23.156  0.00  0.00    +0.023 A 
BRANCH  21   5
ATOM      5  O   UNL     1       1.488   2.383  23.062  0.00  0.00    -0.495 OA
ATOM     26  C   UNL     1       0.941   2.967  24.242  0.00  0.00    +0.277 C 
ENDBRANCH  21   5
ENDBRANCH  18  20
BRANCH  10   2
ATOM      2  O   UNL     1      -6.410   4.773  25.663  0.00  0.00    -0.390 OA
ATOM     28  H   UNL     1      -6.163   5.457  25.018  0.00  0.00    +0.210 HD
ENDBRANCH  10   2
TORSDOF 3
ENDMDL
MODEL 8
REMARK VINA RESULT:       6.3      1.993      3.093
REMARK  Name = 11865998
REMARK  4 active torsions:
REMARK  status: ('A' for Active; 'I' for Inactive)
REMARK    1  A    between atoms: O_2  and  C_10
REMARK    2  A    between atoms: O_5  and  C_21
REMARK    3  A    between atoms: O_5  and  C_26
REMARK    4  A    between atoms: C_18  and  C_20
REMARK                            x       y       z     vdW  Elec       q    Type
REMARK                         _______ _______ _______ _____ _____    ______ ____
ROOT
ATOM      3  O   UNL     1      -6.712   1.012  24.877  0.00  0.00    -0.273 OA
ATOM      4  O   UNL     1      -2.249   3.280  23.208  0.00  0.00    -0.270 OA
ATOM      6  N   UNL     1      -4.024   2.914  24.623  0.00  0.00    -0.283 N 
ATOM      7  N   UNL     1      -4.723   0.074  24.279  0.00  0.00    -0.283 N 
ATOM      8  C   UNL     1      -4.715   2.131  25.627  0.00  0.00    +0.165 C 
ATOM      9  C   UNL     1      -5.599   3.142  26.355  0.00  0.00    +0.065 C 
ATOM     10  C   UNL     1      -5.880   4.204  25.294  0.00  0.00    +0.134 C 
ATOM     11  C   UNL     1      -4.575   4.258  24.517  0.00  0.00    +0.140 C 
ATOM     12  C   UNL     1      -5.481   1.062  24.874  0.00  0.00    +0.238 C 
ATOM     13  C   UNL     1      -2.895   2.527  23.937  0.00  0.00    +0.249 C 
ATOM     14  C   UNL     1      -2.450   1.114  24.065  0.00  0.00    +0.059 A 
ATOM     15  C   UNL     1      -3.320   0.012  24.130  0.00  0.00    +0.046 A 
ATOM     16  C   UNL     1      -1.065   0.896  23.940  0.00  0.00    +0.023 A 
ATOM     17  C   UNL     1      -2.784  -1.281  24.001  0.00  0.00    +0.024 A 
ATOM     18  C   UNL     1      -0.549  -0.396  23.860  0.00  0.00    -0.014 A 
ATOM     19  C   UNL     1      -1.410  -1.486  23.879  0.00  0.00    +0.010 A 
ATOM     27  H   UNL     1      -5.237  -0.752  23.985  0.00  0.00    +0.155 HD
ENDROOT
BRANCH  18  20
ATOM      1 CL   UNL     1       3.935   1.201  21.888  0.00  0.00    -0.084 Cl
ATOM     20  C   UNL     1       0.878  -0.602  23.738  0.00  0.00    +0.025 A 
ATOM     21  C   UNL     1       1.506  -1.671  24.377  0.00  0.00    +0.128 A 
ATOM     22  C   UNL     1       1.630   0.287  22.968  0.00  0.00    +0.032 A 
ATOM     23  C   UNL     1       2.883  -1.853  24.247  0.00  0.00    +0.047 A 
ATOM     24  C   UNL     1       3.008   0.105  22.837  0.00  0.00    +0.042 A 
ATOM     25  C   UNL     1       3.634  -0.964  23.477  0.00  0.00    +0.023 A 
BRANCH  21   5
ATOM      5  O   UNL     1       0.798  -2.556  25.136  0.00  0.00    -0.495 OA
ATOM     26  C   UNL     1       0.088  -2.025  26.253  0.00  0.00    +0.277 C 
ENDBRANCH  21   5
ENDBRANCH  18  20
BRANCH  10   2
ATOM      2  O   UNL     1      -6.176   5.455  25.880  0.00  0.00    -0.390 OA
ATOM     28  H   UNL     1      -7.075   5.701  25.603  0.00  0.00    +0.210 HD
ENDBRANCH  10   2
TORSDOF 3
ENDMDL
MODEL 9
REMARK VINA RESULT:       7.4      3.253      7.750
REMARK  Name = 11865998
REMARK  4 active torsions:
REMARK  status: ('A' for Active; 'I' for Inactive)
REMARK    1  A    between atoms: O_2  and  C_10
REMARK    2  A    between atoms: O_5  and  C_21
REMARK    3  A    between atoms: O_5  and  C_26
REMARK    4  A    between atoms: C_18  and  C_20
REMARK                            x       y       z     vdW  Elec       q    Type
REMARK                         _______ _______ _______ _____ _____    ______ ____
ROOT
ATOM      3  O   UNL     1       1.701  -2.307  23.960  0.00  0.00    -0.273 OA
ATOM      4  O   UNL     1       0.886   2.852  24.718  0.00  0.00    -0.270 OA
ATOM      6  N   UNL     1       1.516   0.967  23.562  0.00  0.00    -0.283 N 
ATOM      7  N   UNL     1      -0.178  -1.198  24.617  0.00  0.00    -0.283 N 
ATOM      8  C   UNL     1       1.207  -0.241  22.824  0.00  0.00    +0.165 C 
ATOM      9  C   UNL     1       2.433  -0.473  21.944  0.00  0.00    +0.065 C 
ATOM     10  C   UNL     1       3.573   0.157  22.742  0.00  0.00    +0.134 C 
ATOM     11  C   UNL     1       2.907   1.361  23.388  0.00  0.00    +0.140 C 
ATOM     12  C   UNL     1       0.970  -1.320  23.862  0.00  0.00    +0.238 C 
ATOM     13  C   UNL     1       0.609   1.753  24.236  0.00  0.00    +0.249 C 
ATOM     14  C   UNL     1      -0.772   1.231  24.414  0.00  0.00    +0.059 A 
ATOM     15  C   UNL     1      -1.083  -0.115  24.674  0.00  0.00    +0.046 A 
ATOM     16  C   UNL     1      -1.787   2.202  24.486  0.00  0.00    +0.023 A 
ATOM     17  C   UNL     1      -2.393  -0.443  25.066  0.00  0.00    +0.024 A 
ATOM     18  C   UNL     1      -3.091   1.849  24.831  0.00  0.00    -0.014 A 
ATOM     19  C   UNL     1      -3.392   0.527  25.133  0.00  0.00    +0.010 A 
ATOM     27  H   UNL     1      -0.450  -2.030  25.134  0.00  0.00    +0.155 HD
ENDROOT
BRANCH  18  20
ATOM      1 CL   UNL     1      -4.775   6.468  23.286  0.00  0.00    -0.084 Cl
ATOM     20  C   UNL     1      -4.124   2.860  24.894  0.00  0.00    +0.025 A 
ATOM     21  C   UNL     1      -5.261   2.677  25.683  0.00  0.00    +0.128 A 
ATOM     22  C   UNL     1      -3.975   4.034  24.152  0.00  0.00    +0.032 A 
ATOM     23  C   UNL     1      -6.245   3.664  25.731  0.00  0.00    +0.047 A 
ATOM     24  C   UNL     1      -4.960   5.021  24.200  0.00  0.00    +0.042 A 
ATOM     25  C   UNL     1      -6.095   4.836  24.989  0.00  0.00    +0.023 A 
BRANCH  21   5
ATOM      5  O   UNL     1      -5.435   1.542  26.418  0.00  0.00    -0.495 OA
ATOM     26  C   UNL     1      -6.681   1.395  27.095  0.00  0.00    +0.277 C 
ENDBRANCH  21   5
ENDBRANCH  18  20
BRANCH  10   2
ATOM      2  O   UNL     1       4.636   0.553  21.900  0.00  0.00    -0.390 OA
ATOM     28  H   UNL     1       5.252  -0.197  21.836  0.00  0.00    +0.210 HD
ENDBRANCH  10   2
TORSDOF 3
ENDMDL
