MODEL 1
REMARK VINA RESULT:      -2.8      0.000      0.000
REMARK  Name = 45360654
REMARK  10 active torsions:
REMARK  status: ('A' for Active; 'I' for Inactive)
REMARK    1  A    between atoms: O_4  and  C_26
REMARK    2  A    between atoms: O_4  and  C_32
REMARK    3  A    between atoms: N_7  and  C_10
REMARK    4  A    between atoms: N_7  and  C_18
REMARK    5  A    between atoms: N_8  and  C_23
REMARK    6  A    between atoms: C_12  and  C_16
REMARK    7  A    between atoms: C_16  and  C_17
REMARK    8  A    between atoms: C_17  and  C_19
REMARK    9  A    between atoms: C_18  and  C_20
REMARK   10  A    between atoms: C_23  and  C_27
REMARK                            x       y       z     vdW  Elec       q    Type
REMARK                         _______ _______ _______ _____ _____    ______ ____
ROOT
ATOM      2  O   UNL     1       1.014   2.687  26.818  0.00  0.00    -0.274 OA
ATOM      5  N   UNL     1      -1.982   2.256  24.778  0.00  0.00    -0.286 NA
ATOM      6  N   UNL     1      -0.454   4.241  26.044  0.00  0.00    -0.313 N 
ATOM      9  C   UNL     1      -0.925   1.821  25.700  0.00  0.00    +0.145 C 
ATOM     10  C   UNL     1      -0.765   0.775  23.514  0.00  0.00    +0.070 C 
ATOM     11  C   UNL     1      -0.106   0.800  24.894  0.00  0.00    +0.048 C 
ATOM     12  C   UNL     1      -2.619   3.515  25.146  0.00  0.00    +0.075 C 
ATOM     13  C   UNL     1      -1.449   2.133  23.423  0.00  0.00    +0.104 C 
ATOM     14  C   UNL     1      -1.593   4.632  25.245  0.00  0.00    +0.123 C 
ATOM     15  C   UNL     1      -0.030   2.945  26.212  0.00  0.00    +0.230 C 
ATOM     34  H   UNL     1       0.139   4.980  26.407  0.00  0.00    +0.149 HD
ENDROOT
BRANCH  10   7
ATOM      7  N   UNL     1       0.180   0.529  22.436  0.00  0.00    -0.308 NA
ATOM     35  H   UNL     1      -0.335   0.431  21.561  0.00  0.00    +0.123 HD
BRANCH   7  18
ATOM     18  C   UNL     1       0.940  -0.691  22.677  0.00  0.00    +0.116 C 
BRANCH  18  20
ATOM     20  C   UNL     1       2.397  -0.403  22.923  0.00  0.00    -0.033 A 
ATOM     21  C   UNL     1       2.943   0.819  22.529  0.00  0.00    +0.008 A 
ATOM     22  C   UNL     1       3.201  -1.358  23.544  0.00  0.00    +0.008 A 
ATOM     24  C   UNL     1       4.293   1.086  22.758  0.00  0.00    +0.046 A 
ATOM     25  C   UNL     1       4.551  -1.091  23.773  0.00  0.00    +0.046 A 
ATOM     26  C   UNL     1       5.097   0.131  23.379  0.00  0.00    +0.120 A 
BRANCH  26   4
ATOM      4  O   UNL     1       6.414   0.392  23.603  0.00  0.00    -0.495 OA
ATOM     32  C   UNL     1       7.361  -0.511  23.033  0.00  0.00    +0.277 C 
ENDBRANCH  26   4
ENDBRANCH  18  20
ENDBRANCH   7  18
ENDBRANCH  10   7
BRANCH  12  16
ATOM     16  C   UNL     1      -3.761   3.899  24.204  0.00  0.00    +0.029 C 
BRANCH  16  17
ATOM     17  C   UNL     1      -5.080   4.013  24.955  0.00  0.00    +0.097 C 
BRANCH  17  19
ATOM      3  O   UNL     1      -6.141   2.526  26.545  0.00  0.00    -0.276 OA
ATOM      8  N   UNL     1      -5.271   1.645  24.580  0.00  0.00    -0.311 N 
ATOM     19  C   UNL     1      -5.564   2.669  25.470  0.00  0.00    +0.213 C 
ATOM     36  H   UNL     1      -4.765   1.846  23.724  0.00  0.00    +0.149 HD
BRANCH   8  23
ATOM     23  C   UNL     1      -5.628   0.271  24.842  0.00  0.00    +0.139 C 
BRANCH  23  27
ATOM      1  F   UNL     1      -1.102  -3.082  24.987  0.00  0.00    -0.205 F 
ATOM     27  C   UNL     1      -4.419  -0.625  24.881  0.00  0.00    -0.030 A 
ATOM     28  C   UNL     1      -3.554  -0.582  25.974  0.00  0.00    +0.008 A 
ATOM     29  C   UNL     1      -4.164  -1.498  23.824  0.00  0.00    +0.008 A 
ATOM     30  C   UNL     1      -2.434  -1.412  26.011  0.00  0.00    +0.038 A 
ATOM     31  C   UNL     1      -3.043  -2.328  23.859  0.00  0.00    +0.038 A 
ATOM     33  C   UNL     1      -2.178  -2.285  24.953  0.00  0.00    +0.123 A 
ENDBRANCH  23  27
ENDBRANCH   8  23
ENDBRANCH  17  19
ENDBRANCH  16  17
ENDBRANCH  12  16
TORSDOF 9
ENDMDL
MODEL 2
REMARK VINA RESULT:       0.4      2.301      6.508
REMARK  Name = 45360654
REMARK  10 active torsions:
REMARK  status: ('A' for Active; 'I' for Inactive)
REMARK    1  A    between atoms: O_4  and  C_26
REMARK    2  A    between atoms: O_4  and  C_32
REMARK    3  A    between atoms: N_7  and  C_10
REMARK    4  A    between atoms: N_7  and  C_18
REMARK    5  A    between atoms: N_8  and  C_23
REMARK    6  A    between atoms: C_12  and  C_16
REMARK    7  A    between atoms: C_16  and  C_17
REMARK    8  A    between atoms: C_17  and  C_19
REMARK    9  A    between atoms: C_18  and  C_20
REMARK   10  A    between atoms: C_23  and  C_27
REMARK                            x       y       z     vdW  Elec       q    Type
REMARK                         _______ _______ _______ _____ _____    ______ ____
ROOT
ATOM      2  O   UNL     1      -3.590   4.205  28.113  0.00  0.00    -0.274 OA
ATOM      5  N   UNL     1      -2.631   3.826  24.612  0.00  0.00    -0.286 NA
ATOM      6  N   UNL     1      -1.669   3.388  27.212  0.00  0.00    -0.313 N 
ATOM      9  C   UNL     1      -3.396   4.394  25.728  0.00  0.00    +0.145 C 
ATOM     10  C   UNL     1      -4.757   3.046  24.236  0.00  0.00    +0.070 C 
ATOM     11  C   UNL     1      -4.837   3.917  25.490  0.00  0.00    +0.048 C 
ATOM     12  C   UNL     1      -1.191   3.773  24.836  0.00  0.00    +0.075 C 
ATOM     13  C   UNL     1      -3.303   2.591  24.213  0.00  0.00    +0.104 C 
ATOM     14  C   UNL     1      -0.867   2.969  26.085  0.00  0.00    +0.123 C 
ATOM     15  C   UNL     1      -2.910   3.970  27.110  0.00  0.00    +0.230 C 
ATOM     34  H   UNL     1      -1.347   3.129  28.139  0.00  0.00    +0.149 HD
ENDROOT
BRANCH  10   7
ATOM      7  N   UNL     1      -5.708   1.945  24.244  0.00  0.00    -0.308 NA
ATOM     35  H   UNL     1      -6.654   2.325  24.252  0.00  0.00    +0.123 HD
BRANCH   7  18
ATOM     18  C   UNL     1      -5.525   1.106  25.421  0.00  0.00    +0.116 C 
BRANCH  18  20
ATOM     20  C   UNL     1      -4.535  -0.002  25.170  0.00  0.00    -0.033 A 
ATOM     21  C   UNL     1      -3.609  -0.346  26.154  0.00  0.00    +0.008 A 
ATOM     22  C   UNL     1      -4.544  -0.681  23.953  0.00  0.00    +0.008 A 
ATOM     24  C   UNL     1      -2.692  -1.372  25.921  0.00  0.00    +0.046 A 
ATOM     25  C   UNL     1      -3.628  -1.707  23.720  0.00  0.00    +0.046 A 
ATOM     26  C   UNL     1      -2.701  -2.051  24.704  0.00  0.00    +0.120 A 
BRANCH  26   4
ATOM      4  O   UNL     1      -1.808  -3.053  24.477  0.00  0.00    -0.495 OA
ATOM     32  C   UNL     1      -0.502  -2.894  25.030  0.00  0.00    +0.277 C 
ENDBRANCH  26   4
ENDBRANCH  18  20
ENDBRANCH   7  18
ENDBRANCH  10   7
BRANCH  12  16
ATOM     16  C   UNL     1      -0.421   3.242  23.627  0.00  0.00    +0.029 C 
BRANCH  16  17
ATOM     17  C   UNL     1      -1.023   1.939  23.118  0.00  0.00    +0.097 C 
BRANCH  17  19
ATOM      3  O   UNL     1      -0.186   0.258  24.647  0.00  0.00    -0.276 OA
ATOM      8  N   UNL     1       0.548   0.247  22.444  0.00  0.00    -0.311 N 
ATOM     19  C   UNL     1      -0.191   0.732  23.514  0.00  0.00    +0.213 C 
ATOM     36  H   UNL     1       0.508   0.716  21.545  0.00  0.00    +0.149 HD
BRANCH   8  23
ATOM     23  C   UNL     1       1.421  -0.897  22.565  0.00  0.00    +0.139 C 
BRANCH  23  27
ATOM      1  F   UNL     1       6.675   0.611  23.934  0.00  0.00    -0.205 F 
ATOM     27  C   UNL     1       2.825  -0.494  22.931  0.00  0.00    -0.030 A 
ATOM     28  C   UNL     1       3.311   0.757  22.553  0.00  0.00    +0.008 A 
ATOM     29  C   UNL     1       3.638  -1.372  23.648  0.00  0.00    +0.008 A 
ATOM     30  C   UNL     1       4.612   1.131  22.892  0.00  0.00    +0.038 A 
ATOM     31  C   UNL     1       4.939  -0.999  23.987  0.00  0.00    +0.038 A 
ATOM     33  C   UNL     1       5.426   0.252  23.609  0.00  0.00    +0.123 A 
ENDBRANCH  23  27
ENDBRANCH   8  23
ENDBRANCH  17  19
ENDBRANCH  16  17
ENDBRANCH  12  16
TORSDOF 9
ENDMDL
MODEL 3
REMARK VINA RESULT:       0.5      1.386      1.949
REMARK  Name = 45360654
REMARK  10 active torsions:
REMARK  status: ('A' for Active; 'I' for Inactive)
REMARK    1  A    between atoms: O_4  and  C_26
REMARK    2  A    between atoms: O_4  and  C_32
REMARK    3  A    between atoms: N_7  and  C_10
REMARK    4  A    between atoms: N_7  and  C_18
REMARK    5  A    between atoms: N_8  and  C_23
REMARK    6  A    between atoms: C_12  and  C_16
REMARK    7  A    between atoms: C_16  and  C_17
REMARK    8  A    between atoms: C_17  and  C_19
REMARK    9  A    between atoms: C_18  and  C_20
REMARK   10  A    between atoms: C_23  and  C_27
REMARK                            x       y       z     vdW  Elec       q    Type
REMARK                         _______ _______ _______ _____ _____    ______ ____
ROOT
ATOM      2  O   UNL     1      -0.465  -1.124  26.505  0.00  0.00    -0.274 OA
ATOM      5  N   UNL     1      -1.266   1.833  24.521  0.00  0.00    -0.286 NA
ATOM      6  N   UNL     1      -0.243   1.078  27.023  0.00  0.00    -0.313 N 
ATOM      9  C   UNL     1      -1.365   0.418  24.901  0.00  0.00    +0.145 C 
ATOM     10  C   UNL     1      -0.318   0.747  22.735  0.00  0.00    +0.070 C 
ATOM     11  C   UNL     1      -0.765  -0.344  23.709  0.00  0.00    +0.048 C 
ATOM     12  C   UNL     1      -1.368   2.763  25.639  0.00  0.00    +0.075 C 
ATOM     13  C   UNL     1      -0.114   1.961  23.632  0.00  0.00    +0.104 C 
ATOM     14  C   UNL     1      -0.295   2.481  26.678  0.00  0.00    +0.123 C 
ATOM     15  C   UNL     1      -0.636   0.057  26.192  0.00  0.00    +0.230 C 
ATOM     34  H   UNL     1       0.222   0.825  27.889  0.00  0.00    +0.149 HD
ENDROOT
BRANCH  10   7
ATOM      7  N   UNL     1       0.867   0.382  21.976  0.00  0.00    -0.308 NA
ATOM     35  H   UNL     1       0.594   0.171  21.016  0.00  0.00    +0.123 HD
BRANCH   7  18
ATOM     18  C   UNL     1       1.516  -0.790  22.551  0.00  0.00    +0.116 C 
BRANCH  18  20
ATOM     20  C   UNL     1       2.948  -0.511  22.922  0.00  0.00    -0.033 A 
ATOM     21  C   UNL     1       3.523   0.720  22.609  0.00  0.00    +0.008 A 
ATOM     22  C   UNL     1       3.700  -1.485  23.578  0.00  0.00    +0.008 A 
ATOM     24  C   UNL     1       4.850   0.978  22.953  0.00  0.00    +0.046 A 
ATOM     25  C   UNL     1       5.028  -1.227  23.922  0.00  0.00    +0.046 A 
ATOM     26  C   UNL     1       5.603   0.004  23.609  0.00  0.00    +0.120 A 
BRANCH  26   4
ATOM      4  O   UNL     1       6.897   0.257  23.945  0.00  0.00    -0.495 OA
ATOM     32  C   UNL     1       7.907  -0.368  23.154  0.00  0.00    +0.277 C 
ENDBRANCH  26   4
ENDBRANCH  18  20
ENDBRANCH   7  18
ENDBRANCH  10   7
BRANCH  12  16
ATOM     16  C   UNL     1      -1.333   4.227  25.198  0.00  0.00    +0.029 C 
BRANCH  16  17
ATOM     17  C   UNL     1      -2.694   4.682  24.690  0.00  0.00    +0.097 C 
BRANCH  17  19
ATOM      3  O   UNL     1      -4.334   3.962  26.319  0.00  0.00    -0.276 OA
ATOM      8  N   UNL     1      -4.186   2.839  24.293  0.00  0.00    -0.311 N 
ATOM     19  C   UNL     1      -3.821   3.811  25.213  0.00  0.00    +0.213 C 
ATOM     36  H   UNL     1      -3.690   2.763  23.410  0.00  0.00    +0.149 HD
BRANCH   8  23
ATOM     23  C   UNL     1      -5.236   1.883  24.556  0.00  0.00    +0.139 C 
BRANCH  23  27
ATOM      1  F   UNL     1      -3.209  -3.333  25.216  0.00  0.00    -0.205 F 
ATOM     27  C   UNL     1      -4.694   0.489  24.733  0.00  0.00    -0.030 A 
ATOM     28  C   UNL     1      -4.552  -0.348  23.627  0.00  0.00    +0.008 A 
ATOM     29  C   UNL     1      -4.334   0.036  26.002  0.00  0.00    +0.008 A 
ATOM     30  C   UNL     1      -4.050  -1.640  23.789  0.00  0.00    +0.038 A 
ATOM     31  C   UNL     1      -3.832  -1.256  26.165  0.00  0.00    +0.038 A 
ATOM     33  C   UNL     1      -3.690  -2.093  25.059  0.00  0.00    +0.123 A 
ENDBRANCH  23  27
ENDBRANCH   8  23
ENDBRANCH  17  19
ENDBRANCH  16  17
ENDBRANCH  12  16
TORSDOF 9
ENDMDL
MODEL 4
REMARK VINA RESULT:       0.6      2.525      6.719
REMARK  Name = 45360654
REMARK  10 active torsions:
REMARK  status: ('A' for Active; 'I' for Inactive)
REMARK    1  A    between atoms: O_4  and  C_26
REMARK    2  A    between atoms: O_4  and  C_32
REMARK    3  A    between atoms: N_7  and  C_10
REMARK    4  A    between atoms: N_7  and  C_18
REMARK    5  A    between atoms: N_8  and  C_23
REMARK    6  A    between atoms: C_12  and  C_16
REMARK    7  A    between atoms: C_16  and  C_17
REMARK    8  A    between atoms: C_17  and  C_19
REMARK    9  A    between atoms: C_18  and  C_20
REMARK   10  A    between atoms: C_23  and  C_27
REMARK                            x       y       z     vdW  Elec       q    Type
REMARK                         _______ _______ _______ _____ _____    ______ ____
ROOT
ATOM      2  O   UNL     1      -2.927   6.326  23.517  0.00  0.00    -0.274 OA
ATOM      5  N   UNL     1      -1.958   2.898  24.314  0.00  0.00    -0.286 NA
ATOM      6  N   UNL     1      -1.470   5.552  25.082  0.00  0.00    -0.313 N 
ATOM      9  C   UNL     1      -2.493   3.966  23.460  0.00  0.00    +0.145 C 
ATOM     10  C   UNL     1      -4.180   2.352  24.126  0.00  0.00    +0.070 C 
ATOM     11  C   UNL     1      -3.979   3.613  23.286  0.00  0.00    +0.048 C 
ATOM     12  C   UNL     1      -0.697   3.227  24.968  0.00  0.00    +0.075 C 
ATOM     13  C   UNL     1      -3.058   2.426  25.153  0.00  0.00    +0.104 C 
ATOM     14  C   UNL     1      -0.838   4.480  25.817  0.00  0.00    +0.123 C 
ATOM     15  C   UNL     1      -2.337   5.372  24.031  0.00  0.00    +0.230 C 
ATOM     34  H   UNL     1      -1.358   6.495  25.441  0.00  0.00    +0.149 HD
ENDROOT
BRANCH  10   7
ATOM      7  N   UNL     1      -5.505   2.268  24.721  0.00  0.00    -0.308 NA
ATOM     35  H   UNL     1      -5.742   3.172  25.130  0.00  0.00    +0.123 HD
BRANCH   7  18
ATOM     18  C   UNL     1      -5.546   1.251  25.764  0.00  0.00    +0.116 C 
BRANCH  18  20
ATOM     20  C   UNL     1      -4.809   0.003  25.357  0.00  0.00    -0.033 A 
ATOM     21  C   UNL     1      -4.979  -0.523  24.076  0.00  0.00    +0.008 A 
ATOM     22  C   UNL     1      -3.957  -0.630  26.262  0.00  0.00    +0.008 A 
ATOM     24  C   UNL     1      -4.296  -1.679  23.700  0.00  0.00    +0.046 A 
ATOM     25  C   UNL     1      -3.274  -1.787  25.886  0.00  0.00    +0.046 A 
ATOM     26  C   UNL     1      -3.444  -2.312  24.605  0.00  0.00    +0.120 A 
BRANCH  26   4
ATOM      4  O   UNL     1      -2.777  -3.439  24.238  0.00  0.00    -0.495 OA
ATOM     32  C   UNL     1      -1.524  -3.266  23.577  0.00  0.00    +0.277 C 
ENDBRANCH  26   4
ENDBRANCH  18  20
ENDBRANCH   7  18
ENDBRANCH  10   7
BRANCH  12  16
ATOM     16  C   UNL     1      -0.136   2.067  25.791  0.00  0.00    +0.029 C 
BRANCH  16  17
ATOM     17  C   UNL     1      -0.888   0.774  25.506  0.00  0.00    +0.097 C 
BRANCH  17  19
ATOM      3  O   UNL     1       0.079  -1.371  24.935  0.00  0.00    -0.276 OA
ATOM      8  N   UNL     1       0.458   0.446  23.540  0.00  0.00    -0.311 N 
ATOM     19  C   UNL     1      -0.076  -0.185  24.654  0.00  0.00    +0.213 C 
ATOM     36  H   UNL     1       0.305   1.439  23.397  0.00  0.00    +0.149 HD
BRANCH   8  23
ATOM     23  C   UNL     1       1.271  -0.253  22.574  0.00  0.00    +0.139 C 
BRANCH  23  27
ATOM      1  F   UNL     1       6.743  -0.064  23.907  0.00  0.00    -0.205 F 
ATOM     27  C   UNL     1       2.733  -0.202  22.930  0.00  0.00    -0.030 A 
ATOM     28  C   UNL     1       3.349  -1.314  23.505  0.00  0.00    +0.008 A 
ATOM     29  C   UNL     1       3.471   0.955  22.685  0.00  0.00    +0.008 A 
ATOM     30  C   UNL     1       4.704  -1.268  23.835  0.00  0.00    +0.038 A 
ATOM     31  C   UNL     1       4.826   1.002  23.016  0.00  0.00    +0.038 A 
ATOM     33  C   UNL     1       5.442  -0.109  23.590  0.00  0.00    +0.123 A 
ENDBRANCH  23  27
ENDBRANCH   8  23
ENDBRANCH  17  19
ENDBRANCH  16  17
ENDBRANCH  12  16
TORSDOF 9
ENDMDL
MODEL 5
REMARK VINA RESULT:       0.8      1.513      3.540
REMARK  Name = 45360654
REMARK  10 active torsions:
REMARK  status: ('A' for Active; 'I' for Inactive)
REMARK    1  A    between atoms: O_4  and  C_26
REMARK    2  A    between atoms: O_4  and  C_32
REMARK    3  A    between atoms: N_7  and  C_10
REMARK    4  A    between atoms: N_7  and  C_18
REMARK    5  A    between atoms: N_8  and  C_23
REMARK    6  A    between atoms: C_12  and  C_16
REMARK    7  A    between atoms: C_16  and  C_17
REMARK    8  A    between atoms: C_17  and  C_19
REMARK    9  A    between atoms: C_18  and  C_20
REMARK   10  A    between atoms: C_23  and  C_27
REMARK                            x       y       z     vdW  Elec       q    Type
REMARK                         _______ _______ _______ _____ _____    ______ ____
ROOT
ATOM      2  O   UNL     1      -6.098   1.829  24.257  0.00  0.00    -0.274 OA
ATOM      5  N   UNL     1      -2.990   3.736  24.092  0.00  0.00    -0.286 NA
ATOM      6  N   UNL     1      -4.754   2.567  25.936  0.00  0.00    -0.313 N 
ATOM      9  C   UNL     1      -4.278   3.244  23.588  0.00  0.00    +0.145 C 
ATOM     10  C   UNL     1      -2.380   2.366  22.354  0.00  0.00    +0.070 C 
ATOM     11  C   UNL     1      -3.909   2.345  22.398  0.00  0.00    +0.048 C 
ATOM     12  C   UNL     1      -3.036   4.252  25.455  0.00  0.00    +0.075 C 
ATOM     13  C   UNL     1      -1.989   2.717  23.783  0.00  0.00    +0.104 C 
ATOM     14  C   UNL     1      -3.543   3.191  26.419  0.00  0.00    +0.123 C 
ATOM     15  C   UNL     1      -5.105   2.471  24.611  0.00  0.00    +0.230 C 
ATOM     34  H   UNL     1      -5.323   2.065  26.609  0.00  0.00    +0.149 HD
ENDROOT
BRANCH  10   7
ATOM      7  N   UNL     1      -1.806   1.115  21.886  0.00  0.00    -0.308 NA
ATOM     35  H   UNL     1      -2.553   0.522  21.525  0.00  0.00    +0.123 HD
BRANCH   7  18
ATOM     18  C   UNL     1      -1.128   0.414  22.970  0.00  0.00    +0.116 C 
BRANCH  18  20
ATOM     20  C   UNL     1       0.368   0.425  22.794  0.00  0.00    -0.033 A 
ATOM     21  C   UNL     1       1.160   1.242  23.601  0.00  0.00    +0.008 A 
ATOM     22  C   UNL     1       0.961  -0.380  21.822  0.00  0.00    +0.008 A 
ATOM     24  C   UNL     1       2.545   1.251  23.437  0.00  0.00    +0.046 A 
ATOM     25  C   UNL     1       2.346  -0.370  21.658  0.00  0.00    +0.046 A 
ATOM     26  C   UNL     1       3.138   0.446  22.465  0.00  0.00    +0.120 A 
BRANCH  26   4
ATOM      4  O   UNL     1       4.490   0.455  22.306  0.00  0.00    -0.495 OA
ATOM     32  C   UNL     1       5.280   0.148  23.454  0.00  0.00    +0.277 C 
ENDBRANCH  26   4
ENDBRANCH  18  20
ENDBRANCH   7  18
ENDBRANCH  10   7
BRANCH  12  16
ATOM     16  C   UNL     1      -1.695   4.820  25.920  0.00  0.00    +0.029 C 
BRANCH  16  17
ATOM     17  C   UNL     1      -0.530   4.057  25.305  0.00  0.00    +0.097 C 
BRANCH  17  19
ATOM      3  O   UNL     1       0.781   2.817  26.920  0.00  0.00    -0.276 OA
ATOM      8  N   UNL     1      -0.985   1.758  25.846  0.00  0.00    -0.311 N 
ATOM     19  C   UNL     1      -0.152   2.833  26.121  0.00  0.00    +0.213 C 
ATOM     36  H   UNL     1      -1.717   1.848  25.148  0.00  0.00    +0.149 HD
BRANCH   8  23
ATOM     23  C   UNL     1      -0.829   0.477  26.494  0.00  0.00    +0.139 C 
BRANCH  23  27
ATOM      1  F   UNL     1      -3.934  -3.519  24.017  0.00  0.00    -0.205 F 
ATOM     27  C   UNL     1      -1.659  -0.591  25.832  0.00  0.00    -0.030 A 
ATOM     28  C   UNL     1      -3.039  -0.430  25.717  0.00  0.00    +0.008 A 
ATOM     29  C   UNL     1      -1.047  -1.740  25.333  0.00  0.00    +0.008 A 
ATOM     30  C   UNL     1      -3.809  -1.418  25.104  0.00  0.00    +0.038 A 
ATOM     31  C   UNL     1      -1.816  -2.730  24.720  0.00  0.00    +0.038 A 
ATOM     33  C   UNL     1      -3.196  -2.569  24.605  0.00  0.00    +0.123 A 
ENDBRANCH  23  27
ENDBRANCH   8  23
ENDBRANCH  17  19
ENDBRANCH  16  17
ENDBRANCH  12  16
TORSDOF 9
ENDMDL
