MODEL 1
REMARK VINA RESULT:      -1.5      0.000      0.000
REMARK  Name = 11865733
REMARK  11 active torsions:
REMARK  status: ('A' for Active; 'I' for Inactive)
REMARK    1  A    between atoms: S_1  and  C_18
REMARK    2  A    between atoms: S_1  and  C_26
REMARK    3  A    between atoms: N_7  and  C_11
REMARK    4  A    between atoms: N_8  and  C_17
REMARK    5  A    between atoms: N_9  and  C_23
REMARK    6  A    between atoms: C_12  and  C_15
REMARK    7  A    between atoms: C_16  and  C_18
REMARK    8  A    between atoms: C_17  and  C_20
REMARK    9  A    between atoms: C_17  and  C_21
REMARK   10  A    between atoms: C_20  and  C_22
REMARK   11  A    between atoms: C_23  and  C_29
REMARK                            x       y       z     vdW  Elec       q    Type
REMARK                         _______ _______ _______ _____ _____    ______ ____
ROOT
ATOM      3  O   UNL     1      -4.013  -0.004  25.504  0.00  0.00    -0.275 OA
ATOM      6  N   UNL     1      -2.014  -0.834  24.682  0.00  0.00    -0.287 N 
ATOM     11  C   UNL     1       0.216  -1.462  24.162  0.00  0.00    +0.094 C 
ATOM     12  C   UNL     1      -1.239  -0.615  25.894  0.00  0.00    +0.164 C 
ATOM     13  C   UNL     1       0.057  -1.394  25.683  0.00  0.00    +0.055 C 
ATOM     14  C   UNL     1      -1.222  -1.511  23.657  0.00  0.00    +0.131 C 
ATOM     16  C   UNL     1      -3.376  -0.578  24.620  0.00  0.00    +0.226 C 
ENDROOT
BRANCH  11   7
ATOM      4  O   UNL     1       2.994  -1.349  23.386  0.00  0.00    -0.253 OA
ATOM      7  N   UNL     1       0.928  -0.321  23.645  0.00  0.00    -0.295 N 
ATOM      9  N   UNL     1       2.710   0.884  22.824  0.00  0.00    -0.296 N 
ATOM     19  C   UNL     1       2.276  -0.353  23.293  0.00  0.00    +0.300 C 
ATOM     32  H   UNL     1       0.441   0.569  23.590  0.00  0.00    +0.151 HD
ATOM     34  H   UNL     1       2.041   1.645  22.766  0.00  0.00    +0.151 HD
BRANCH   9  23
ATOM     23  C   UNL     1       4.066   1.126  22.393  0.00  0.00    +0.132 C 
BRANCH  23  29
ATOM     29  C   UNL     1       5.000   0.788  23.507  0.00  0.00    -0.016 C 
ATOM     31  C   UNL     1       5.940  -0.161  23.429  0.00  0.00    +0.005 C 
ENDBRANCH  23  29
ENDBRANCH   9  23
ENDBRANCH  11   7
BRANCH  12  15
ATOM      2  O   UNL     1      -0.247   1.299  26.919  0.00  0.00    -0.274 OA
ATOM      8  N   UNL     1      -1.671   1.605  25.105  0.00  0.00    -0.302 N 
ATOM     15  C   UNL     1      -0.980   0.855  26.040  0.00  0.00    +0.234 C 
ATOM     33  H   UNL     1      -2.236   1.129  24.406  0.00  0.00    +0.150 HD
BRANCH   8  17
ATOM     17  C   UNL     1      -1.610   3.048  25.046  0.00  0.00    +0.163 C 
BRANCH  17  21
ATOM      5  O   UNL     1       0.509   2.589  23.948  0.00  0.00    -0.274 OA
ATOM     10  N   UNL     1      -0.195   4.769  24.110  0.00  0.00    -0.328 N 
ATOM     21  C   UNL     1      -0.317   3.413  24.330  0.00  0.00    +0.231 C 
ATOM     35  H   UNL     1       0.615   5.147  23.629  0.00  0.00    +0.145 HD
ATOM     36  H   UNL     1      -0.897   5.437  24.409  0.00  0.00    +0.145 HD
ENDBRANCH  17  21
BRANCH  17  20
ATOM     20  C   UNL     1      -2.814   3.650  24.313  0.00  0.00    +0.067 C 
BRANCH  20  22
ATOM     22  C   UNL     1      -4.133   3.139  24.841  0.00  0.00    -0.045 A 
ATOM     24  C   UNL     1      -4.504   3.400  26.161  0.00  0.00    +0.004 A 
ATOM     25  C   UNL     1      -4.982   2.409  24.009  0.00  0.00    +0.004 A 
ATOM     27  C   UNL     1      -5.723   2.929  26.648  0.00  0.00    +0.000 A 
ATOM     28  C   UNL     1      -6.201   1.938  24.498  0.00  0.00    +0.000 A 
ATOM     30  C   UNL     1      -6.571   2.198  25.816  0.00  0.00    +0.000 A 
ENDBRANCH  20  22
ENDBRANCH  17  20
ENDBRANCH   8  17
ENDBRANCH  12  15
BRANCH  16  18
ATOM     18  C   UNL     1      -4.068  -1.043  23.362  0.00  0.00    +0.164 C 
BRANCH  18   1
ATOM      1  S   UNL     1      -4.702  -2.698  23.668  0.00  0.00    -0.155 S 
ATOM     26  C   UNL     1      -3.510  -3.227  24.922  0.00  0.00    +0.085 C 
ENDBRANCH  18   1
ENDBRANCH  16  18
TORSDOF 10
ENDMDL
MODEL 2
REMARK VINA RESULT:      -1.2      2.294      5.174
REMARK  Name = 11865733
REMARK  11 active torsions:
REMARK  status: ('A' for Active; 'I' for Inactive)
REMARK    1  A    between atoms: S_1  and  C_18
REMARK    2  A    between atoms: S_1  and  C_26
REMARK    3  A    between atoms: N_7  and  C_11
REMARK    4  A    between atoms: N_8  and  C_17
REMARK    5  A    between atoms: N_9  and  C_23
REMARK    6  A    between atoms: C_12  and  C_15
REMARK    7  A    between atoms: C_16  and  C_18
REMARK    8  A    between atoms: C_17  and  C_20
REMARK    9  A    between atoms: C_17  and  C_21
REMARK   10  A    between atoms: C_20  and  C_22
REMARK   11  A    between atoms: C_23  and  C_29
REMARK                            x       y       z     vdW  Elec       q    Type
REMARK                         _______ _______ _______ _____ _____    ______ ____
ROOT
ATOM      3  O   UNL     1      -3.569   1.280  23.391  0.00  0.00    -0.275 OA
ATOM      6  N   UNL     1      -2.308   3.050  24.188  0.00  0.00    -0.287 N 
ATOM     11  C   UNL     1      -0.689   4.680  24.791  0.00  0.00    +0.094 C 
ATOM     12  C   UNL     1      -1.234   2.934  23.213  0.00  0.00    +0.164 C 
ATOM     13  C   UNL     1      -0.429   4.224  23.353  0.00  0.00    +0.055 C 
ATOM     14  C   UNL     1      -2.114   4.207  25.061  0.00  0.00    +0.131 C 
ATOM     16  C   UNL     1      -3.439   2.249  24.141  0.00  0.00    +0.226 C 
ENDROOT
BRANCH  11   7
ATOM      4  O   UNL     1      -1.279   2.912  26.995  0.00  0.00    -0.253 OA
ATOM      7  N   UNL     1       0.252   4.101  25.717  0.00  0.00    -0.295 N 
ATOM      9  N   UNL     1       0.985   2.840  27.499  0.00  0.00    -0.296 N 
ATOM     19  C   UNL     1      -0.121   3.252  26.758  0.00  0.00    +0.300 C 
ATOM     32  H   UNL     1       1.229   4.370  25.647  0.00  0.00    +0.151 HD
ATOM     34  H   UNL     1       1.906   3.158  27.218  0.00  0.00    +0.151 HD
BRANCH   9  23
ATOM     23  C   UNL     1       0.879   1.956  28.636  0.00  0.00    +0.132 C 
BRANCH  23  29
ATOM     29  C   UNL     1       1.962   2.284  29.610  0.00  0.00    -0.016 C 
ATOM     31  C   UNL     1       3.031   3.031  29.311  0.00  0.00    +0.005 C 
ENDBRANCH  23  29
ENDBRANCH   9  23
ENDBRANCH  11   7
BRANCH  12  15
ATOM      2  O   UNL     1       0.351   1.712  24.515  0.00  0.00    -0.274 OA
ATOM      8  N   UNL     1      -0.590   0.699  22.643  0.00  0.00    -0.302 N 
ATOM     15  C   UNL     1      -0.407   1.729  23.549  0.00  0.00    +0.234 C 
ATOM     33  H   UNL     1      -1.262   0.814  21.888  0.00  0.00    +0.150 HD
BRANCH   8  17
ATOM     17  C   UNL     1       0.108  -0.564  22.729  0.00  0.00    +0.163 C 
BRANCH  17  21
ATOM      5  O   UNL     1       1.844  -0.316  21.046  0.00  0.00    -0.274 OA
ATOM     10  N   UNL     1       2.415  -0.071  23.256  0.00  0.00    -0.328 N 
ATOM     21  C   UNL     1       1.527  -0.325  22.232  0.00  0.00    +0.231 C 
ATOM     35  H   UNL     1       3.393   0.118  23.062  0.00  0.00    +0.145 HD
ATOM     36  H   UNL     1       2.135  -0.057  24.232  0.00  0.00    +0.145 HD
ENDBRANCH  17  21
BRANCH  17  20
ATOM     20  C   UNL     1       0.131  -1.117  24.159  0.00  0.00    +0.067 C 
BRANCH  20  22
ATOM     22  C   UNL     1      -1.248  -1.445  24.679  0.00  0.00    -0.045 A 
ATOM     24  C   UNL     1      -1.789  -0.708  25.733  0.00  0.00    +0.004 A 
ATOM     25  C   UNL     1      -1.981  -2.484  24.105  0.00  0.00    +0.004 A 
ATOM     27  C   UNL     1      -3.064  -1.012  26.213  0.00  0.00    +0.000 A 
ATOM     28  C   UNL     1      -3.255  -2.787  24.586  0.00  0.00    +0.000 A 
ATOM     30  C   UNL     1      -3.796  -2.051  25.639  0.00  0.00    +0.000 A 
ENDBRANCH  20  22
ENDBRANCH  17  20
ENDBRANCH   8  17
ENDBRANCH  12  15
BRANCH  16  18
ATOM     18  C   UNL     1      -4.543   2.625  25.097  0.00  0.00    +0.164 C 
BRANCH  18   1
ATOM      1  S   UNL     1      -5.784   1.325  25.037  0.00  0.00    -0.155 S 
ATOM     26  C   UNL     1      -6.554   1.599  26.652  0.00  0.00    +0.085 C 
ENDBRANCH  18   1
ENDBRANCH  16  18
TORSDOF 10
ENDMDL
MODEL 3
REMARK VINA RESULT:      -0.3      2.401      6.595
REMARK  Name = 11865733
REMARK  11 active torsions:
REMARK  status: ('A' for Active; 'I' for Inactive)
REMARK    1  A    between atoms: S_1  and  C_18
REMARK    2  A    between atoms: S_1  and  C_26
REMARK    3  A    between atoms: N_7  and  C_11
REMARK    4  A    between atoms: N_8  and  C_17
REMARK    5  A    between atoms: N_9  and  C_23
REMARK    6  A    between atoms: C_12  and  C_15
REMARK    7  A    between atoms: C_16  and  C_18
REMARK    8  A    between atoms: C_17  and  C_20
REMARK    9  A    between atoms: C_17  and  C_21
REMARK   10  A    between atoms: C_20  and  C_22
REMARK   11  A    between atoms: C_23  and  C_29
REMARK                            x       y       z     vdW  Elec       q    Type
REMARK                         _______ _______ _______ _____ _____    ______ ____
ROOT
ATOM      3  O   UNL     1      -4.675   1.301  24.301  0.00  0.00    -0.275 OA
ATOM      6  N   UNL     1      -2.969   2.859  24.433  0.00  0.00    -0.287 N 
ATOM     11  C   UNL     1      -0.981   4.158  24.368  0.00  0.00    +0.094 C 
ATOM     12  C   UNL     1      -2.141   2.280  23.386  0.00  0.00    +0.164 C 
ATOM     13  C   UNL     1      -1.090   3.344  23.076  0.00  0.00    +0.055 C 
ATOM     14  C   UNL     1      -2.394   4.104  24.941  0.00  0.00    +0.131 C 
ATOM     16  C   UNL     1      -4.222   2.355  24.749  0.00  0.00    +0.226 C 
ENDROOT
BRANCH  11   7
ATOM      4  O   UNL     1      -1.493   3.019  26.969  0.00  0.00    -0.253 OA
ATOM      7  N   UNL     1      -0.013   3.598  25.276  0.00  0.00    -0.295 N 
ATOM      9  N   UNL     1       0.778   2.596  27.192  0.00  0.00    -0.296 N 
ATOM     19  C   UNL     1      -0.348   3.066  26.521  0.00  0.00    +0.300 C 
ATOM     32  H   UNL     1       0.970   3.647  25.027  0.00  0.00    +0.151 HD
ATOM     34  H   UNL     1       1.682   2.661  26.735  0.00  0.00    +0.151 HD
BRANCH   9  23
ATOM     23  C   UNL     1       0.713   1.995  28.504  0.00  0.00    +0.132 C 
BRANCH  23  29
ATOM     29  C   UNL     1       1.767   2.601  29.370  0.00  0.00    -0.016 C 
ATOM     31  C   UNL     1       2.965   2.994  28.921  0.00  0.00    +0.005 C 
ENDBRANCH  23  29
ENDBRANCH   9  23
ENDBRANCH  11   7
BRANCH  12  15
ATOM      2  O   UNL     1      -2.129   0.244  24.632  0.00  0.00    -0.274 OA
ATOM      8  N   UNL     1      -0.199   0.883  23.500  0.00  0.00    -0.302 N 
ATOM     15  C   UNL     1      -1.514   1.022  23.909  0.00  0.00    +0.234 C 
ATOM     33  H   UNL     1       0.205   1.581  22.880  0.00  0.00    +0.150 HD
BRANCH   8  17
ATOM     17  C   UNL     1       0.635  -0.232  23.886  0.00  0.00    +0.163 C 
BRANCH  17  21
ATOM      5  O   UNL     1      -0.955  -2.022  23.469  0.00  0.00    -0.274 OA
ATOM     10  N   UNL     1      -0.277  -1.636  25.629  0.00  0.00    -0.328 N 
ATOM     21  C   UNL     1      -0.293  -1.373  24.275  0.00  0.00    +0.231 C 
ATOM     35  H   UNL     1      -0.842  -2.382  26.021  0.00  0.00    +0.145 HD
ATOM     36  H   UNL     1       0.293  -1.107  26.281  0.00  0.00    +0.145 HD
ENDBRANCH  17  21
BRANCH  17  20
ATOM     20  C   UNL     1       1.575  -0.671  22.757  0.00  0.00    +0.067 C 
BRANCH  20  22
ATOM     22  C   UNL     1       3.028  -0.411  23.072  0.00  0.00    -0.045 A 
ATOM     24  C   UNL     1       3.790  -1.393  23.705  0.00  0.00    +0.004 A 
ATOM     25  C   UNL     1       3.608   0.810  22.729  0.00  0.00    +0.004 A 
ATOM     27  C   UNL     1       5.134  -1.152  23.996  0.00  0.00    +0.000 A 
ATOM     28  C   UNL     1       4.952   1.050  23.021  0.00  0.00    +0.000 A 
ATOM     30  C   UNL     1       5.714   0.069  23.654  0.00  0.00    +0.000 A 
ENDBRANCH  20  22
ENDBRANCH  17  20
ENDBRANCH   8  17
ENDBRANCH  12  15
BRANCH  16  18
ATOM     18  C   UNL     1      -5.032   3.184  25.714  0.00  0.00    +0.164 C 
BRANCH  18   1
ATOM      1  S   UNL     1      -6.703   2.516  25.738  0.00  0.00    -0.155 S 
ATOM     26  C   UNL     1      -6.549   1.432  27.178  0.00  0.00    +0.085 C 
ENDBRANCH  18   1
ENDBRANCH  16  18
TORSDOF 10
ENDMDL
MODEL 4
REMARK VINA RESULT:       0.8      2.511      6.329
REMARK  Name = 11865733
REMARK  11 active torsions:
REMARK  status: ('A' for Active; 'I' for Inactive)
REMARK    1  A    between atoms: S_1  and  C_18
REMARK    2  A    between atoms: S_1  and  C_26
REMARK    3  A    between atoms: N_7  and  C_11
REMARK    4  A    between atoms: N_8  and  C_17
REMARK    5  A    between atoms: N_9  and  C_23
REMARK    6  A    between atoms: C_12  and  C_15
REMARK    7  A    between atoms: C_16  and  C_18
REMARK    8  A    between atoms: C_17  and  C_20
REMARK    9  A    between atoms: C_17  and  C_21
REMARK   10  A    between atoms: C_20  and  C_22
REMARK   11  A    between atoms: C_23  and  C_29
REMARK                            x       y       z     vdW  Elec       q    Type
REMARK                         _______ _______ _______ _____ _____    ______ ____
ROOT
ATOM      3  O   UNL     1       0.802  -0.309  23.905  0.00  0.00    -0.275 OA
ATOM      6  N   UNL     1       0.402   1.810  24.743  0.00  0.00    -0.287 N 
ATOM     11  C   UNL     1      -0.350   3.803  25.794  0.00  0.00    +0.094 C 
ATOM     12  C   UNL     1      -0.463   1.390  25.835  0.00  0.00    +0.164 C 
ATOM     13  C   UNL     1      -0.596   2.619  26.732  0.00  0.00    +0.055 C 
ATOM     14  C   UNL     1       0.648   3.252  24.780  0.00  0.00    +0.131 C 
ATOM     16  C   UNL     1       1.033   0.900  23.908  0.00  0.00    +0.226 C 
ENDROOT
BRANCH  11   7
ATOM      4  O   UNL     1      -3.026   3.643  26.862  0.00  0.00    -0.253 OA
ATOM      7  N   UNL     1      -1.565   4.249  25.161  0.00  0.00    -0.295 N 
ATOM      9  N   UNL     1      -3.822   4.640  24.924  0.00  0.00    -0.296 N 
ATOM     19  C   UNL     1      -2.823   4.132  25.751  0.00  0.00    +0.300 C 
ATOM     32  H   UNL     1      -1.514   4.610  24.213  0.00  0.00    +0.151 HD
ATOM     34  H   UNL     1      -3.558   5.041  24.030  0.00  0.00    +0.151 HD
BRANCH   9  23
ATOM     23  C   UNL     1      -5.218   4.643  25.293  0.00  0.00    +0.132 C 
BRANCH  23  29
ATOM     29  C   UNL     1      -5.588   3.291  25.809  0.00  0.00    -0.016 C 
ATOM     31  C   UNL     1      -5.904   2.255  25.024  0.00  0.00    +0.005 C 
ENDBRANCH  23  29
ENDBRANCH   9  23
ENDBRANCH  11   7
BRANCH  12  15
ATOM      2  O   UNL     1      -2.559   0.248  25.884  0.00  0.00    -0.274 OA
ATOM      8  N   UNL     1      -1.998   1.492  23.999  0.00  0.00    -0.302 N 
ATOM     15  C   UNL     1      -1.789   0.978  25.267  0.00  0.00    +0.234 C 
ATOM     33  H   UNL     1      -1.298   2.106  23.590  0.00  0.00    +0.150 HD
BRANCH   8  17
ATOM     17  C   UNL     1      -3.188   1.224  23.224  0.00  0.00    +0.163 C 
BRANCH  17  21
ATOM      5  O   UNL     1      -4.058   3.345  22.417  0.00  0.00    -0.274 OA
ATOM     10  N   UNL     1      -2.550   2.208  21.111  0.00  0.00    -0.328 N 
ATOM     21  C   UNL     1      -3.341   2.365  22.229  0.00  0.00    +0.231 C 
ATOM     35  H   UNL     1      -2.546   2.905  20.373  0.00  0.00    +0.145 HD
ATOM     36  H   UNL     1      -1.944   1.404  20.979  0.00  0.00    +0.145 HD
ENDBRANCH  17  21
BRANCH  17  20
ATOM     20  C   UNL     1      -3.110  -0.118  22.488  0.00  0.00    +0.067 C 
BRANCH  20  22
ATOM     22  C   UNL     1      -3.089  -1.299  23.428  0.00  0.00    -0.045 A 
ATOM     24  C   UNL     1      -4.287  -1.844  23.890  0.00  0.00    +0.004 A 
ATOM     25  C   UNL     1      -1.871  -1.846  23.833  0.00  0.00    +0.004 A 
ATOM     27  C   UNL     1      -4.267  -2.936  24.758  0.00  0.00    +0.000 A 
ATOM     28  C   UNL     1      -1.852  -2.937  24.702  0.00  0.00    +0.000 A 
ATOM     30  C   UNL     1      -3.049  -3.482  25.164  0.00  0.00    +0.000 A 
ENDBRANCH  20  22
ENDBRANCH  17  20
ENDBRANCH   8  17
ENDBRANCH  12  15
BRANCH  16  18
ATOM     18  C   UNL     1       2.048   1.485  22.958  0.00  0.00    +0.164 C 
BRANCH  18   1
ATOM      1  S   UNL     1       3.064   0.132  22.344  0.00  0.00    -0.155 S 
ATOM     26  C   UNL     1       4.624   0.565  23.152  0.00  0.00    +0.085 C 
ENDBRANCH  18   1
ENDBRANCH  16  18
TORSDOF 10
ENDMDL
MODEL 5
REMARK VINA RESULT:       1.6      2.416      6.259
REMARK  Name = 11865733
REMARK  11 active torsions:
REMARK  status: ('A' for Active; 'I' for Inactive)
REMARK    1  A    between atoms: S_1  and  C_18
REMARK    2  A    between atoms: S_1  and  C_26
REMARK    3  A    between atoms: N_7  and  C_11
REMARK    4  A    between atoms: N_8  and  C_17
REMARK    5  A    between atoms: N_9  and  C_23
REMARK    6  A    between atoms: C_12  and  C_15
REMARK    7  A    between atoms: C_16  and  C_18
REMARK    8  A    between atoms: C_17  and  C_20
REMARK    9  A    between atoms: C_17  and  C_21
REMARK   10  A    between atoms: C_20  and  C_22
REMARK   11  A    between atoms: C_23  and  C_29
REMARK                            x       y       z     vdW  Elec       q    Type
REMARK                         _______ _______ _______ _____ _____    ______ ____
ROOT
ATOM      3  O   UNL     1       0.521  -1.162  23.761  0.00  0.00    -0.275 OA
ATOM      6  N   UNL     1       0.299   1.055  24.390  0.00  0.00    -0.287 N 
ATOM     11  C   UNL     1      -0.227   3.180  25.311  0.00  0.00    +0.094 C 
ATOM     12  C   UNL     1      -0.332   0.794  25.675  0.00  0.00    +0.164 C 
ATOM     13  C   UNL     1      -0.282   2.126  26.420  0.00  0.00    +0.055 C 
ATOM     14  C   UNL     1       0.548   2.482  24.197  0.00  0.00    +0.131 C 
ATOM     16  C   UNL     1       0.749   0.033  23.567  0.00  0.00    +0.226 C 
ENDROOT
BRANCH  11   7
ATOM      4  O   UNL     1      -2.440   3.967  26.987  0.00  0.00    -0.253 OA
ATOM      7  N   UNL     1      -1.544   3.576  24.880  0.00  0.00    -0.295 N 
ATOM      9  N   UNL     1      -3.728   4.278  25.081  0.00  0.00    -0.296 N 
ATOM     19  C   UNL     1      -2.560   3.943  25.762  0.00  0.00    +0.300 C 
ATOM     32  H   UNL     1      -1.765   3.528  23.890  0.00  0.00    +0.151 HD
ATOM     34  H   UNL     1      -3.727   4.245  24.067  0.00  0.00    +0.151 HD
BRANCH   9  23
ATOM     23  C   UNL     1      -4.935   4.694  25.755  0.00  0.00    +0.132 C 
BRANCH  23  29
ATOM     29  C   UNL     1      -5.955   3.610  25.642  0.00  0.00    -0.016 C 
ATOM     31  C   UNL     1      -5.852   2.424  26.254  0.00  0.00    +0.005 C 
ENDBRANCH  23  29
ENDBRANCH   9  23
ENDBRANCH  11   7
BRANCH  12  15
ATOM      2  O   UNL     1      -2.697   0.897  25.984  0.00  0.00    -0.274 OA
ATOM      8  N   UNL     1      -1.816  -0.729  24.573  0.00  0.00    -0.302 N 
ATOM     15  C   UNL     1      -1.745   0.350  25.437  0.00  0.00    +0.234 C 
ATOM     33  H   UNL     1      -0.961  -1.091  24.159  0.00  0.00    +0.150 HD
BRANCH   8  17
ATOM     17  C   UNL     1      -3.060  -1.361  24.198  0.00  0.00    +0.163 C 
BRANCH  17  21
ATOM      5  O   UNL     1      -3.523  -3.549  25.152  0.00  0.00    -0.274 OA
ATOM     10  N   UNL     1      -3.575  -1.715  26.533  0.00  0.00    -0.328 N 
ATOM     21  C   UNL     1      -3.422  -2.335  25.311  0.00  0.00    +0.231 C 
ATOM     35  H   UNL     1      -3.804  -2.251  27.364  0.00  0.00    +0.145 HD
ATOM     36  H   UNL     1      -3.465  -0.714  26.656  0.00  0.00    +0.145 HD
ENDBRANCH  17  21
BRANCH  17  20
ATOM     20  C   UNL     1      -4.188  -0.343  23.994  0.00  0.00    +0.067 C 
BRANCH  20  22
ATOM     22  C   UNL     1      -3.756   0.851  23.179  0.00  0.00    -0.045 A 
ATOM     24  C   UNL     1      -2.641   0.759  22.344  0.00  0.00    +0.004 A 
ATOM     25  C   UNL     1      -4.471   2.046  23.258  0.00  0.00    +0.004 A 
ATOM     27  C   UNL     1      -2.242   1.863  21.590  0.00  0.00    +0.000 A 
ATOM     28  C   UNL     1      -4.071   3.149  22.504  0.00  0.00    +0.000 A 
ATOM     30  C   UNL     1      -2.957   3.058  21.670  0.00  0.00    +0.000 A 
ENDBRANCH  20  22
ENDBRANCH  17  20
ENDBRANCH   8  17
ENDBRANCH  12  15
BRANCH  16  18
ATOM     18  C   UNL     1       1.555   0.470  22.369  0.00  0.00    +0.164 C 
BRANCH  18   1
ATOM      1  S   UNL     1       3.165  -0.325  22.474  0.00  0.00    -0.155 S 
ATOM     26  C   UNL     1       4.178   1.138  22.804  0.00  0.00    +0.085 C 
ENDBRANCH  18   1
ENDBRANCH  16  18
TORSDOF 10
ENDMDL
MODEL 6
REMARK VINA RESULT:       1.9      2.098      7.020
REMARK  Name = 11865733
REMARK  11 active torsions:
REMARK  status: ('A' for Active; 'I' for Inactive)
REMARK    1  A    between atoms: S_1  and  C_18
REMARK    2  A    between atoms: S_1  and  C_26
REMARK    3  A    between atoms: N_7  and  C_11
REMARK    4  A    between atoms: N_8  and  C_17
REMARK    5  A    between atoms: N_9  and  C_23
REMARK    6  A    between atoms: C_12  and  C_15
REMARK    7  A    between atoms: C_16  and  C_18
REMARK    8  A    between atoms: C_17  and  C_20
REMARK    9  A    between atoms: C_17  and  C_21
REMARK   10  A    between atoms: C_20  and  C_22
REMARK   11  A    between atoms: C_23  and  C_29
REMARK                            x       y       z     vdW  Elec       q    Type
REMARK                         _______ _______ _______ _____ _____    ______ ____
ROOT
ATOM      3  O   UNL     1      -1.154   4.953  24.179  0.00  0.00    -0.275 OA
ATOM      6  N   UNL     1      -1.440   3.075  25.502  0.00  0.00    -0.287 N 
ATOM     11  C   UNL     1      -1.325   1.058  26.751  0.00  0.00    +0.094 C 
ATOM     12  C   UNL     1      -0.025   2.806  25.706  0.00  0.00    +0.164 C 
ATOM     13  C   UNL     1       0.025   1.775  26.832  0.00  0.00    +0.055 C 
ATOM     14  C   UNL     1      -2.276   2.146  26.261  0.00  0.00    +0.131 C 
ATOM     16  C   UNL     1      -1.888   4.190  24.809  0.00  0.00    +0.226 C 
ENDROOT
BRANCH  11   7
ATOM      4  O   UNL     1      -3.282  -1.048  26.503  0.00  0.00    -0.253 OA
ATOM      7  N   UNL     1      -1.284  -0.064  25.847  0.00  0.00    -0.295 N 
ATOM      9  N   UNL     1      -1.987  -2.008  24.834  0.00  0.00    -0.296 N 
ATOM     19  C   UNL     1      -2.277  -1.041  25.793  0.00  0.00    +0.300 C 
ATOM     32  H   UNL     1      -0.463  -0.184  25.262  0.00  0.00    +0.151 HD
ATOM     34  H   UNL     1      -1.141  -1.910  24.282  0.00  0.00    +0.151 HD
BRANCH   9  23
ATOM     23  C   UNL     1      -2.851  -3.135  24.573  0.00  0.00    +0.132 C 
BRANCH  23  29
ATOM     29  C   UNL     1      -4.094  -2.651  23.902  0.00  0.00    -0.016 C 
ATOM     31  C   UNL     1      -4.288  -1.383  23.520  0.00  0.00    +0.005 C 
ENDBRANCH  23  29
ENDBRANCH   9  23
ENDBRANCH  11   7
BRANCH  12  15
ATOM      2  O   UNL     1       0.776   2.978  23.464  0.00  0.00    -0.274 OA
ATOM      8  N   UNL     1       0.758   0.893  24.497  0.00  0.00    -0.302 N 
ATOM     15  C   UNL     1       0.551   2.260  24.434  0.00  0.00    +0.234 C 
ATOM     33  H   UNL     1       0.555   0.399  25.363  0.00  0.00    +0.150 HD
BRANCH   8  17
ATOM     17  C   UNL     1       1.283   0.121  23.394  0.00  0.00    +0.163 C 
BRANCH  17  21
ATOM      5  O   UNL     1      -1.018   0.227  22.618  0.00  0.00    -0.274 OA
ATOM     10  N   UNL     1       0.609  -0.447  21.144  0.00  0.00    -0.328 N 
ATOM     21  C   UNL     1       0.159  -0.032  22.379  0.00  0.00    +0.231 C 
ATOM     35  H   UNL     1      -0.036  -0.576  20.371  0.00  0.00    +0.145 HD
ATOM     36  H   UNL     1       1.589  -0.634  20.953  0.00  0.00    +0.145 HD
ENDBRANCH  17  21
BRANCH  17  20
ATOM     20  C   UNL     1       2.499   0.791  22.745  0.00  0.00    +0.067 C 
BRANCH  20  22
ATOM     22  C   UNL     1       3.808   0.188  23.197  0.00  0.00    -0.045 A 
ATOM     24  C   UNL     1       4.961   0.973  23.234  0.00  0.00    +0.004 A 
ATOM     25  C   UNL     1       3.864  -1.152  23.579  0.00  0.00    +0.004 A 
ATOM     27  C   UNL     1       6.170   0.416  23.652  0.00  0.00    +0.000 A 
ATOM     28  C   UNL     1       5.073  -1.709  23.996  0.00  0.00    +0.000 A 
ATOM     30  C   UNL     1       6.225  -0.925  24.032  0.00  0.00    +0.000 A 
ENDBRANCH  20  22
ENDBRANCH  17  20
ENDBRANCH   8  17
ENDBRANCH  12  15
BRANCH  16  18
ATOM     18  C   UNL     1      -3.377   4.430  24.856  0.00  0.00    +0.164 C 
BRANCH  18   1
ATOM      1  S   UNL     1      -4.141   3.360  23.629  0.00  0.00    -0.155 S 
ATOM     26  C   UNL     1      -5.213   2.400  24.725  0.00  0.00    +0.085 C 
ENDBRANCH  18   1
ENDBRANCH  16  18
TORSDOF 10
ENDMDL
MODEL 7
REMARK VINA RESULT:       2.1      2.478      7.287
REMARK  Name = 11865733
REMARK  11 active torsions:
REMARK  status: ('A' for Active; 'I' for Inactive)
REMARK    1  A    between atoms: S_1  and  C_18
REMARK    2  A    between atoms: S_1  and  C_26
REMARK    3  A    between atoms: N_7  and  C_11
REMARK    4  A    between atoms: N_8  and  C_17
REMARK    5  A    between atoms: N_9  and  C_23
REMARK    6  A    between atoms: C_12  and  C_15
REMARK    7  A    between atoms: C_16  and  C_18
REMARK    8  A    between atoms: C_17  and  C_20
REMARK    9  A    between atoms: C_17  and  C_21
REMARK   10  A    between atoms: C_20  and  C_22
REMARK   11  A    between atoms: C_23  and  C_29
REMARK                            x       y       z     vdW  Elec       q    Type
REMARK                         _______ _______ _______ _____ _____    ______ ____
ROOT
ATOM      3  O   UNL     1       0.614   3.299  25.338  0.00  0.00    -0.275 OA
ATOM      6  N   UNL     1      -1.577   2.860  24.734  0.00  0.00    -0.287 N 
ATOM     11  C   UNL     1      -3.790   2.074  24.383  0.00  0.00    +0.094 C 
ATOM     12  C   UNL     1      -1.892   2.016  25.876  0.00  0.00    +0.164 C 
ATOM     13  C   UNL     1      -3.411   1.865  25.851  0.00  0.00    +0.055 C 
ATOM     14  C   UNL     1      -2.750   3.073  23.887  0.00  0.00    +0.131 C 
ATOM     16  C   UNL     1      -0.354   3.502  24.605  0.00  0.00    +0.226 C 
ENDROOT
BRANCH  11   7
ATOM      4  O   UNL     1      -4.762  -0.507  25.233  0.00  0.00    -0.253 OA
ATOM      7  N   UNL     1      -3.749   0.842  23.637  0.00  0.00    -0.295 N 
ATOM      9  N   UNL     1      -4.075  -1.396  23.202  0.00  0.00    -0.296 N 
ATOM     19  C   UNL     1      -4.243  -0.367  24.126  0.00  0.00    +0.300 C 
ATOM     32  H   UNL     1      -3.282   0.837  22.735  0.00  0.00    +0.151 HD
ATOM     34  H   UNL     1      -3.652  -1.181  22.305  0.00  0.00    +0.151 HD
BRANCH   9  23
ATOM     23  C   UNL     1      -4.500  -2.752  23.456  0.00  0.00    +0.132 C 
BRANCH  23  29
ATOM     29  C   UNL     1      -3.494  -3.422  24.332  0.00  0.00    -0.016 C 
ATOM     31  C   UNL     1      -3.347  -3.156  25.635  0.00  0.00    +0.005 C 
ENDBRANCH  23  29
ENDBRANCH   9  23
ENDBRANCH  11   7
BRANCH  12  15
ATOM      2  O   UNL     1      -1.463  -0.269  26.418  0.00  0.00    -0.274 OA
ATOM      8  N   UNL     1      -0.266   0.721  24.686  0.00  0.00    -0.302 N 
ATOM     15  C   UNL     1      -1.205   0.694  25.702  0.00  0.00    +0.234 C 
ATOM     33  H   UNL     1      -0.149   1.571  24.140  0.00  0.00    +0.150 HD
BRANCH   8  17
ATOM     17  C   UNL     1       0.549  -0.418  24.332  0.00  0.00    +0.163 C 
BRANCH  17  21
ATOM      5  O   UNL     1      -1.182  -1.802  23.334  0.00  0.00    -0.274 OA
ATOM     10  N   UNL     1      -0.185  -2.519  25.275  0.00  0.00    -0.328 N 
ATOM     21  C   UNL     1      -0.378  -1.622  24.245  0.00  0.00    +0.231 C 
ATOM     35  H   UNL     1      -0.730  -3.373  25.330  0.00  0.00    +0.145 HD
ATOM     36  H   UNL     1       0.499  -2.370  26.009  0.00  0.00    +0.145 HD
ENDBRANCH  17  21
BRANCH  17  20
ATOM     20  C   UNL     1       1.284  -0.215  23.002  0.00  0.00    +0.067 C 
BRANCH  20  22
ATOM     22  C   UNL     1       2.784  -0.177  23.164  0.00  0.00    -0.045 A 
ATOM     24  C   UNL     1       3.494   0.974  22.819  0.00  0.00    +0.004 A 
ATOM     25  C   UNL     1       3.461  -1.292  23.660  0.00  0.00    +0.004 A 
ATOM     27  C   UNL     1       4.881   1.008  22.969  0.00  0.00    +0.000 A 
ATOM     28  C   UNL     1       4.848  -1.256  23.809  0.00  0.00    +0.000 A 
ATOM     30  C   UNL     1       5.557  -0.107  23.464  0.00  0.00    +0.000 A 
ENDBRANCH  20  22
ENDBRANCH  17  20
ENDBRANCH   8  17
ENDBRANCH  12  15
BRANCH  16  18
ATOM     18  C   UNL     1      -0.257   4.494  23.472  0.00  0.00    +0.164 C 
BRANCH  18   1
ATOM      1  S   UNL     1      -0.628   6.123  24.138  0.00  0.00    -0.155 S 
ATOM     26  C   UNL     1      -1.932   5.657  25.304  0.00  0.00    +0.085 C 
ENDBRANCH  18   1
ENDBRANCH  16  18
TORSDOF 10
ENDMDL
