MODEL 1
REMARK VINA RESULT:       5.4      0.000      0.000
REMARK  Name = 7155401
REMARK  5 active torsions:
REMARK  status: ('A' for Active; 'I' for Inactive)
REMARK    1  A    between atoms: S_1  and  C_28
REMARK    2  A    between atoms: S_1  and  C_30
REMARK    3  A    between atoms: N_4  and  C_13
REMARK    4  A    between atoms: C_13  and  C_18
REMARK    5  A    between atoms: C_14  and  C_19
REMARK                            x       y       z     vdW  Elec       q    Type
REMARK                         _______ _______ _______ _____ _____    ______ ____
ROOT
ATOM      3  O   UNL     1      -3.545   4.606  27.811  0.00  0.00    -0.268 OA
ATOM      4  N   UNL     1      -4.616   0.924  24.638  0.00  0.00    -0.297 NA
ATOM      5  N   UNL     1      -3.155   3.506  25.781  0.00  0.00    -0.311 N 
ATOM      6  C   UNL     1      -4.980   3.311  23.987  0.00  0.00    +0.024 C 
ATOM      7  C   UNL     1      -2.788   2.292  23.612  0.00  0.00    +0.051 C 
ATOM      8  C   UNL     1      -3.811   3.257  23.019  0.00  0.00    +0.017 C 
ATOM      9  C   UNL     1      -5.596   1.909  24.164  0.00  0.00    +0.090 C 
ATOM     10  C   UNL     1      -3.431   0.892  23.768  0.00  0.00    +0.094 C 
ATOM     11  C   UNL     1      -4.488   3.905  25.309  0.00  0.00    +0.130 C 
ATOM     12  C   UNL     1      -2.253   2.799  24.957  0.00  0.00    +0.034 A 
ATOM     14  C   UNL     1      -0.979   2.582  25.381  0.00  0.00    +0.002 A 
ATOM     15  C   UNL     1      -2.803   3.975  27.058  0.00  0.00    +0.252 A 
ATOM     16  C   UNL     1      -0.584   3.048  26.697  0.00  0.00    +0.015 A 
ATOM     17  C   UNL     1      -1.422   3.691  27.510  0.00  0.00    +0.071 A 
ENDROOT
BRANCH  14  19
ATOM     19  C   UNL     1      -0.037   1.886  24.548  0.00  0.00    -0.016 A 
ATOM     22  C   UNL     1      -0.201   0.525  24.306  0.00  0.00    +0.009 A 
ATOM     23  C   UNL     1       1.035   2.578  23.989  0.00  0.00    +0.009 A 
ATOM     24  C   UNL     1       0.715  -0.150  23.499  0.00  0.00    +0.015 A 
ATOM     25  C   UNL     1       1.950   1.901  23.182  0.00  0.00    +0.015 A 
ATOM     28  C   UNL     1       1.790   0.538  22.937  0.00  0.00    +0.008 A 
BRANCH  28   1
ATOM      1  S   UNL     1       2.960  -0.325  21.906  0.00  0.00    -0.129 S 
ATOM     30  C   UNL     1       4.538   0.134  22.676  0.00  0.00    +0.090 C 
ENDBRANCH  28   1
ENDBRANCH  14  19
BRANCH   4  13
ATOM     13  C   UNL     1      -5.218  -0.402  24.751  0.00  0.00    +0.119 C 
BRANCH  13  18
ATOM      2  F   UNL     1      -1.541  -4.477  23.536  0.00  0.00    -0.205 F 
ATOM     18  C   UNL     1      -4.233  -1.494  24.426  0.00  0.00    -0.033 A 
ATOM     20  C   UNL     1      -4.587  -2.487  23.524  0.00  0.00    +0.008 A 
ATOM     21  C   UNL     1      -2.985  -1.491  25.032  0.00  0.00    +0.008 A 
ATOM     26  C   UNL     1      -3.676  -3.499  23.223  0.00  0.00    +0.038 A 
ATOM     27  C   UNL     1      -2.073  -2.502  24.731  0.00  0.00    +0.038 A 
ATOM     29  C   UNL     1      -2.418  -3.506  23.826  0.00  0.00    +0.123 A 
ENDBRANCH  13  18
ENDBRANCH   4  13
TORSDOF 4
ENDMDL
MODEL 2
REMARK VINA RESULT:       8.2      2.667      5.993
REMARK  Name = 7155401
REMARK  5 active torsions:
REMARK  status: ('A' for Active; 'I' for Inactive)
REMARK    1  A    between atoms: S_1  and  C_28
REMARK    2  A    between atoms: S_1  and  C_30
REMARK    3  A    between atoms: N_4  and  C_13
REMARK    4  A    between atoms: C_13  and  C_18
REMARK    5  A    between atoms: C_14  and  C_19
REMARK                            x       y       z     vdW  Elec       q    Type
REMARK                         _______ _______ _______ _____ _____    ______ ____
ROOT
ATOM      3  O   UNL     1      -2.805   5.251  24.896  0.00  0.00    -0.268 OA
ATOM      4  N   UNL     1       0.588   1.793  23.761  0.00  0.00    -0.297 NA
ATOM      5  N   UNL     1      -1.941   3.094  25.181  0.00  0.00    -0.311 N 
ATOM      6  C   UNL     1       0.431   2.706  26.083  0.00  0.00    +0.024 C 
ATOM      7  C   UNL     1      -0.962   0.796  25.454  0.00  0.00    +0.051 C 
ATOM      8  C   UNL     1      -0.141   1.394  26.593  0.00  0.00    +0.017 C 
ATOM      9  C   UNL     1       1.316   2.461  24.845  0.00  0.00    +0.090 C 
ATOM     10  C   UNL     1      -0.045   0.552  24.231  0.00  0.00    +0.094 C 
ATOM     11  C   UNL     1      -0.730   3.660  25.792  0.00  0.00    +0.130 C 
ATOM     12  C   UNL     1      -2.142   1.701  25.078  0.00  0.00    +0.034 A 
ATOM     14  C   UNL     1      -3.338   1.222  24.644  0.00  0.00    +0.002 A 
ATOM     15  C   UNL     1      -2.924   4.029  24.815  0.00  0.00    +0.252 A 
ATOM     16  C   UNL     1      -4.375   2.160  24.253  0.00  0.00    +0.015 A 
ATOM     17  C   UNL     1      -4.202   3.481  24.310  0.00  0.00    +0.071 A 
ENDROOT
BRANCH  14  19
ATOM     19  C   UNL     1      -3.574  -0.193  24.555  0.00  0.00    -0.016 A 
ATOM     22  C   UNL     1      -3.238  -1.019  25.623  0.00  0.00    +0.009 A 
ATOM     23  C   UNL     1      -4.138  -0.728  23.399  0.00  0.00    +0.009 A 
ATOM     24  C   UNL     1      -3.467  -2.393  25.534  0.00  0.00    +0.015 A 
ATOM     25  C   UNL     1      -4.366  -2.102  23.311  0.00  0.00    +0.015 A 
ATOM     28  C   UNL     1      -4.031  -2.934  24.379  0.00  0.00    +0.008 A 
BRANCH  28   1
ATOM      1  S   UNL     1      -4.322  -4.688  24.266  0.00  0.00    -0.129 S 
ATOM     30  C   UNL     1      -3.443  -5.110  22.736  0.00  0.00    +0.090 C 
ENDBRANCH  28   1
ENDBRANCH  14  19
BRANCH   4  13
ATOM     13  C   UNL     1       1.466   1.533  22.622  0.00  0.00    +0.119 C 
BRANCH  13  18
ATOM      2  F   UNL     1       5.979  -1.473  24.103  0.00  0.00    -0.205 F 
ATOM     18  C   UNL     1       2.675   0.728  23.019  0.00  0.00    -0.033 A 
ATOM     20  C   UNL     1       2.522  -0.606  23.369  0.00  0.00    +0.008 A 
ATOM     21  C   UNL     1       3.924   1.331  23.029  0.00  0.00    +0.008 A 
ATOM     26  C   UNL     1       3.642  -1.352  23.737  0.00  0.00    +0.038 A 
ATOM     27  C   UNL     1       5.044   0.585  23.396  0.00  0.00    +0.038 A 
ATOM     29  C   UNL     1       4.903  -0.757  23.750  0.00  0.00    +0.123 A 
ENDBRANCH  13  18
ENDBRANCH   4  13
TORSDOF 4
ENDMDL
