MODEL 1
REMARK VINA RESULT:      -6.9      0.000      0.000
REMARK  Name = 71693834
REMARK  8 active torsions:
REMARK  status: ('A' for Active; 'I' for Inactive)
REMARK    1  A    between atoms: O_1  and  C_7
REMARK    2  A    between atoms: O_2  and  C_9
REMARK    3  A    between atoms: N_3  and  C_5
REMARK    4  A    between atoms: N_3  and  C_11
REMARK    5  A    between atoms: C_6  and  C_10
REMARK    6  A    between atoms: C_11  and  C_12
REMARK    7  A    between atoms: C_12  and  C_15
REMARK    8  A    between atoms: C_12  and  C_16
REMARK                            x       y       z     vdW  Elec       q    Type
REMARK                         _______ _______ _______ _____ _____    ______ ____
ROOT
ATOM      5  C   UNL     1      -1.408   1.399  25.381  0.00  0.00    +0.092 C 
ATOM      6  C   UNL     1      -2.431   1.726  24.271  0.00  0.00    +0.042 C 
ATOM      7  C   UNL     1      -0.075   1.816  24.760  0.00  0.00    +0.160 C 
ATOM      8  C   UNL     1      -1.781   2.857  23.428  0.00  0.00    +0.043 C 
ATOM      9  C   UNL     1      -0.424   3.135  24.076  0.00  0.00    +0.145 C 
ENDROOT
BRANCH   6  10
ATOM      4  N   UNL     1      -5.247   3.630  25.955  0.00  0.00    -0.263 NA
ATOM     10  C   UNL     1      -3.806   2.065  24.808  0.00  0.00    -0.025 A 
ATOM     13  C   UNL     1      -4.867   1.177  24.669  0.00  0.00    +0.007 A 
ATOM     14  C   UNL     1      -4.046   3.267  25.452  0.00  0.00    +0.114 A 
ATOM     17  C   UNL     1      -6.119   1.515  25.173  0.00  0.00    +0.020 A 
ATOM     18  C   UNL     1      -6.255   2.742  25.801  0.00  0.00    +0.111 A 
ENDBRANCH   6  10
BRANCH   7   1
ATOM      1  O   UNL     1       0.931   1.976  25.742  0.00  0.00    -0.388 OA
ATOM     20  H   UNL     1       1.713   2.348  25.299  0.00  0.00    +0.210 HD
ENDBRANCH   7   1
BRANCH   9   2
ATOM      2  O   UNL     1      -0.561   4.170  25.044  0.00  0.00    -0.389 OA
ATOM     21  H   UNL     1       0.218   4.129  25.626  0.00  0.00    +0.210 HD
ENDBRANCH   9   2
BRANCH   5   3
ATOM      3  N   UNL     1      -1.419  -0.016  25.738  0.00  0.00    -0.310 NA
ATOM     19  H   UNL     1      -0.494  -0.296  26.064  0.00  0.00    +0.122 HD
BRANCH   3  11
ATOM     11  C   UNL     1      -1.778  -0.838  24.592  0.00  0.00    +0.084 C 
BRANCH  11  12
ATOM     12  C   UNL     1      -2.790  -1.939  24.953  0.00  0.00    -0.003 C 
ATOM     15  C   UNL     1      -3.901  -2.080  23.909  0.00  0.00    +0.008 C 
ATOM     16  C   UNL     1      -3.406  -1.645  26.323  0.00  0.00    +0.008 C 
ENDBRANCH  11  12
ENDBRANCH   3  11
ENDBRANCH   5   3
TORSDOF 6
ENDMDL
MODEL 2
REMARK VINA RESULT:      -6.6      2.015      3.866
REMARK  Name = 71693834
REMARK  8 active torsions:
REMARK  status: ('A' for Active; 'I' for Inactive)
REMARK    1  A    between atoms: O_1  and  C_7
REMARK    2  A    between atoms: O_2  and  C_9
REMARK    3  A    between atoms: N_3  and  C_5
REMARK    4  A    between atoms: N_3  and  C_11
REMARK    5  A    between atoms: C_6  and  C_10
REMARK    6  A    between atoms: C_11  and  C_12
REMARK    7  A    between atoms: C_12  and  C_15
REMARK    8  A    between atoms: C_12  and  C_16
REMARK                            x       y       z     vdW  Elec       q    Type
REMARK                         _______ _______ _______ _____ _____    ______ ____
ROOT
ATOM      5  C   UNL     1      -2.406   2.388  24.513  0.00  0.00    +0.092 C 
ATOM      6  C   UNL     1      -3.590   1.588  23.927  0.00  0.00    +0.042 C 
ATOM      7  C   UNL     1      -2.948   3.816  24.577  0.00  0.00    +0.160 C 
ATOM      8  C   UNL     1      -4.863   2.391  24.310  0.00  0.00    +0.043 C 
ATOM      9  C   UNL     1      -4.370   3.610  25.092  0.00  0.00    +0.145 C 
ENDROOT
BRANCH   6  10
ATOM      4  N   UNL     1      -3.329  -1.478  26.147  0.00  0.00    -0.263 NA
ATOM     10  C   UNL     1      -3.612   0.141  24.374  0.00  0.00    -0.025 A 
ATOM     13  C   UNL     1      -3.919  -0.879  23.480  0.00  0.00    +0.007 A 
ATOM     14  C   UNL     1      -3.328  -0.207  25.684  0.00  0.00    +0.114 A 
ATOM     17  C   UNL     1      -3.930  -2.199  23.919  0.00  0.00    +0.020 A 
ATOM     18  C   UNL     1      -3.631  -2.443  25.249  0.00  0.00    +0.111 A 
ENDBRANCH   6  10
BRANCH   7   1
ATOM      1  O   UNL     1      -2.180   4.627  25.447  0.00  0.00    -0.388 OA
ATOM     20  H   UNL     1      -1.773   5.326  24.908  0.00  0.00    +0.210 HD
ENDBRANCH   7   1
BRANCH   9   2
ATOM      2  O   UNL     1      -4.350   3.307  26.483  0.00  0.00    -0.389 OA
ATOM     21  H   UNL     1      -4.553   2.361  26.579  0.00  0.00    +0.210 HD
ENDBRANCH   9   2
BRANCH   5   3
ATOM      3  N   UNL     1      -1.215   2.299  23.675  0.00  0.00    -0.310 NA
ATOM     19  H   UNL     1      -1.458   1.895  22.770  0.00  0.00    +0.122 HD
BRANCH   3  11
ATOM     11  C   UNL     1      -0.200   1.464  24.301  0.00  0.00    +0.084 C 
BRANCH  11  12
ATOM     12  C   UNL     1      -0.013   0.122  23.573  0.00  0.00    -0.003 C 
ATOM     15  C   UNL     1      -0.163  -1.080  24.510  0.00  0.00    +0.008 C 
ATOM     16  C   UNL     1       1.363   0.084  22.904  0.00  0.00    +0.008 C 
ENDBRANCH  11  12
ENDBRANCH   3  11
ENDBRANCH   5   3
TORSDOF 6
ENDMDL
MODEL 3
REMARK VINA RESULT:      -6.4      2.124      4.794
REMARK  Name = 71693834
REMARK  8 active torsions:
REMARK  status: ('A' for Active; 'I' for Inactive)
REMARK    1  A    between atoms: O_1  and  C_7
REMARK    2  A    between atoms: O_2  and  C_9
REMARK    3  A    between atoms: N_3  and  C_5
REMARK    4  A    between atoms: N_3  and  C_11
REMARK    5  A    between atoms: C_6  and  C_10
REMARK    6  A    between atoms: C_11  and  C_12
REMARK    7  A    between atoms: C_12  and  C_15
REMARK    8  A    between atoms: C_12  and  C_16
REMARK                            x       y       z     vdW  Elec       q    Type
REMARK                         _______ _______ _______ _____ _____    ______ ____
ROOT
ATOM      5  C   UNL     1      -3.711   2.287  24.881  0.00  0.00    +0.092 C 
ATOM      6  C   UNL     1      -4.607   1.206  24.237  0.00  0.00    +0.042 C 
ATOM      7  C   UNL     1      -4.662   3.473  25.049  0.00  0.00    +0.160 C 
ATOM      8  C   UNL     1      -6.055   1.552  24.677  0.00  0.00    +0.043 C 
ATOM      9  C   UNL     1      -5.941   2.806  25.546  0.00  0.00    +0.145 C 
ENDROOT
BRANCH   6  10
ATOM      4  N   UNL     1      -3.262  -1.753  26.194  0.00  0.00    -0.263 NA
ATOM     10  C   UNL     1      -4.176  -0.206  24.577  0.00  0.00    -0.025 A 
ATOM     13  C   UNL     1      -4.281  -1.230  23.643  0.00  0.00    +0.007 A 
ATOM     14  C   UNL     1      -3.666  -0.516  25.827  0.00  0.00    +0.114 A 
ATOM     17  C   UNL     1      -3.876  -2.517  23.983  0.00  0.00    +0.020 A 
ATOM     18  C   UNL     1      -3.379  -2.724  25.260  0.00  0.00    +0.111 A 
ENDBRANCH   6  10
BRANCH   7   1
ATOM      1  O   UNL     1      -4.160   4.417  25.976  0.00  0.00    -0.388 OA
ATOM     20  H   UNL     1      -4.070   3.965  26.832  0.00  0.00    +0.210 HD
ENDBRANCH   7   1
BRANCH   9   2
ATOM      2  O   UNL     1      -5.800   2.428  26.912  0.00  0.00    -0.389 OA
ATOM     21  H   UNL     1      -6.579   1.895  27.148  0.00  0.00    +0.210 HD
ENDBRANCH   9   2
BRANCH   5   3
ATOM      3  N   UNL     1      -2.568   2.627  24.039  0.00  0.00    -0.310 NA
ATOM     19  H   UNL     1      -2.759   2.357  23.074  0.00  0.00    +0.122 HD
BRANCH   3  11
ATOM     11  C   UNL     1      -1.369   1.934  24.489  0.00  0.00    +0.084 C 
BRANCH  11  12
ATOM     12  C   UNL     1      -0.306   2.899  25.040  0.00  0.00    -0.003 C 
ATOM     15  C   UNL     1       0.107   2.561  26.475  0.00  0.00    +0.008 C 
ATOM     16  C   UNL     1      -0.832   4.336  24.982  0.00  0.00    +0.008 C 
ENDBRANCH  11  12
ENDBRANCH   3  11
ENDBRANCH   5   3
TORSDOF 6
ENDMDL
MODEL 4
REMARK VINA RESULT:      -6.3      1.186      1.387
REMARK  Name = 71693834
REMARK  8 active torsions:
REMARK  status: ('A' for Active; 'I' for Inactive)
REMARK    1  A    between atoms: O_1  and  C_7
REMARK    2  A    between atoms: O_2  and  C_9
REMARK    3  A    between atoms: N_3  and  C_5
REMARK    4  A    between atoms: N_3  and  C_11
REMARK    5  A    between atoms: C_6  and  C_10
REMARK    6  A    between atoms: C_11  and  C_12
REMARK    7  A    between atoms: C_12  and  C_15
REMARK    8  A    between atoms: C_12  and  C_16
REMARK                            x       y       z     vdW  Elec       q    Type
REMARK                         _______ _______ _______ _____ _____    ______ ____
ROOT
ATOM      5  C   UNL     1      -1.409   0.387  24.187  0.00  0.00    +0.092 C 
ATOM      6  C   UNL     1      -1.972   1.743  23.707  0.00  0.00    +0.042 C 
ATOM      7  C   UNL     1       0.082   0.496  23.868  0.00  0.00    +0.160 C 
ATOM      8  C   UNL     1      -0.780   2.736  23.782  0.00  0.00    +0.043 C 
ATOM      9  C   UNL     1       0.411   1.924  24.295  0.00  0.00    +0.145 C 
ENDROOT
BRANCH   6  10
ATOM      4  N   UNL     1      -4.223   3.760  25.999  0.00  0.00    -0.263 NA
ATOM     10  C   UNL     1      -3.198   2.187  24.477  0.00  0.00    -0.025 A 
ATOM     13  C   UNL     1      -4.390   1.476  24.396  0.00  0.00    +0.007 A 
ATOM     14  C   UNL     1      -3.166   3.311  25.285  0.00  0.00    +0.114 A 
ATOM     17  C   UNL     1      -5.499   1.907  25.116  0.00  0.00    +0.020 A 
ATOM     18  C   UNL     1      -5.365   3.044  25.895  0.00  0.00    +0.111 A 
ENDBRANCH   6  10
BRANCH   7   1
ATOM      1  O   UNL     1       0.840  -0.461  24.585  0.00  0.00    -0.388 OA
ATOM     20  H   UNL     1       1.701  -0.057  24.786  0.00  0.00    +0.210 HD
ENDBRANCH   7   1
BRANCH   9   2
ATOM      2  O   UNL     1       0.471   2.011  25.715  0.00  0.00    -0.389 OA
ATOM     21  H   UNL     1       0.695   1.127  26.052  0.00  0.00    +0.210 HD
ENDBRANCH   9   2
BRANCH   5   3
ATOM      3  N   UNL     1      -2.028  -0.740  23.496  0.00  0.00    -0.310 NA
ATOM     19  H   UNL     1      -3.012  -0.537  23.316  0.00  0.00    +0.122 HD
BRANCH   3  11
ATOM     11  C   UNL     1      -1.942  -1.951  24.300  0.00  0.00    +0.084 C 
BRANCH  11  12
ATOM     12  C   UNL     1      -3.297  -2.347  24.911  0.00  0.00    -0.003 C 
ATOM     15  C   UNL     1      -4.454  -2.202  23.920  0.00  0.00    +0.008 C 
ATOM     16  C   UNL     1      -3.573  -1.494  26.152  0.00  0.00    +0.008 C 
ENDBRANCH  11  12
ENDBRANCH   3  11
ENDBRANCH   5   3
TORSDOF 6
ENDMDL
MODEL 5
REMARK VINA RESULT:      -6.3      1.431      4.258
REMARK  Name = 71693834
REMARK  8 active torsions:
REMARK  status: ('A' for Active; 'I' for Inactive)
REMARK    1  A    between atoms: O_1  and  C_7
REMARK    2  A    between atoms: O_2  and  C_9
REMARK    3  A    between atoms: N_3  and  C_5
REMARK    4  A    between atoms: N_3  and  C_11
REMARK    5  A    between atoms: C_6  and  C_10
REMARK    6  A    between atoms: C_11  and  C_12
REMARK    7  A    between atoms: C_12  and  C_15
REMARK    8  A    between atoms: C_12  and  C_16
REMARK                            x       y       z     vdW  Elec       q    Type
REMARK                         _______ _______ _______ _____ _____    ______ ____
ROOT
ATOM      5  C   UNL     1      -1.941   2.194  24.275  0.00  0.00    +0.092 C 
ATOM      6  C   UNL     1      -1.990   1.150  25.412  0.00  0.00    +0.042 C 
ATOM      7  C   UNL     1      -0.872   3.178  24.752  0.00  0.00    +0.160 C 
ATOM      8  C   UNL     1      -0.589   1.196  26.080  0.00  0.00    +0.043 C 
ATOM      9  C   UNL     1       0.206   2.254  25.312  0.00  0.00    +0.145 C 
ENDROOT
BRANCH   6  10
ATOM      4  N   UNL     1      -1.797  -2.514  24.449  0.00  0.00    -0.263 NA
ATOM     10  C   UNL     1      -2.407  -0.227  24.940  0.00  0.00    -0.025 A 
ATOM     13  C   UNL     1      -3.722  -0.490  24.570  0.00  0.00    +0.007 A 
ATOM     14  C   UNL     1      -1.492  -1.264  24.862  0.00  0.00    +0.114 A 
ATOM     17  C   UNL     1      -4.075  -1.764  24.139  0.00  0.00    +0.020 A 
ATOM     18  C   UNL     1      -3.085  -2.732  24.097  0.00  0.00    +0.111 A 
ENDBRANCH   6  10
BRANCH   7   1
ATOM      1  O   UNL     1      -0.387   3.978  23.690  0.00  0.00    -0.388 OA
ATOM     20  H   UNL     1       0.576   4.054  23.800  0.00  0.00    +0.210 HD
ENDBRANCH   7   1
BRANCH   9   2
ATOM      2  O   UNL     1       0.922   1.633  24.249  0.00  0.00    -0.389 OA
ATOM     21  H   UNL     1       0.268   1.212  23.664  0.00  0.00    +0.210 HD
ENDBRANCH   9   2
BRANCH   5   3
ATOM      3  N   UNL     1      -3.228   2.851  24.075  0.00  0.00    -0.310 NA
ATOM     19  H   UNL     1      -3.161   3.512  23.301  0.00  0.00    +0.122 HD
BRANCH   3  11
ATOM     11  C   UNL     1      -3.634   3.573  25.272  0.00  0.00    +0.084 C 
BRANCH  11  12
ATOM     12  C   UNL     1      -5.083   3.261  25.684  0.00  0.00    -0.003 C 
ATOM     15  C   UNL     1      -5.686   2.106  24.880  0.00  0.00    +0.008 C 
ATOM     16  C   UNL     1      -5.949   4.512  25.515  0.00  0.00    +0.008 C 
ENDBRANCH  11  12
ENDBRANCH   3  11
ENDBRANCH   5   3
TORSDOF 6
ENDMDL
MODEL 6
REMARK VINA RESULT:      -6.1      2.500      4.181
REMARK  Name = 71693834
REMARK  8 active torsions:
REMARK  status: ('A' for Active; 'I' for Inactive)
REMARK    1  A    between atoms: O_1  and  C_7
REMARK    2  A    between atoms: O_2  and  C_9
REMARK    3  A    between atoms: N_3  and  C_5
REMARK    4  A    between atoms: N_3  and  C_11
REMARK    5  A    between atoms: C_6  and  C_10
REMARK    6  A    between atoms: C_11  and  C_12
REMARK    7  A    between atoms: C_12  and  C_15
REMARK    8  A    between atoms: C_12  and  C_16
REMARK                            x       y       z     vdW  Elec       q    Type
REMARK                         _______ _______ _______ _____ _____    ______ ____
ROOT
ATOM      5  C   UNL     1      -1.776  -0.455  24.649  0.00  0.00    +0.092 C 
ATOM      6  C   UNL     1      -2.881   0.237  25.477  0.00  0.00    +0.042 C 
ATOM      7  C   UNL     1      -1.987  -1.937  24.956  0.00  0.00    +0.160 C 
ATOM      8  C   UNL     1      -4.002  -0.825  25.642  0.00  0.00    +0.043 C 
ATOM      9  C   UNL     1      -3.506  -2.075  24.912  0.00  0.00    +0.145 C 
ENDROOT
BRANCH   6  10
ATOM      4  N   UNL     1      -4.162   3.797  25.202  0.00  0.00    -0.263 NA
ATOM     10  C   UNL     1      -3.350   1.544  24.874  0.00  0.00    -0.025 A 
ATOM     13  C   UNL     1      -3.408   1.715  23.495  0.00  0.00    +0.007 A 
ATOM     14  C   UNL     1      -3.734   2.605  25.676  0.00  0.00    +0.114 A 
ATOM     17  C   UNL     1      -3.844   2.927  22.969  0.00  0.00    +0.020 A 
ATOM     18  C   UNL     1      -4.206   3.927  23.857  0.00  0.00    +0.111 A 
ENDBRANCH   6  10
BRANCH   7   1
ATOM      1  O   UNL     1      -1.350  -2.764  24.000  0.00  0.00    -0.388 OA
ATOM     20  H   UNL     1      -1.591  -3.684  24.205  0.00  0.00    +0.210 HD
ENDBRANCH   7   1
BRANCH   9   2
ATOM      2  O   UNL     1      -3.963  -2.051  23.563  0.00  0.00    -0.389 OA
ATOM     21  H   UNL     1      -3.943  -2.966  23.233  0.00  0.00    +0.210 HD
ENDBRANCH   9   2
BRANCH   5   3
ATOM      3  N   UNL     1      -0.441  -0.008  25.033  0.00  0.00    -0.310 NA
ATOM     19  H   UNL     1      -0.461   0.364  25.982  0.00  0.00    +0.122 HD
BRANCH   3  11
ATOM     11  C   UNL     1       0.036   1.034  24.134  0.00  0.00    +0.084 C 
BRANCH  11  12
ATOM     12  C   UNL     1       0.345   2.348  24.871  0.00  0.00    -0.003 C 
ATOM     15  C   UNL     1      -0.033   2.293  26.354  0.00  0.00    +0.008 C 
ATOM     16  C   UNL     1      -0.393   3.507  24.195  0.00  0.00    +0.008 C 
ENDBRANCH  11  12
ENDBRANCH   3  11
ENDBRANCH   5   3
TORSDOF 6
ENDMDL
MODEL 7
REMARK VINA RESULT:      -6.0      2.066      4.441
REMARK  Name = 71693834
REMARK  8 active torsions:
REMARK  status: ('A' for Active; 'I' for Inactive)
REMARK    1  A    between atoms: O_1  and  C_7
REMARK    2  A    between atoms: O_2  and  C_9
REMARK    3  A    between atoms: N_3  and  C_5
REMARK    4  A    between atoms: N_3  and  C_11
REMARK    5  A    between atoms: C_6  and  C_10
REMARK    6  A    between atoms: C_11  and  C_12
REMARK    7  A    between atoms: C_12  and  C_15
REMARK    8  A    between atoms: C_12  and  C_16
REMARK                            x       y       z     vdW  Elec       q    Type
REMARK                         _______ _______ _______ _____ _____    ______ ____
ROOT
ATOM      5  C   UNL     1      -2.687   2.381  24.247  0.00  0.00    +0.092 C 
ATOM      6  C   UNL     1      -1.586   1.810  25.167  0.00  0.00    +0.042 C 
ATOM      7  C   UNL     1      -3.298   3.501  25.089  0.00  0.00    +0.160 C 
ATOM      8  C   UNL     1      -1.190   2.976  26.113  0.00  0.00    +0.043 C 
ATOM      9  C   UNL     1      -2.069   4.161  25.708  0.00  0.00    +0.145 C 
ENDROOT
BRANCH   6  10
ATOM      4  N   UNL     1       1.808   1.455  23.509  0.00  0.00    -0.263 NA
ATOM     10  C   UNL     1      -0.423   1.208  24.405  0.00  0.00    -0.025 A 
ATOM     13  C   UNL     1      -0.489  -0.088  23.906  0.00  0.00    +0.007 A 
ATOM     14  C   UNL     1       0.736   1.932  24.182  0.00  0.00    +0.114 A 
ATOM     17  C   UNL     1       0.593  -0.613  23.208  0.00  0.00    +0.020 A 
ATOM     18  C   UNL     1       1.708   0.192  23.039  0.00  0.00    +0.111 A 
ENDBRANCH   6  10
BRANCH   7   1
ATOM      1  O   UNL     1      -4.042   4.405  24.293  0.00  0.00    -0.388 OA
ATOM     20  H   UNL     1      -3.848   5.302  24.614  0.00  0.00    +0.210 HD
ENDBRANCH   7   1
BRANCH   9   2
ATOM      2  O   UNL     1      -1.389   4.947  24.735  0.00  0.00    -0.389 OA
ATOM     21  H   UNL     1      -0.600   5.322  25.163  0.00  0.00    +0.210 HD
ENDBRANCH   9   2
BRANCH   5   3
ATOM      3  N   UNL     1      -3.679   1.374  23.887  0.00  0.00    -0.310 NA
ATOM     19  H   UNL     1      -4.403   1.795  23.304  0.00  0.00    +0.122 HD
BRANCH   3  11
ATOM     11  C   UNL     1      -4.306   0.815  25.077  0.00  0.00    +0.084 C 
BRANCH  11  12
ATOM     12  C   UNL     1      -4.267  -0.723  25.094  0.00  0.00    -0.003 C 
ATOM     15  C   UNL     1      -3.214  -1.273  26.058  0.00  0.00    +0.008 C 
ATOM     16  C   UNL     1      -3.996  -1.249  23.681  0.00  0.00    +0.008 C 
ENDBRANCH  11  12
ENDBRANCH   3  11
ENDBRANCH   5   3
TORSDOF 6
ENDMDL
MODEL 8
REMARK VINA RESULT:      -5.4      2.391      4.338
REMARK  Name = 71693834
REMARK  8 active torsions:
REMARK  status: ('A' for Active; 'I' for Inactive)
REMARK    1  A    between atoms: O_1  and  C_7
REMARK    2  A    between atoms: O_2  and  C_9
REMARK    3  A    between atoms: N_3  and  C_5
REMARK    4  A    between atoms: N_3  and  C_11
REMARK    5  A    between atoms: C_6  and  C_10
REMARK    6  A    between atoms: C_11  and  C_12
REMARK    7  A    between atoms: C_12  and  C_15
REMARK    8  A    between atoms: C_12  and  C_16
REMARK                            x       y       z     vdW  Elec       q    Type
REMARK                         _______ _______ _______ _____ _____    ______ ____
ROOT
ATOM      5  C   UNL     1      -2.685  -0.052  24.690  0.00  0.00    +0.092 C 
ATOM      6  C   UNL     1      -1.528   0.644  23.941  0.00  0.00    +0.042 C 
ATOM      7  C   UNL     1      -2.285  -1.527  24.656  0.00  0.00    +0.160 C 
ATOM      8  C   UNL     1      -0.299  -0.289  24.118  0.00  0.00    +0.043 C 
ATOM      9  C   UNL     1      -0.789  -1.474  24.952  0.00  0.00    +0.145 C 
ENDROOT
BRANCH   6  10
ATOM      4  N   UNL     1      -0.237   4.211  24.017  0.00  0.00    -0.263 NA
ATOM     10  C   UNL     1      -1.294   2.070  24.395  0.00  0.00    -0.025 A 
ATOM     13  C   UNL     1      -1.884   2.556  25.556  0.00  0.00    +0.007 A 
ATOM     14  C   UNL     1      -0.487   2.929  23.667  0.00  0.00    +0.114 A 
ATOM     17  C   UNL     1      -1.650   3.870  25.949  0.00  0.00    +0.020 A 
ATOM     18  C   UNL     1      -0.827   4.649  25.152  0.00  0.00    +0.111 A 
ENDBRANCH   6  10
BRANCH   7   1
ATOM      1  O   UNL     1      -2.991  -2.281  25.623  0.00  0.00    -0.388 OA
ATOM     20  H   UNL     1      -2.776  -1.910  26.495  0.00  0.00    +0.210 HD
ENDBRANCH   7   1
BRANCH   9   2
ATOM      2  O   UNL     1      -0.570  -1.207  26.333  0.00  0.00    -0.389 OA
ATOM     21  H   UNL     1      -0.791  -2.016  26.825  0.00  0.00    +0.210 HD
ENDBRANCH   9   2
BRANCH   5   3
ATOM      3  N   UNL     1      -3.973   0.174  24.043  0.00  0.00    -0.310 NA
ATOM     19  H   UNL     1      -3.872   0.872  23.306  0.00  0.00    +0.122 HD
BRANCH   3  11
ATOM     11  C   UNL     1      -4.960   0.649  25.003  0.00  0.00    +0.084 C 
BRANCH  11  12
ATOM     12  C   UNL     1      -5.454   2.070  24.682  0.00  0.00    -0.003 C 
ATOM     15  C   UNL     1      -4.552   2.793  23.678  0.00  0.00    +0.008 C 
ATOM     16  C   UNL     1      -5.545   2.889  25.973  0.00  0.00    +0.008 C 
ENDBRANCH  11  12
ENDBRANCH   3  11
ENDBRANCH   5   3
TORSDOF 6
ENDMDL
MODEL 9
REMARK VINA RESULT:      -5.3      2.843      4.513
REMARK  Name = 71693834
REMARK  8 active torsions:
REMARK  status: ('A' for Active; 'I' for Inactive)
REMARK    1  A    between atoms: O_1  and  C_7
REMARK    2  A    between atoms: O_2  and  C_9
REMARK    3  A    between atoms: N_3  and  C_5
REMARK    4  A    between atoms: N_3  and  C_11
REMARK    5  A    between atoms: C_6  and  C_10
REMARK    6  A    between atoms: C_11  and  C_12
REMARK    7  A    between atoms: C_12  and  C_15
REMARK    8  A    between atoms: C_12  and  C_16
REMARK                            x       y       z     vdW  Elec       q    Type
REMARK                         _______ _______ _______ _____ _____    ______ ____
ROOT
ATOM      5  C   UNL     1      -1.460  -0.711  24.507  0.00  0.00    +0.092 C 
ATOM      6  C   UNL     1      -2.326   0.019  25.558  0.00  0.00    +0.042 C 
ATOM      7  C   UNL     1      -1.768  -2.186  24.766  0.00  0.00    +0.160 C 
ATOM      8  C   UNL     1      -3.505  -0.943  25.865  0.00  0.00    +0.043 C 
ATOM      9  C   UNL     1      -3.278  -2.177  24.990  0.00  0.00    +0.145 C 
ENDROOT
BRANCH   6  10
ATOM      4  N   UNL     1      -4.364   2.808  23.992  0.00  0.00    -0.263 NA
ATOM     10  C   UNL     1      -2.753   1.405  25.122  0.00  0.00    -0.025 A 
ATOM     13  C   UNL     1      -1.979   2.520  25.422  0.00  0.00    +0.007 A 
ATOM     14  C   UNL     1      -3.926   1.600  24.412  0.00  0.00    +0.114 A 
ATOM     17  C   UNL     1      -2.396   3.780  25.006  0.00  0.00    +0.020 A 
ATOM     18  C   UNL     1      -3.585   3.870  24.302  0.00  0.00    +0.111 A 
ENDBRANCH   6  10
BRANCH   7   1
ATOM      1  O   UNL     1      -1.398  -2.997  23.666  0.00  0.00    -0.388 OA
ATOM     20  H   UNL     1      -1.737  -2.568  22.862  0.00  0.00    +0.210 HD
ENDBRANCH   7   1
BRANCH   9   2
ATOM      2  O   UNL     1      -3.958  -2.014  23.750  0.00  0.00    -0.389 OA
ATOM     21  H   UNL     1      -4.189  -1.073  23.666  0.00  0.00    +0.210 HD
ENDBRANCH   9   2
BRANCH   5   3
ATOM      3  N   UNL     1      -0.040  -0.419  24.666  0.00  0.00    -0.310 NA
ATOM     19  H   UNL     1       0.115   0.073  25.546  0.00  0.00    +0.122 HD
BRANCH   3  11
ATOM     11  C   UNL     1       0.444   0.414  23.575  0.00  0.00    +0.084 C 
BRANCH  11  12
ATOM     12  C   UNL     1       1.658  -0.204  22.858  0.00  0.00    -0.003 C 
ATOM     15  C   UNL     1       2.883   0.714  22.881  0.00  0.00    +0.008 C 
ATOM     16  C   UNL     1       1.289  -0.534  21.409  0.00  0.00    +0.008 C 
ENDBRANCH  11  12
ENDBRANCH   3  11
ENDBRANCH   5   3
TORSDOF 6
ENDMDL
MODEL 10
REMARK VINA RESULT:      -4.5     16.015     18.704
REMARK  Name = 71693834
REMARK  8 active torsions:
REMARK  status: ('A' for Active; 'I' for Inactive)
REMARK    1  A    between atoms: O_1  and  C_7
REMARK    2  A    between atoms: O_2  and  C_9
REMARK    3  A    between atoms: N_3  and  C_5
REMARK    4  A    between atoms: N_3  and  C_11
REMARK    5  A    between atoms: C_6  and  C_10
REMARK    6  A    between atoms: C_11  and  C_12
REMARK    7  A    between atoms: C_12  and  C_15
REMARK    8  A    between atoms: C_12  and  C_16
REMARK                            x       y       z     vdW  Elec       q    Type
REMARK                         _______ _______ _______ _____ _____    ______ ____
ROOT
ATOM      5  C   UNL     1      14.330   8.251  20.678  0.00  0.00    +0.092 C 
ATOM      6  C   UNL     1      14.118   7.230  19.538  0.00  0.00    +0.042 C 
ATOM      7  C   UNL     1      15.431   7.608  21.521  0.00  0.00    +0.160 C 
ATOM      8  C   UNL     1      15.465   6.470  19.406  0.00  0.00    +0.043 C 
ATOM      9  C   UNL     1      16.392   7.074  20.463  0.00  0.00    +0.145 C 
ENDROOT
BRANCH   6  10
ATOM      4  N   UNL     1      14.028   8.360  15.918  0.00  0.00    -0.263 NA
ATOM     10  C   UNL     1      13.635   7.865  18.251  0.00  0.00    -0.025 A 
ATOM     13  C   UNL     1      12.408   8.517  18.191  0.00  0.00    +0.007 A 
ATOM     14  C   UNL     1      14.400   7.814  17.098  0.00  0.00    +0.114 A 
ATOM     17  C   UNL     1      11.992   9.092  16.995  0.00  0.00    +0.020 A 
ATOM     18  C   UNL     1      12.830   8.986  15.898  0.00  0.00    +0.111 A 
ENDBRANCH   6  10
BRANCH   7   1
ATOM      1  O   UNL     1      16.051   8.550  22.376  0.00  0.00    -0.388 OA
ATOM     20  H   UNL     1      15.348   9.094  22.768  0.00  0.00    +0.210 HD
ENDBRANCH   7   1
BRANCH   9   2
ATOM      2  O   UNL     1      17.136   8.144  19.889  0.00  0.00    -0.389 OA
ATOM     21  H   UNL     1      17.394   8.740  20.613  0.00  0.00    +0.210 HD
ENDBRANCH   9   2
BRANCH   5   3
ATOM      3  N   UNL     1      13.114   8.469  21.454  0.00  0.00    -0.310 NA
ATOM     19  H   UNL     1      13.306   9.107  22.226  0.00  0.00    +0.122 HD
BRANCH   3  11
ATOM     11  C   UNL     1      12.615   7.214  22.000  0.00  0.00    +0.084 C 
BRANCH  11  12
ATOM     12  C   UNL     1      11.242   6.828  21.423  0.00  0.00    -0.003 C 
ATOM     15  C   UNL     1      10.094   7.615  22.061  0.00  0.00    +0.008 C 
ATOM     16  C   UNL     1      11.004   5.327  21.615  0.00  0.00    +0.008 C 
ENDBRANCH  11  12
ENDBRANCH   3  11
ENDBRANCH   5   3
TORSDOF 6
ENDMDL
