MODEL 1
REMARK VINA RESULT:      -1.8      0.000      0.000
REMARK  Name = 25389311
REMARK  6 active torsions:
REMARK  status: ('A' for Active; 'I' for Inactive)
REMARK    1  A    between atoms: N_6  and  C_15
REMARK    2  A    between atoms: N_7  and  C_16
REMARK    3  A    between atoms: C_9  and  C_15
REMARK    4  A    between atoms: C_10  and  C_16
REMARK    5  A    between atoms: C_22  and  C_23
REMARK    6  A    between atoms: C_28  and  C_29
REMARK                            x       y       z     vdW  Elec       q    Type
REMARK                         _______ _______ _______ _____ _____    ______ ____
ROOT
ATOM      5  N   UNL     1      -1.688   2.793  24.526  0.00  0.00    -0.298 NA
ATOM      8  C   UNL     1      -4.239   3.299  24.584  0.00  0.00    -0.003 C 
ATOM      9  C   UNL     1      -3.870   2.202  25.608  0.00  0.00    +0.020 C 
ATOM     10  C   UNL     1      -2.255   2.707  23.153  0.00  0.00    +0.074 C 
ATOM     11  C   UNL     1      -3.794   2.855  23.178  0.00  0.00    +0.024 C 
ATOM     12  C   UNL     1      -2.378   1.841  25.429  0.00  0.00    +0.089 C 
ATOM     13  C   UNL     1      -3.414   4.548  24.949  0.00  0.00    +0.019 C 
ATOM     14  C   UNL     1      -1.926   4.168  25.032  0.00  0.00    +0.085 C 
ENDROOT
BRANCH   9  15
ATOM     15  C   UNL     1      -4.762   0.967  25.515  0.00  0.00    +0.089 C 
BRANCH  15   6
ATOM      6  N   UNL     1      -4.005  -0.189  25.035  0.00  0.00    -0.302 NA
ATOM     17  C   UNL     1      -4.749  -0.889  23.979  0.00  0.00    +0.084 C 
ATOM     18  C   UNL     1      -3.687  -1.094  26.149  0.00  0.00    +0.084 C 
ATOM     19  C   UNL     1      -3.951  -2.072  23.430  0.00  0.00    +0.015 C 
ATOM     20  C   UNL     1      -2.853  -2.284  25.672  0.00  0.00    +0.015 C 
ATOM     21  C   UNL     1      -3.551  -3.034  24.543  0.00  0.00    +0.002 C 
ENDBRANCH  15   6
ENDBRANCH   9  15
BRANCH  10  16
ATOM     16  C   UNL     1      -1.819   1.436  22.420  0.00  0.00    +0.123 C 
BRANCH  16   7
ATOM      4  O   UNL     1      -0.518  -0.819  23.630  0.00  0.00    -0.270 OA
ATOM      7  N   UNL     1      -0.387   1.230  22.553  0.00  0.00    -0.310 N 
ATOM     22  C   UNL     1       0.140   0.104  23.155  0.00  0.00    +0.244 C 
ATOM     30  H   UNL     1       0.216   1.930  22.134  0.00  0.00    +0.149 HD
BRANCH  22  23
ATOM     23  C   UNL     1       1.622   0.055  23.237  0.00  0.00    +0.037 A 
ATOM     24  C   UNL     1       2.264  -1.136  23.578  0.00  0.00    +0.013 A 
ATOM     25  C   UNL     1       2.373   1.201  22.972  0.00  0.00    +0.013 A 
ATOM     26  C   UNL     1       3.656  -1.180  23.655  0.00  0.00    +0.013 A 
ATOM     27  C   UNL     1       3.765   1.156  23.050  0.00  0.00    +0.013 A 
ATOM     28  C   UNL     1       4.407  -0.034  23.391  0.00  0.00    +0.055 A 
BRANCH  28  29
ATOM      1  F   UNL     1       6.494  -0.487  22.315  0.00  0.00    -0.166 F 
ATOM      2  F   UNL     1       6.340  -0.944  24.435  0.00  0.00    -0.166 F 
ATOM      3  F   UNL     1       6.466   1.122  23.769  0.00  0.00    -0.166 F 
ATOM     29  C   UNL     1       5.895  -0.083  23.474  0.00  0.00    +0.417 C 
ENDBRANCH  28  29
ENDBRANCH  22  23
ENDBRANCH  16   7
ENDBRANCH  10  16
TORSDOF 6
ENDMDL
MODEL 2
REMARK VINA RESULT:      -0.5      2.134      3.236
REMARK  Name = 25389311
REMARK  6 active torsions:
REMARK  status: ('A' for Active; 'I' for Inactive)
REMARK    1  A    between atoms: N_6  and  C_15
REMARK    2  A    between atoms: N_7  and  C_16
REMARK    3  A    between atoms: C_9  and  C_15
REMARK    4  A    between atoms: C_10  and  C_16
REMARK    5  A    between atoms: C_22  and  C_23
REMARK    6  A    between atoms: C_28  and  C_29
REMARK                            x       y       z     vdW  Elec       q    Type
REMARK                         _______ _______ _______ _____ _____    ______ ____
ROOT
ATOM      5  N   UNL     1      -4.754   2.721  26.427  0.00  0.00    -0.298 NA
ATOM      8  C   UNL     1      -5.344   2.171  23.953  0.00  0.00    -0.003 C 
ATOM      9  C   UNL     1      -4.489   1.047  24.581  0.00  0.00    +0.020 C 
ATOM     10  C   UNL     1      -4.386   3.865  25.549  0.00  0.00    +0.074 C 
ATOM     11  C   UNL     1      -4.586   3.508  24.058  0.00  0.00    +0.024 C 
ATOM     12  C   UNL     1      -4.049   1.492  25.994  0.00  0.00    +0.089 C 
ATOM     13  C   UNL     1      -6.615   2.299  24.814  0.00  0.00    +0.019 C 
ATOM     14  C   UNL     1      -6.214   2.491  26.287  0.00  0.00    +0.085 C 
ENDROOT
BRANCH   9  15
ATOM     15  C   UNL     1      -3.292   0.648  23.719  0.00  0.00    +0.089 C 
BRANCH  15   6
ATOM      6  N   UNL     1      -3.120  -0.804  23.705  0.00  0.00    -0.302 NA
ATOM     17  C   UNL     1      -4.420  -1.478  23.835  0.00  0.00    +0.084 C 
ATOM     18  C   UNL     1      -2.197  -1.223  24.769  0.00  0.00    +0.084 C 
ATOM     19  C   UNL     1      -4.264  -2.998  23.773  0.00  0.00    +0.015 C 
ATOM     20  C   UNL     1      -1.967  -2.734  24.737  0.00  0.00    +0.015 C 
ATOM     21  C   UNL     1      -3.284  -3.498  24.828  0.00  0.00    +0.002 C 
ENDBRANCH  15   6
ENDBRANCH   9  15
BRANCH  10  16
ATOM     16  C   UNL     1      -2.971   4.380  25.824  0.00  0.00    +0.123 C 
BRANCH  16   7
ATOM      4  O   UNL     1      -0.900   2.752  26.965  0.00  0.00    -0.270 OA
ATOM      7  N   UNL     1      -1.987   3.595  25.099  0.00  0.00    -0.310 N 
ATOM     22  C   UNL     1      -1.026   2.842  25.746  0.00  0.00    +0.244 C 
ATOM     30  H   UNL     1      -2.068   3.583  24.088  0.00  0.00    +0.149 HD
BRANCH  22  23
ATOM     23  C   UNL     1      -0.077   2.118  24.863  0.00  0.00    +0.037 A 
ATOM     24  C   UNL     1       0.876   2.826  24.131  0.00  0.00    +0.013 A 
ATOM     25  C   UNL     1      -0.140   0.727  24.765  0.00  0.00    +0.013 A 
ATOM     26  C   UNL     1       1.766   2.145  23.301  0.00  0.00    +0.013 A 
ATOM     27  C   UNL     1       0.751   0.046  23.934  0.00  0.00    +0.013 A 
ATOM     28  C   UNL     1       1.704   0.755  23.203  0.00  0.00    +0.055 A 
BRANCH  28  29
ATOM      1  F   UNL     1       3.722   0.783  21.921  0.00  0.00    -0.166 F 
ATOM      2  F   UNL     1       2.070  -0.409  21.162  0.00  0.00    -0.166 F 
ATOM      3  F   UNL     1       3.200  -1.085  22.892  0.00  0.00    -0.166 F 
ATOM     29  C   UNL     1       2.656   0.027  22.315  0.00  0.00    +0.417 C 
ENDBRANCH  28  29
ENDBRANCH  22  23
ENDBRANCH  16   7
ENDBRANCH  10  16
TORSDOF 6
ENDMDL
MODEL 3
REMARK VINA RESULT:      -0.3      1.297      3.872
REMARK  Name = 25389311
REMARK  6 active torsions:
REMARK  status: ('A' for Active; 'I' for Inactive)
REMARK    1  A    between atoms: N_6  and  C_15
REMARK    2  A    between atoms: N_7  and  C_16
REMARK    3  A    between atoms: C_9  and  C_15
REMARK    4  A    between atoms: C_10  and  C_16
REMARK    5  A    between atoms: C_22  and  C_23
REMARK    6  A    between atoms: C_28  and  C_29
REMARK                            x       y       z     vdW  Elec       q    Type
REMARK                         _______ _______ _______ _____ _____    ______ ____
ROOT
ATOM      5  N   UNL     1      -2.919  -1.495  23.870  0.00  0.00    -0.298 NA
ATOM      8  C   UNL     1      -3.646  -0.300  26.064  0.00  0.00    -0.003 C 
ATOM      9  C   UNL     1      -4.643  -0.008  24.919  0.00  0.00    +0.020 C 
ATOM     10  C   UNL     1      -1.786  -0.700  24.416  0.00  0.00    +0.074 C 
ATOM     11  C   UNL     1      -2.233   0.140  25.635  0.00  0.00    +0.024 C 
ATOM     12  C   UNL     1      -4.087  -0.619  23.613  0.00  0.00    +0.089 C 
ATOM     13  C   UNL     1      -3.611  -1.829  26.247  0.00  0.00    +0.019 C 
ATOM     14  C   UNL     1      -3.307  -2.496  24.894  0.00  0.00    +0.085 C 
ENDROOT
BRANCH   9  15
ATOM     15  C   UNL     1      -4.954   1.478  24.757  0.00  0.00    +0.089 C 
BRANCH  15   6
ATOM      6  N   UNL     1      -3.799   2.297  25.123  0.00  0.00    -0.302 NA
ATOM     17  C   UNL     1      -4.207   3.392  26.015  0.00  0.00    +0.084 C 
ATOM     18  C   UNL     1      -3.132   2.813  23.919  0.00  0.00    +0.084 C 
ATOM     19  C   UNL     1      -3.004   4.230  26.448  0.00  0.00    +0.015 C 
ATOM     20  C   UNL     1      -1.893   3.632  24.284  0.00  0.00    +0.015 C 
ATOM     21  C   UNL     1      -2.239   4.766  25.243  0.00  0.00    +0.002 C 
ENDBRANCH  15   6
ENDBRANCH   9  15
BRANCH  10  16
ATOM     16  C   UNL     1      -1.113   0.166  23.348  0.00  0.00    +0.123 C 
BRANCH  16   7
ATOM      4  O   UNL     1       0.824  -0.544  21.350  0.00  0.00    -0.270 OA
ATOM      7  N   UNL     1       0.332   0.150  23.507  0.00  0.00    -0.310 N 
ATOM     22  C   UNL     1       1.180  -0.209  22.477  0.00  0.00    +0.244 C 
ATOM     30  H   UNL     1       0.696   0.467  24.398  0.00  0.00    +0.149 HD
BRANCH  22  23
ATOM     23  C   UNL     1       2.628  -0.199  22.807  0.00  0.00    +0.037 A 
ATOM     24  C   UNL     1       3.408   0.914  22.496  0.00  0.00    +0.013 A 
ATOM     25  C   UNL     1       3.208  -1.306  23.428  0.00  0.00    +0.013 A 
ATOM     26  C   UNL     1       4.768   0.922  22.805  0.00  0.00    +0.013 A 
ATOM     27  C   UNL     1       4.569  -1.298  23.737  0.00  0.00    +0.013 A 
ATOM     28  C   UNL     1       5.349  -0.185  23.426  0.00  0.00    +0.055 A 
BRANCH  28  29
ATOM      1  F   UNL     1       7.271   1.052  24.129  0.00  0.00    -0.166 F 
ATOM      2  F   UNL     1       7.583  -0.561  22.705  0.00  0.00    -0.166 F 
ATOM      3  F   UNL     1       7.135  -1.012  24.784  0.00  0.00    -0.166 F 
ATOM     29  C   UNL     1       6.803  -0.176  23.757  0.00  0.00    +0.417 C 
ENDBRANCH  28  29
ENDBRANCH  22  23
ENDBRANCH  16   7
ENDBRANCH  10  16
TORSDOF 6
ENDMDL
MODEL 4
REMARK VINA RESULT:       0.6      3.872      6.005
REMARK  Name = 25389311
REMARK  6 active torsions:
REMARK  status: ('A' for Active; 'I' for Inactive)
REMARK    1  A    between atoms: N_6  and  C_15
REMARK    2  A    between atoms: N_7  and  C_16
REMARK    3  A    between atoms: C_9  and  C_15
REMARK    4  A    between atoms: C_10  and  C_16
REMARK    5  A    between atoms: C_22  and  C_23
REMARK    6  A    between atoms: C_28  and  C_29
REMARK                            x       y       z     vdW  Elec       q    Type
REMARK                         _______ _______ _______ _____ _____    ______ ____
ROOT
ATOM      5  N   UNL     1      -1.935  -2.476  23.702  0.00  0.00    -0.298 NA
ATOM      8  C   UNL     1      -3.975  -2.536  25.315  0.00  0.00    -0.003 C 
ATOM      9  C   UNL     1      -3.897  -1.182  24.574  0.00  0.00    +0.020 C 
ATOM     10  C   UNL     1      -1.495  -2.879  25.065  0.00  0.00    +0.074 C 
ATOM     11  C   UNL     1      -2.659  -2.778  26.077  0.00  0.00    +0.024 C 
ATOM     12  C   UNL     1      -2.594  -1.148  23.745  0.00  0.00    +0.089 C 
ATOM     13  C   UNL     1      -4.085  -3.631  24.237  0.00  0.00    +0.019 C 
ATOM     14  C   UNL     1      -2.931  -3.471  23.232  0.00  0.00    +0.085 C 
ENDROOT
BRANCH   9  15
ATOM     15  C   UNL     1      -4.001   0.022  25.507  0.00  0.00    +0.089 C 
BRANCH  15   6
ATOM      6  N   UNL     1      -4.449   1.209  24.780  0.00  0.00    -0.302 NA
ATOM     17  C   UNL     1      -3.461   1.591  23.761  0.00  0.00    +0.084 C 
ATOM     18  C   UNL     1      -4.706   2.317  25.712  0.00  0.00    +0.084 C 
ATOM     19  C   UNL     1      -3.937   2.802  22.957  0.00  0.00    +0.015 C 
ATOM     20  C   UNL     1      -5.222   3.551  24.972  0.00  0.00    +0.015 C 
ATOM     21  C   UNL     1      -4.261   3.980  23.869  0.00  0.00    +0.002 C 
ENDBRANCH  15   6
ENDBRANCH   9  15
BRANCH  10  16
ATOM     16  C   UNL     1      -0.264  -2.099  25.535  0.00  0.00    +0.123 C 
BRANCH  16   7
ATOM      4  O   UNL     1       0.788  -0.228  23.629  0.00  0.00    -0.270 OA
ATOM      7  N   UNL     1      -0.515  -0.668  25.495  0.00  0.00    -0.310 N 
ATOM     22  C   UNL     1       0.043   0.149  24.531  0.00  0.00    +0.244 C 
ATOM     30  H   UNL     1      -1.164  -0.300  26.181  0.00  0.00    +0.149 HD
BRANCH  22  23
ATOM     23  C   UNL     1      -0.289   1.591  24.643  0.00  0.00    +0.037 A 
ATOM     24  C   UNL     1      -0.847   2.091  25.820  0.00  0.00    +0.013 A 
ATOM     25  C   UNL     1      -0.043   2.448  23.569  0.00  0.00    +0.013 A 
ATOM     26  C   UNL     1      -1.159   3.446  25.923  0.00  0.00    +0.013 A 
ATOM     27  C   UNL     1      -0.356   3.804  23.673  0.00  0.00    +0.013 A 
ATOM     28  C   UNL     1      -0.914   4.303  24.850  0.00  0.00    +0.055 A 
BRANCH  28  29
ATOM      1  F   UNL     1      -0.160   6.550  25.171  0.00  0.00    -0.166 F 
ATOM      2  F   UNL     1      -2.100   6.016  25.994  0.00  0.00    -0.166 F 
ATOM      3  F   UNL     1      -1.854   6.261  23.848  0.00  0.00    -0.166 F 
ATOM     29  C   UNL     1      -1.248   5.752  24.961  0.00  0.00    +0.417 C 
ENDBRANCH  28  29
ENDBRANCH  22  23
ENDBRANCH  16   7
ENDBRANCH  10  16
TORSDOF 6
ENDMDL
MODEL 5
REMARK VINA RESULT:       1.2      3.663      6.223
REMARK  Name = 25389311
REMARK  6 active torsions:
REMARK  status: ('A' for Active; 'I' for Inactive)
REMARK    1  A    between atoms: N_6  and  C_15
REMARK    2  A    between atoms: N_7  and  C_16
REMARK    3  A    between atoms: C_9  and  C_15
REMARK    4  A    between atoms: C_10  and  C_16
REMARK    5  A    between atoms: C_22  and  C_23
REMARK    6  A    between atoms: C_28  and  C_29
REMARK                            x       y       z     vdW  Elec       q    Type
REMARK                         _______ _______ _______ _____ _____    ______ ____
ROOT
ATOM      5  N   UNL     1      -3.136   4.851  23.741  0.00  0.00    -0.298 NA
ATOM      8  C   UNL     1      -1.647   4.670  25.867  0.00  0.00    -0.003 C 
ATOM      9  C   UNL     1      -1.366   3.502  24.895  0.00  0.00    +0.020 C 
ATOM     10  C   UNL     1      -3.981   4.933  24.963  0.00  0.00    +0.074 C 
ATOM     11  C   UNL     1      -3.143   4.678  26.236  0.00  0.00    +0.024 C 
ATOM     12  C   UNL     1      -2.374   3.579  23.726  0.00  0.00    +0.089 C 
ATOM     13  C   UNL     1      -1.361   5.973  25.096  0.00  0.00    +0.019 C 
ATOM     14  C   UNL     1      -2.164   5.971  23.783  0.00  0.00    +0.085 C 
ENDROOT
BRANCH   9  15
ATOM     15  C   UNL     1      -1.396   2.134  25.573  0.00  0.00    +0.089 C 
BRANCH  15   6
ATOM      6  N   UNL     1      -0.373   1.251  25.013  0.00  0.00    -0.302 NA
ATOM     17  C   UNL     1       0.535   2.006  24.138  0.00  0.00    +0.084 C 
ATOM     18  C   UNL     1      -0.999   0.134  24.291  0.00  0.00    +0.084 C 
ATOM     19  C   UNL     1       1.641   1.108  23.582  0.00  0.00    +0.015 C 
ATOM     20  C   UNL     1       0.057  -0.826  23.740  0.00  0.00    +0.015 C 
ATOM     21  C   UNL     1       1.060  -0.099  22.852  0.00  0.00    +0.002 C 
ENDBRANCH  15   6
ENDBRANCH   9  15
BRANCH  10  16
ATOM     16  C   UNL     1      -5.200   4.011  24.892  0.00  0.00    +0.123 C 
BRANCH  16   7
ATOM      4  O   UNL     1      -5.894   1.775  26.555  0.00  0.00    -0.270 OA
ATOM      7  N   UNL     1      -4.791   2.629  24.703  0.00  0.00    -0.310 N 
ATOM     22  C   UNL     1      -5.182   1.623  25.566  0.00  0.00    +0.244 C 
ATOM     30  H   UNL     1      -4.245   2.425  23.874  0.00  0.00    +0.149 HD
BRANCH  22  23
ATOM     23  C   UNL     1      -4.658   0.270  25.250  0.00  0.00    +0.037 A 
ATOM     24  C   UNL     1      -3.988  -0.466  26.228  0.00  0.00    +0.013 A 
ATOM     25  C   UNL     1      -4.837  -0.266  23.974  0.00  0.00    +0.013 A 
ATOM     26  C   UNL     1      -3.496  -1.736  25.930  0.00  0.00    +0.013 A 
ATOM     27  C   UNL     1      -4.345  -1.538  23.676  0.00  0.00    +0.013 A 
ATOM     28  C   UNL     1      -3.674  -2.272  24.654  0.00  0.00    +0.055 A 
BRANCH  28  29
ATOM      1  F   UNL     1      -3.809  -4.248  23.314  0.00  0.00    -0.166 F 
ATOM      2  F   UNL     1      -3.232  -4.488  25.396  0.00  0.00    -0.166 F 
ATOM      3  F   UNL     1      -1.834  -3.636  23.966  0.00  0.00    -0.166 F 
ATOM     29  C   UNL     1      -3.148  -3.631  24.336  0.00  0.00    +0.417 C 
ENDBRANCH  28  29
ENDBRANCH  22  23
ENDBRANCH  16   7
ENDBRANCH  10  16
TORSDOF 6
ENDMDL
MODEL 6
REMARK VINA RESULT:       1.6      1.891      4.194
REMARK  Name = 25389311
REMARK  6 active torsions:
REMARK  status: ('A' for Active; 'I' for Inactive)
REMARK    1  A    between atoms: N_6  and  C_15
REMARK    2  A    between atoms: N_7  and  C_16
REMARK    3  A    between atoms: C_9  and  C_15
REMARK    4  A    between atoms: C_10  and  C_16
REMARK    5  A    between atoms: C_22  and  C_23
REMARK    6  A    between atoms: C_28  and  C_29
REMARK                            x       y       z     vdW  Elec       q    Type
REMARK                         _______ _______ _______ _____ _____    ______ ____
ROOT
ATOM      5  N   UNL     1      -4.532   1.017  24.284  0.00  0.00    -0.298 NA
ATOM      8  C   UNL     1      -5.710   2.620  25.961  0.00  0.00    -0.003 C 
ATOM      9  C   UNL     1      -4.325   3.170  25.552  0.00  0.00    +0.020 C 
ATOM     10  C   UNL     1      -4.975   0.260  25.487  0.00  0.00    +0.074 C 
ATOM     11  C   UNL     1      -5.543   1.212  26.564  0.00  0.00    +0.024 C 
ATOM     12  C   UNL     1      -3.614   2.114  24.675  0.00  0.00    +0.089 C 
ATOM     13  C   UNL     1      -6.531   2.466  24.666  0.00  0.00    +0.019 C 
ATOM     14  C   UNL     1      -5.734   1.620  23.657  0.00  0.00    +0.085 C 
ENDROOT
BRANCH   9  15
ATOM     15  C   UNL     1      -3.465   3.582  26.744  0.00  0.00    +0.089 C 
BRANCH  15   6
ATOM      6  N   UNL     1      -2.112   3.935  26.315  0.00  0.00    -0.302 NA
ATOM     17  C   UNL     1      -2.158   4.767  25.103  0.00  0.00    +0.084 C 
ATOM     18  C   UNL     1      -1.309   2.724  26.097  0.00  0.00    +0.084 C 
ATOM     19  C   UNL     1      -0.753   5.187  24.668  0.00  0.00    +0.015 C 
ATOM     20  C   UNL     1       0.124   3.077  25.694  0.00  0.00    +0.015 C 
ATOM     21  C   UNL     1       0.149   3.975  24.463  0.00  0.00    +0.002 C 
ENDBRANCH  15   6
ENDBRANCH   9  15
BRANCH  10  16
ATOM     16  C   UNL     1      -3.872  -0.639  26.049  0.00  0.00    +0.123 C 
BRANCH  16   7
ATOM      4  O   UNL     1      -2.181  -2.481  24.637  0.00  0.00    -0.270 OA
ATOM      7  N   UNL     1      -2.594  -0.340  25.425  0.00  0.00    -0.310 N 
ATOM     22  C   UNL     1      -1.855  -1.303  24.766  0.00  0.00    +0.244 C 
ATOM     30  H   UNL     1      -2.290   0.627  25.449  0.00  0.00    +0.149 HD
BRANCH  22  23
ATOM     23  C   UNL     1      -0.559  -0.844  24.205  0.00  0.00    +0.037 A 
ATOM     24  C   UNL     1      -0.498   0.335  23.462  0.00  0.00    +0.013 A 
ATOM     25  C   UNL     1       0.598  -1.593  24.421  0.00  0.00    +0.013 A 
ATOM     26  C   UNL     1       0.720   0.764  22.934  0.00  0.00    +0.013 A 
ATOM     27  C   UNL     1       1.816  -1.163  23.893  0.00  0.00    +0.013 A 
ATOM     28  C   UNL     1       1.877   0.015  23.150  0.00  0.00    +0.055 A 
BRANCH  28  29
ATOM      1  F   UNL     1       4.253  -0.234  23.040  0.00  0.00    -0.166 F 
ATOM      2  F   UNL     1       3.448   1.780  22.883  0.00  0.00    -0.166 F 
ATOM      3  F   UNL     1       3.244   0.391  21.224  0.00  0.00    -0.166 F 
ATOM     29  C   UNL     1       3.178   0.476  22.585  0.00  0.00    +0.417 C 
ENDBRANCH  28  29
ENDBRANCH  22  23
ENDBRANCH  16   7
ENDBRANCH  10  16
TORSDOF 6
ENDMDL
MODEL 7
REMARK VINA RESULT:       2.2      1.663      4.305
REMARK  Name = 25389311
REMARK  6 active torsions:
REMARK  status: ('A' for Active; 'I' for Inactive)
REMARK    1  A    between atoms: N_6  and  C_15
REMARK    2  A    between atoms: N_7  and  C_16
REMARK    3  A    between atoms: C_9  and  C_15
REMARK    4  A    between atoms: C_10  and  C_16
REMARK    5  A    between atoms: C_22  and  C_23
REMARK    6  A    between atoms: C_28  and  C_29
REMARK                            x       y       z     vdW  Elec       q    Type
REMARK                         _______ _______ _______ _____ _____    ______ ____
ROOT
ATOM      5  N   UNL     1      -4.340  -0.937  23.707  0.00  0.00    -0.298 NA
ATOM      8  C   UNL     1      -3.900   0.605  25.756  0.00  0.00    -0.003 C 
ATOM      9  C   UNL     1      -3.098   1.082  24.523  0.00  0.00    +0.020 C 
ATOM     10  C   UNL     1      -3.942  -1.755  24.885  0.00  0.00    +0.074 C 
ATOM     11  C   UNL     1      -3.529  -0.856  26.072  0.00  0.00    +0.024 C 
ATOM     12  C   UNL     1      -3.283   0.052  23.386  0.00  0.00    +0.089 C 
ATOM     13  C   UNL     1      -5.387   0.622  25.356  0.00  0.00    +0.019 C 
ATOM     14  C   UNL     1      -5.575  -0.195  24.065  0.00  0.00    +0.085 C 
ENDROOT
BRANCH   9  15
ATOM     15  C   UNL     1      -1.621   1.328  24.823  0.00  0.00    +0.089 C 
BRANCH  15   6
ATOM      6  N   UNL     1      -1.398   2.708  25.251  0.00  0.00    -0.302 NA
ATOM     17  C   UNL     1      -2.680   3.394  25.464  0.00  0.00    +0.084 C 
ATOM     18  C   UNL     1      -0.570   3.423  24.268  0.00  0.00    +0.084 C 
ATOM     19  C   UNL     1      -2.466   4.825  25.959  0.00  0.00    +0.015 C 
ATOM     20  C   UNL     1      -0.286   4.855  24.724  0.00  0.00    +0.015 C 
ATOM     21  C   UNL     1      -1.578   5.615  25.003  0.00  0.00    +0.002 C 
ENDBRANCH  15   6
ENDBRANCH   9  15
BRANCH  10  16
ATOM     16  C   UNL     1      -2.856  -2.779  24.543  0.00  0.00    +0.123 C 
BRANCH  16   7
ATOM      4  O   UNL     1      -0.421  -2.335  25.999  0.00  0.00    -0.270 OA
ATOM      7  N   UNL     1      -1.660  -2.116  24.051  0.00  0.00    -0.310 N 
ATOM     22  C   UNL     1      -0.535  -1.952  24.837  0.00  0.00    +0.244 C 
ATOM     30  H   UNL     1      -1.667  -1.822  23.081  0.00  0.00    +0.149 HD
BRANCH  22  23
ATOM     23  C   UNL     1       0.595  -1.231  24.197  0.00  0.00    +0.037 A 
ATOM     24  C   UNL     1       1.892  -1.734  24.299  0.00  0.00    +0.013 A 
ATOM     25  C   UNL     1       0.358  -0.050  23.494  0.00  0.00    +0.013 A 
ATOM     26  C   UNL     1       2.952  -1.055  23.699  0.00  0.00    +0.013 A 
ATOM     27  C   UNL     1       1.419   0.629  22.893  0.00  0.00    +0.013 A 
ATOM     28  C   UNL     1       2.715   0.126  22.995  0.00  0.00    +0.055 A 
BRANCH  28  29
ATOM      1  F   UNL     1       5.077   0.454  22.803  0.00  0.00    -0.166 F 
ATOM      2  F   UNL     1       3.800   2.198  22.567  0.00  0.00    -0.166 F 
ATOM      3  F   UNL     1       3.899   0.697  20.997  0.00  0.00    -0.166 F 
ATOM     29  C   UNL     1       3.850   0.851  22.353  0.00  0.00    +0.417 C 
ENDBRANCH  28  29
ENDBRANCH  22  23
ENDBRANCH  16   7
ENDBRANCH  10  16
TORSDOF 6
ENDMDL
