MODEL 1
REMARK VINA RESULT:       0.0      0.000      0.000
REMARK  Name = 26742857
REMARK  6 active torsions:
REMARK  status: ('A' for Active; 'I' for Inactive)
REMARK    1  A    between atoms: O_7  and  C_33
REMARK    2  A    between atoms: O_7  and  C_34
REMARK    3  A    between atoms: N_9  and  C_22
REMARK    4  A    between atoms: N_10  and  C_24
REMARK    5  A    between atoms: N_11  and  C_28
REMARK    6  A    between atoms: C_22  and  C_24
REMARK                            x       y       z     vdW  Elec       q    Type
REMARK                         _______ _______ _______ _____ _____    ______ ____
ROOT
ATOM      4  O   UNL     1      -6.388   2.340  26.822  0.00  0.00    -0.276 OA
ATOM      5  O   UNL     1      -0.213  -0.543  25.808  0.00  0.00    -0.252 OA
ATOM      8  N   UNL     1      -2.066  -0.416  24.432  0.00  0.00    -0.285 N 
ATOM      9  N   UNL     1      -5.023   3.347  25.240  0.00  0.00    -0.300 N 
ATOM     11  N   UNL     1       0.021   0.411  23.706  0.00  0.00    -0.269 N 
ATOM     13  C   UNL     1      -3.911   0.897  23.415  0.00  0.00    +0.011 C 
ATOM     14  C   UNL     1      -4.866   0.305  24.482  0.00  0.00    +0.004 C 
ATOM     15  C   UNL     1      -4.110  -0.110  25.760  0.00  0.00    +0.023 C 
ATOM     16  C   UNL     1      -2.748  -0.084  23.172  0.00  0.00    +0.113 C 
ATOM     17  C   UNL     1      -3.360   2.300  23.732  0.00  0.00    +0.024 C 
ATOM     18  C   UNL     1      -6.098   1.171  24.770  0.00  0.00    +0.100 C 
ATOM     19  C   UNL     1      -2.935  -1.033  25.435  0.00  0.00    +0.109 C 
ATOM     20  C   UNL     1      -4.449   3.355  23.895  0.00  0.00    +0.108 C 
ATOM     21  C   UNL     1      -5.856   2.338  25.710  0.00  0.00    +0.216 C 
ATOM     23  C   UNL     1      -0.700  -0.213  24.724  0.00  0.00    +0.306 C 
ATOM     35  H   UNL     1      -0.477   1.042  23.087  0.00  0.00    +0.156 HD
ENDROOT
BRANCH  11  28
ATOM     28  C   UNL     1       1.394   0.247  23.402  0.00  0.00    +0.035 A 
ATOM     29  C   UNL     1       2.169   1.356  23.059  0.00  0.00    +0.027 A 
ATOM     30  C   UNL     1       1.974  -1.021  23.446  0.00  0.00    +0.027 A 
ATOM     31  C   UNL     1       3.521   1.196  22.760  0.00  0.00    +0.048 A 
ATOM     32  C   UNL     1       3.327  -1.180  23.146  0.00  0.00    +0.048 A 
ATOM     33  C   UNL     1       4.100  -0.072  22.803  0.00  0.00    +0.130 A 
BRANCH  33   7
ATOM      7  O   UNL     1       5.421  -0.228  22.512  0.00  0.00    -0.406 OA
BRANCH   7  34
ATOM      1  F   UNL     1       6.255   1.136  24.105  0.00  0.00    -0.133 F 
ATOM      2  F   UNL     1       6.119  -0.999  24.550  0.00  0.00    -0.133 F 
ATOM      3  F   UNL     1       7.626  -0.249  23.118  0.00  0.00    -0.133 F 
ATOM     34  C   UNL     1       6.363  -0.102  23.571  0.00  0.00    +0.575 C 
ENDBRANCH   7  34
ENDBRANCH  33   7
ENDBRANCH  11  28
BRANCH   9  22
ATOM     22  C   UNL     1      -4.669   4.463  26.107  0.00  0.00    +0.126 C 
BRANCH  22  24
ATOM     24  C   UNL     1      -3.387   4.204  26.880  0.00  0.00    +0.128 C 
BRANCH  24  10
ATOM      6  O   UNL     1      -1.049   2.357  26.490  0.00  0.00    -0.253 OA
ATOM     10  N   UNL     1      -2.219   4.359  26.054  0.00  0.00    -0.283 N 
ATOM     12  N   UNL     1      -0.260   3.977  24.995  0.00  0.00    -0.298 N 
ATOM     25  C   UNL     1      -2.040   5.496  25.168  0.00  0.00    +0.128 C 
ATOM     26  C   UNL     1      -0.666   5.285  24.549  0.00  0.00    +0.124 C 
ATOM     27  C   UNL     1      -1.166   3.433  25.919  0.00  0.00    +0.302 C 
ATOM     36  H   UNL     1       0.602   3.518  24.714  0.00  0.00    +0.150 HD
ENDBRANCH  24  10
ENDBRANCH  22  24
ENDBRANCH   9  22
TORSDOF 6
ENDMDL
