MODEL 1
REMARK VINA RESULT:       0.9      0.000      0.000
REMARK  Name = 7127933
REMARK  12 active torsions:
REMARK  status: ('A' for Active; 'I' for Inactive)
REMARK    1  A    between atoms: S_1  and  C_20
REMARK    2  A    between atoms: S_1  and  C_27
REMARK    3  A    between atoms: N_8  and  C_12
REMARK    4  A    between atoms: N_9  and  C_18
REMARK    5  A    between atoms: N_10  and  C_22
REMARK    6  A    between atoms: C_13  and  C_16
REMARK    7  A    between atoms: C_17  and  C_20
REMARK    8  A    between atoms: C_18  and  C_21
REMARK    9  A    between atoms: C_18  and  C_23
REMARK   10  A    between atoms: C_21  and  C_24
REMARK   11  A    between atoms: C_22  and  C_25
REMARK   12  A    between atoms: C_22  and  C_26
REMARK                            x       y       z     vdW  Elec       q    Type
REMARK                         _______ _______ _______ _____ _____    ______ ____
ROOT
ATOM      4  O   UNL     1      -3.323   1.284  22.717  0.00  0.00    -0.275 OA
ATOM      7  N   UNL     1      -2.633   2.813  24.311  0.00  0.00    -0.287 N 
ATOM     12  C   UNL     1      -1.531   4.224  25.872  0.00  0.00    +0.094 C 
ATOM     13  C   UNL     1      -1.230   2.827  23.924  0.00  0.00    +0.164 C 
ATOM     14  C   UNL     1      -0.630   4.029  24.650  0.00  0.00    +0.055 C 
ATOM     15  C   UNL     1      -2.902   3.779  25.376  0.00  0.00    +0.131 C 
ATOM     17  C   UNL     1      -3.586   2.091  23.610  0.00  0.00    +0.226 C 
ENDROOT
BRANCH  12   8
ATOM      5  O   UNL     1       1.196   3.674  26.641  0.00  0.00    -0.253 OA
ATOM      8  N   UNL     1      -1.086   3.439  26.997  0.00  0.00    -0.295 N 
ATOM     10  N   UNL     1       0.405   2.432  28.433  0.00  0.00    -0.297 N 
ATOM     19  C   UNL     1       0.259   3.223  27.296  0.00  0.00    +0.300 C 
ATOM     31  H   UNL     1      -1.784   2.968  27.564  0.00  0.00    +0.151 HD
ATOM     33  H   UNL     1      -0.429   2.170  28.950  0.00  0.00    +0.150 HD
BRANCH  10  22
ATOM     22  C   UNL     1       1.694   2.055  28.964  0.00  0.00    +0.068 C 
ATOM     25  C   UNL     1       1.612   1.872  30.473  0.00  0.00    +0.027 C 
ATOM     26  C   UNL     1       2.749   3.090  28.590  0.00  0.00    +0.027 C 
ENDBRANCH  10  22
ENDBRANCH  12   8
BRANCH  13  16
ATOM      3  O   UNL     1      -0.524   1.230  25.551  0.00  0.00    -0.274 OA
ATOM      9  N   UNL     1      -0.104   0.808  23.301  0.00  0.00    -0.302 N 
ATOM     16  C   UNL     1      -0.596   1.543  24.366  0.00  0.00    +0.234 C 
ATOM     32  H   UNL     1      -0.193   1.182  22.360  0.00  0.00    +0.150 HD
BRANCH   9  18
ATOM     18  C   UNL     1       0.574  -0.458  23.460  0.00  0.00    +0.163 C 
BRANCH  18  23
ATOM      6  O   UNL     1       1.580  -0.400  21.248  0.00  0.00    -0.274 OA
ATOM     11  N   UNL     1       2.960  -0.534  23.079  0.00  0.00    -0.328 N 
ATOM     23  C   UNL     1       1.726  -0.475  22.466  0.00  0.00    +0.231 C 
ATOM     34  H   UNL     1       3.814  -0.535  22.530  0.00  0.00    +0.145 HD
ATOM     35  H   UNL     1       3.068  -0.592  24.086  0.00  0.00    +0.145 HD
ENDBRANCH  18  23
BRANCH  18  21
ATOM     21  C   UNL     1      -0.357  -1.652  23.220  0.00  0.00    +0.074 C 
BRANCH  21  24
ATOM      2  S   UNL     1      -1.218  -1.510  25.866  0.00  0.00    -0.102 S 
ATOM     24  C   UNL     1      -1.516  -1.681  24.189  0.00  0.00    -0.008 A 
ATOM     28  C   UNL     1      -2.858  -1.831  23.915  0.00  0.00    +0.011 A 
ATOM     29  C   UNL     1      -3.652  -1.807  25.098  0.00  0.00    +0.008 A 
ATOM     30  C   UNL     1      -2.886  -1.639  26.231  0.00  0.00    +0.045 A 
ENDBRANCH  21  24
ENDBRANCH  18  21
ENDBRANCH   9  18
ENDBRANCH  13  16
BRANCH  17  20
ATOM     20  C   UNL     1      -5.018   2.337  24.016  0.00  0.00    +0.164 C 
BRANCH  20   1
ATOM      1  S   UNL     1      -5.447   1.123  25.271  0.00  0.00    -0.155 S 
ATOM     27  C   UNL     1      -6.235   2.226  26.470  0.00  0.00    +0.085 C 
ENDBRANCH  20   1
ENDBRANCH  17  20
TORSDOF 9
ENDMDL
MODEL 2
REMARK VINA RESULT:       1.0      2.557      5.315
REMARK  Name = 7127933
REMARK  12 active torsions:
REMARK  status: ('A' for Active; 'I' for Inactive)
REMARK    1  A    between atoms: S_1  and  C_20
REMARK    2  A    between atoms: S_1  and  C_27
REMARK    3  A    between atoms: N_8  and  C_12
REMARK    4  A    between atoms: N_9  and  C_18
REMARK    5  A    between atoms: N_10  and  C_22
REMARK    6  A    between atoms: C_13  and  C_16
REMARK    7  A    between atoms: C_17  and  C_20
REMARK    8  A    between atoms: C_18  and  C_21
REMARK    9  A    between atoms: C_18  and  C_23
REMARK   10  A    between atoms: C_21  and  C_24
REMARK   11  A    between atoms: C_22  and  C_25
REMARK   12  A    between atoms: C_22  and  C_26
REMARK                            x       y       z     vdW  Elec       q    Type
REMARK                         _______ _______ _______ _____ _____    ______ ____
ROOT
ATOM      4  O   UNL     1      -4.277  -0.006  25.097  0.00  0.00    -0.275 OA
ATOM      7  N   UNL     1      -2.171  -0.832  24.608  0.00  0.00    -0.287 N 
ATOM     12  C   UNL     1       0.127  -1.397  24.401  0.00  0.00    +0.094 C 
ATOM     13  C   UNL     1      -1.529  -0.371  25.830  0.00  0.00    +0.164 C 
ATOM     14  C   UNL     1      -0.184  -1.093  25.869  0.00  0.00    +0.055 C 
ATOM     15  C   UNL     1      -1.251  -1.617  23.785  0.00  0.00    +0.131 C 
ATOM     17  C   UNL     1      -3.530  -0.676  24.381  0.00  0.00    +0.226 C 
ENDROOT
BRANCH  12   8
ATOM      5  O   UNL     1       2.933  -1.301  23.732  0.00  0.00    -0.253 OA
ATOM      8  N   UNL     1       0.832  -0.312  23.767  0.00  0.00    -0.295 N 
ATOM     10  N   UNL     1       2.618   0.828  22.867  0.00  0.00    -0.297 N 
ATOM     19  C   UNL     1       2.196  -0.349  23.478  0.00  0.00    +0.300 C 
ATOM     31  H   UNL     1       0.327   0.548  23.576  0.00  0.00    +0.151 HD
ATOM     33  H   UNL     1       1.920   1.527  22.631  0.00  0.00    +0.150 HD
BRANCH  10  22
ATOM     22  C   UNL     1       3.986   1.053  22.462  0.00  0.00    +0.068 C 
ATOM     25  C   UNL     1       4.272   0.346  21.145  0.00  0.00    +0.027 C 
ATOM     26  C   UNL     1       4.948   0.597  23.553  0.00  0.00    +0.027 C 
ENDBRANCH  10  22
ENDBRANCH  12   8
BRANCH  13  16
ATOM      3  O   UNL     1      -0.838   1.756  26.662  0.00  0.00    -0.274 OA
ATOM      9  N   UNL     1      -1.856   1.640  24.572  0.00  0.00    -0.302 N 
ATOM     16  C   UNL     1      -1.354   1.116  25.751  0.00  0.00    +0.234 C 
ATOM     32  H   UNL     1      -2.291   1.016  23.899  0.00  0.00    +0.150 HD
BRANCH   9  18
ATOM     18  C   UNL     1      -1.831   3.051  24.261  0.00  0.00    +0.163 C 
BRANCH  18  23
ATOM      6  O   UNL     1       0.579   2.823  24.043  0.00  0.00    -0.274 OA
ATOM     11  N   UNL     1      -0.270   4.799  24.850  0.00  0.00    -0.328 N 
ATOM     23  C   UNL     1      -0.385   3.509  24.377  0.00  0.00    +0.231 C 
ATOM     34  H   UNL     1       0.642   5.233  24.960  0.00  0.00    +0.145 HD
ATOM     35  H   UNL     1      -1.073   5.358  25.119  0.00  0.00    +0.145 HD
ENDBRANCH  18  23
BRANCH  18  21
ATOM     21  C   UNL     1      -2.727   3.869  25.197  0.00  0.00    +0.074 C 
BRANCH  21  24
ATOM      2  S   UNL     1      -4.906   2.724  23.890  0.00  0.00    -0.102 S 
ATOM     24  C   UNL     1      -4.123   3.300  25.300  0.00  0.00    -0.008 A 
ATOM     28  C   UNL     1      -4.911   3.163  26.422  0.00  0.00    +0.011 A 
ATOM     29  C   UNL     1      -6.175   2.578  26.119  0.00  0.00    +0.008 A 
ATOM     30  C   UNL     1      -6.304   2.290  24.778  0.00  0.00    +0.045 A 
ENDBRANCH  21  24
ENDBRANCH  18  21
ENDBRANCH   9  18
ENDBRANCH  13  16
BRANCH  17  20
ATOM     20  C   UNL     1      -4.072  -1.379  23.163  0.00  0.00    +0.164 C 
BRANCH  20   1
ATOM      1  S   UNL     1      -4.683  -2.987  23.687  0.00  0.00    -0.155 S 
ATOM     27  C   UNL     1      -3.474  -3.336  24.987  0.00  0.00    +0.085 C 
ENDBRANCH  20   1
ENDBRANCH  17  20
TORSDOF 9
ENDMDL
MODEL 3
REMARK VINA RESULT:       1.1      2.635      5.118
REMARK  Name = 7127933
REMARK  12 active torsions:
REMARK  status: ('A' for Active; 'I' for Inactive)
REMARK    1  A    between atoms: S_1  and  C_20
REMARK    2  A    between atoms: S_1  and  C_27
REMARK    3  A    between atoms: N_8  and  C_12
REMARK    4  A    between atoms: N_9  and  C_18
REMARK    5  A    between atoms: N_10  and  C_22
REMARK    6  A    between atoms: C_13  and  C_16
REMARK    7  A    between atoms: C_17  and  C_20
REMARK    8  A    between atoms: C_18  and  C_21
REMARK    9  A    between atoms: C_18  and  C_23
REMARK   10  A    between atoms: C_21  and  C_24
REMARK   11  A    between atoms: C_22  and  C_25
REMARK   12  A    between atoms: C_22  and  C_26
REMARK                            x       y       z     vdW  Elec       q    Type
REMARK                         _______ _______ _______ _____ _____    ______ ____
ROOT
ATOM      4  O   UNL     1      -1.438   5.419  24.843  0.00  0.00    -0.275 OA
ATOM      7  N   UNL     1      -1.326   3.341  25.857  0.00  0.00    -0.287 N 
ATOM     12  C   UNL     1      -0.840   1.166  26.680  0.00  0.00    +0.094 C 
ATOM     13  C   UNL     1       0.103   3.144  25.663  0.00  0.00    +0.164 C 
ATOM     14  C   UNL     1       0.465   1.956  26.552  0.00  0.00    +0.055 C 
ATOM     15  C   UNL     1      -1.915   2.247  26.628  0.00  0.00    +0.131 C 
ATOM     17  C   UNL     1      -1.966   4.516  25.494  0.00  0.00    +0.226 C 
ENDROOT
BRANCH  12   8
ATOM      5  O   UNL     1      -3.078  -0.602  26.240  0.00  0.00    -0.253 OA
ATOM      8  N   UNL     1      -0.993   0.206  25.616  0.00  0.00    -0.295 N 
ATOM     10  N   UNL     1      -2.000  -1.444  24.367  0.00  0.00    -0.297 N 
ATOM     19  C   UNL     1      -2.113  -0.613  25.478  0.00  0.00    +0.300 C 
ATOM     31  H   UNL     1      -0.220   0.073  24.971  0.00  0.00    +0.151 HD
ATOM     33  H   UNL     1      -1.198  -1.327  23.755  0.00  0.00    +0.150 HD
BRANCH  10  22
ATOM     22  C   UNL     1      -3.022  -2.394  23.992  0.00  0.00    +0.068 C 
ATOM     25  C   UNL     1      -4.322  -1.671  23.668  0.00  0.00    +0.027 C 
ATOM     26  C   UNL     1      -3.225  -3.424  25.096  0.00  0.00    +0.027 C 
ENDBRANCH  10  22
ENDBRANCH  12   8
BRANCH  13  16
ATOM      3  O   UNL     1      -0.238   3.438  23.319  0.00  0.00    -0.274 OA
ATOM      9  N   UNL     1       1.294   1.842  24.044  0.00  0.00    -0.302 N 
ATOM     16  C   UNL     1       0.357   2.847  24.216  0.00  0.00    +0.234 C 
ATOM     32  H   UNL     1       1.700   1.400  24.864  0.00  0.00    +0.150 HD
BRANCH   9  18
ATOM     18  C   UNL     1       1.698   1.352  22.746  0.00  0.00    +0.163 C 
BRANCH  18  23
ATOM      6  O   UNL     1       0.833  -0.748  23.610  0.00  0.00    -0.274 OA
ATOM     11  N   UNL     1       1.278  -0.585  21.363  0.00  0.00    -0.328 N 
ATOM     23  C   UNL     1       1.239  -0.095  22.652  0.00  0.00    +0.231 C 
ATOM     34  H   UNL     1       0.981  -1.534  21.158  0.00  0.00    +0.145 HD
ATOM     35  H   UNL     1       1.612  -0.035  20.578  0.00  0.00    +0.145 HD
ENDBRANCH  18  23
BRANCH  18  21
ATOM     21  C   UNL     1       3.214   1.446  22.535  0.00  0.00    +0.074 C 
BRANCH  21  24
ATOM      2  S   UNL     1       5.493   0.597  23.895  0.00  0.00    -0.102 S 
ATOM     24  C   UNL     1       3.958   0.308  23.191  0.00  0.00    -0.008 A 
ATOM     28  C   UNL     1       3.570  -1.008  23.320  0.00  0.00    +0.011 A 
ATOM     29  C   UNL     1       4.546  -1.789  24.006  0.00  0.00    +0.008 A 
ATOM     30  C   UNL     1       5.642  -1.040  24.374  0.00  0.00    +0.045 A 
ENDBRANCH  21  24
ENDBRANCH  18  21
ENDBRANCH   9  18
ENDBRANCH  13  16
BRANCH  17  20
ATOM     20  C   UNL     1      -3.402   4.639  25.940  0.00  0.00    +0.164 C 
BRANCH  20   1
ATOM      1  S   UNL     1      -4.426   3.801  24.722  0.00  0.00    -0.155 S 
ATOM     27  C   UNL     1      -5.449   2.818  25.845  0.00  0.00    +0.085 C 
ENDBRANCH  20   1
ENDBRANCH  17  20
TORSDOF 9
ENDMDL
MODEL 4
REMARK VINA RESULT:       1.1      1.549      1.926
REMARK  Name = 7127933
REMARK  12 active torsions:
REMARK  status: ('A' for Active; 'I' for Inactive)
REMARK    1  A    between atoms: S_1  and  C_20
REMARK    2  A    between atoms: S_1  and  C_27
REMARK    3  A    between atoms: N_8  and  C_12
REMARK    4  A    between atoms: N_9  and  C_18
REMARK    5  A    between atoms: N_10  and  C_22
REMARK    6  A    between atoms: C_13  and  C_16
REMARK    7  A    between atoms: C_17  and  C_20
REMARK    8  A    between atoms: C_18  and  C_21
REMARK    9  A    between atoms: C_18  and  C_23
REMARK   10  A    between atoms: C_21  and  C_24
REMARK   11  A    between atoms: C_22  and  C_25
REMARK   12  A    between atoms: C_22  and  C_26
REMARK                            x       y       z     vdW  Elec       q    Type
REMARK                         _______ _______ _______ _____ _____    ______ ____
ROOT
ATOM      4  O   UNL     1      -2.882   1.195  22.457  0.00  0.00    -0.275 OA
ATOM      7  N   UNL     1      -2.146   2.778  23.975  0.00  0.00    -0.287 N 
ATOM     12  C   UNL     1      -1.018   4.187  25.520  0.00  0.00    +0.094 C 
ATOM     13  C   UNL     1      -0.724   2.565  23.754  0.00  0.00    +0.164 C 
ATOM     14  C   UNL     1      -0.034   3.747  24.432  0.00  0.00    +0.055 C 
ATOM     15  C   UNL     1      -2.381   3.878  24.911  0.00  0.00    +0.131 C 
ATOM     17  C   UNL     1      -3.117   2.119  23.237  0.00  0.00    +0.226 C 
ENDROOT
BRANCH  12   8
ATOM      5  O   UNL     1       1.513   3.428  26.681  0.00  0.00    -0.253 OA
ATOM      8  N   UNL     1      -0.807   3.474  26.754  0.00  0.00    -0.295 N 
ATOM     10  N   UNL     1       0.371   2.459  28.452  0.00  0.00    -0.297 N 
ATOM     19  C   UNL     1       0.457   3.146  27.244  0.00  0.00    +0.300 C 
ATOM     31  H   UNL     1      -1.619   3.137  27.263  0.00  0.00    +0.151 HD
ATOM     33  H   UNL     1      -0.545   2.339  28.876  0.00  0.00    +0.150 HD
BRANCH  10  22
ATOM     22  C   UNL     1       1.533   2.001  29.176  0.00  0.00    +0.068 C 
ATOM     25  C   UNL     1       1.272   2.040  30.676  0.00  0.00    +0.027 C 
ATOM     26  C   UNL     1       2.755   2.833  28.807  0.00  0.00    +0.027 C 
ENDBRANCH  10  22
ENDBRANCH  12   8
BRANCH  13  16
ATOM      3  O   UNL     1       0.757   0.736  24.150  0.00  0.00    -0.274 OA
ATOM      9  N   UNL     1      -1.323   0.751  25.197  0.00  0.00    -0.302 N 
ATOM     16  C   UNL     1      -0.328   1.262  24.380  0.00  0.00    +0.234 C 
ATOM     32  H   UNL     1      -2.197   1.260  25.289  0.00  0.00    +0.150 HD
BRANCH   9  18
ATOM     18  C   UNL     1      -1.199  -0.506  25.899  0.00  0.00    +0.163 C 
BRANCH  18  23
ATOM      6  O   UNL     1      -0.820  -1.591  23.759  0.00  0.00    -0.274 OA
ATOM     11  N   UNL     1       0.477  -2.212  25.550  0.00  0.00    -0.328 N 
ATOM     23  C   UNL     1      -0.530  -1.486  24.948  0.00  0.00    +0.231 C 
ATOM     34  H   UNL     1       1.016  -2.891  25.022  0.00  0.00    +0.145 HD
ATOM     35  H   UNL     1       0.710  -2.114  26.533  0.00  0.00    +0.145 HD
ENDBRANCH  18  23
BRANCH  18  21
ATOM     21  C   UNL     1      -2.556  -1.051  26.361  0.00  0.00    +0.074 C 
BRANCH  21  24
ATOM      2  S   UNL     1      -3.200  -3.384  24.981  0.00  0.00    -0.102 S 
ATOM     24  C   UNL     1      -3.330  -1.696  25.235  0.00  0.00    -0.008 A 
ATOM     28  C   UNL     1      -4.175  -1.100  24.325  0.00  0.00    +0.011 A 
ATOM     29  C   UNL     1      -4.724  -2.042  23.407  0.00  0.00    +0.008 A 
ATOM     30  C   UNL     1      -4.276  -3.322  23.651  0.00  0.00    +0.045 A 
ENDBRANCH  21  24
ENDBRANCH  18  21
ENDBRANCH   9  18
ENDBRANCH  13  16
BRANCH  17  20
ATOM     20  C   UNL     1      -4.532   2.594  23.451  0.00  0.00    +0.164 C 
BRANCH  20   1
ATOM      1  S   UNL     1      -5.141   1.834  24.962  0.00  0.00    -0.155 S 
ATOM     27  C   UNL     1      -5.768   3.318  25.788  0.00  0.00    +0.085 C 
ENDBRANCH  20   1
ENDBRANCH  17  20
TORSDOF 9
ENDMDL
MODEL 5
REMARK VINA RESULT:       1.8      2.614      4.960
REMARK  Name = 7127933
REMARK  12 active torsions:
REMARK  status: ('A' for Active; 'I' for Inactive)
REMARK    1  A    between atoms: S_1  and  C_20
REMARK    2  A    between atoms: S_1  and  C_27
REMARK    3  A    between atoms: N_8  and  C_12
REMARK    4  A    between atoms: N_9  and  C_18
REMARK    5  A    between atoms: N_10  and  C_22
REMARK    6  A    between atoms: C_13  and  C_16
REMARK    7  A    between atoms: C_17  and  C_20
REMARK    8  A    between atoms: C_18  and  C_21
REMARK    9  A    between atoms: C_18  and  C_23
REMARK   10  A    between atoms: C_21  and  C_24
REMARK   11  A    between atoms: C_22  and  C_25
REMARK   12  A    between atoms: C_22  and  C_26
REMARK                            x       y       z     vdW  Elec       q    Type
REMARK                         _______ _______ _______ _____ _____    ______ ____
ROOT
ATOM      4  O   UNL     1      -2.148  -2.359  23.538  0.00  0.00    -0.275 OA
ATOM      7  N   UNL     1      -3.428  -0.587  24.297  0.00  0.00    -0.287 N 
ATOM     12  C   UNL     1      -4.526   1.463  24.783  0.00  0.00    +0.094 C 
ATOM     13  C   UNL     1      -3.239   0.260  23.129  0.00  0.00    +0.164 C 
ATOM     14  C   UNL     1      -4.272   1.375  23.275  0.00  0.00    +0.055 C 
ATOM     15  C   UNL     1      -4.348   0.024  25.256  0.00  0.00    +0.131 C 
ATOM     17  C   UNL     1      -2.922  -1.876  24.365  0.00  0.00    +0.226 C 
ENDROOT
BRANCH  12   8
ATOM      5  O   UNL     1      -3.516   3.962  23.753  0.00  0.00    -0.253 OA
ATOM      8  N   UNL     1      -3.603   2.360  25.431  0.00  0.00    -0.295 N 
ATOM     10  N   UNL     1      -2.279   4.224  25.697  0.00  0.00    -0.297 N 
ATOM     19  C   UNL     1      -3.165   3.554  24.858  0.00  0.00    +0.300 C 
ATOM     31  H   UNL     1      -3.202   2.081  26.321  0.00  0.00    +0.151 HD
ATOM     33  H   UNL     1      -2.109   3.843  26.623  0.00  0.00    +0.150 HD
BRANCH  10  22
ATOM     22  C   UNL     1      -1.674   5.488  25.347  0.00  0.00    +0.068 C 
ATOM     25  C   UNL     1      -2.635   6.322  24.511  0.00  0.00    +0.027 C 
ATOM     26  C   UNL     1      -0.356   5.265  24.615  0.00  0.00    +0.027 C 
ENDBRANCH  10  22
ENDBRANCH  12   8
BRANCH  13  16
ATOM      3  O   UNL     1      -1.527   1.807  22.517  0.00  0.00    -0.274 OA
ATOM      9  N   UNL     1      -0.989   0.025  23.916  0.00  0.00    -0.302 N 
ATOM     16  C   UNL     1      -1.840   0.800  23.146  0.00  0.00    +0.234 C 
ATOM     32  H   UNL     1      -1.354  -0.809  24.368  0.00  0.00    +0.150 HD
BRANCH   9  18
ATOM     18  C   UNL     1       0.416   0.317  24.077  0.00  0.00    +0.163 C 
BRANCH  18  23
ATOM      6  O   UNL     1       0.830   2.705  23.898  0.00  0.00    -0.274 OA
ATOM     11  N   UNL     1       0.178   1.852  25.929  0.00  0.00    -0.328 N 
ATOM     23  C   UNL     1       0.520   1.743  24.597  0.00  0.00    +0.231 C 
ATOM     34  H   UNL     1       0.188   2.753  26.396  0.00  0.00    +0.145 HD
ATOM     35  H   UNL     1      -0.081   1.051  26.495  0.00  0.00    +0.145 HD
ENDBRANCH  18  23
BRANCH  18  21
ATOM     21  C   UNL     1       1.196   0.168  22.765  0.00  0.00    +0.074 C 
BRANCH  21  24
ATOM      2  S   UNL     1       3.379  -1.298  23.687  0.00  0.00    -0.102 S 
ATOM     24  C   UNL     1       2.689   0.105  22.988  0.00  0.00    -0.008 A 
ATOM     28  C   UNL     1       3.639   1.058  22.697  0.00  0.00    +0.011 A 
ATOM     29  C   UNL     1       4.952   0.632  23.054  0.00  0.00    +0.008 A 
ATOM     30  C   UNL     1       4.954  -0.632  23.603  0.00  0.00    +0.045 A 
ENDBRANCH  21  24
ENDBRANCH  18  21
ENDBRANCH   9  18
ENDBRANCH  13  16
BRANCH  17  20
ATOM     20  C   UNL     1      -3.370  -2.689  25.554  0.00  0.00    +0.164 C 
BRANCH  20   1
ATOM      1  S   UNL     1      -2.996  -1.742  27.036  0.00  0.00    -0.155 S 
ATOM     27  C   UNL     1      -1.305  -1.243  26.630  0.00  0.00    +0.085 C 
ENDBRANCH  20   1
ENDBRANCH  17  20
TORSDOF 9
ENDMDL
MODEL 6
REMARK VINA RESULT:       2.0      2.523      5.423
REMARK  Name = 7127933
REMARK  12 active torsions:
REMARK  status: ('A' for Active; 'I' for Inactive)
REMARK    1  A    between atoms: S_1  and  C_20
REMARK    2  A    between atoms: S_1  and  C_27
REMARK    3  A    between atoms: N_8  and  C_12
REMARK    4  A    between atoms: N_9  and  C_18
REMARK    5  A    between atoms: N_10  and  C_22
REMARK    6  A    between atoms: C_13  and  C_16
REMARK    7  A    between atoms: C_17  and  C_20
REMARK    8  A    between atoms: C_18  and  C_21
REMARK    9  A    between atoms: C_18  and  C_23
REMARK   10  A    between atoms: C_21  and  C_24
REMARK   11  A    between atoms: C_22  and  C_25
REMARK   12  A    between atoms: C_22  and  C_26
REMARK                            x       y       z     vdW  Elec       q    Type
REMARK                         _______ _______ _______ _____ _____    ______ ____
ROOT
ATOM      4  O   UNL     1       0.239  -1.044  24.187  0.00  0.00    -0.275 OA
ATOM      7  N   UNL     1       0.053   1.232  24.564  0.00  0.00    -0.287 N 
ATOM     12  C   UNL     1      -0.415   3.454  25.261  0.00  0.00    +0.094 C 
ATOM     13  C   UNL     1      -0.489   1.129  25.911  0.00  0.00    +0.164 C 
ATOM     14  C   UNL     1      -0.392   2.539  26.488  0.00  0.00    +0.055 C 
ATOM     15  C   UNL     1       0.285   2.627  24.188  0.00  0.00    +0.131 C 
ATOM     17  C   UNL     1       0.451   0.119  23.840  0.00  0.00    +0.226 C 
ENDROOT
BRANCH  12   8
ATOM      5  O   UNL     1      -2.686   3.807  27.006  0.00  0.00    -0.253 OA
ATOM      8  N   UNL     1      -1.760   3.803  24.877  0.00  0.00    -0.295 N 
ATOM     10  N   UNL     1      -3.992   4.293  25.152  0.00  0.00    -0.297 N 
ATOM     19  C   UNL     1      -2.803   3.954  25.791  0.00  0.00    +0.300 C 
ATOM     31  H   UNL     1      -1.976   3.883  23.888  0.00  0.00    +0.151 HD
ATOM     33  H   UNL     1      -3.971   4.466  24.152  0.00  0.00    +0.150 HD
BRANCH  10  22
ATOM     22  C   UNL     1      -5.230   4.508  25.865  0.00  0.00    +0.068 C 
ATOM     25  C   UNL     1      -5.926   3.180  26.131  0.00  0.00    +0.027 C 
ATOM     26  C   UNL     1      -6.134   5.460  25.091  0.00  0.00    +0.027 C 
ENDBRANCH  10  22
ENDBRANCH  12   8
BRANCH  13  16
ATOM      3  O   UNL     1      -2.851   1.398  26.126  0.00  0.00    -0.274 OA
ATOM      9  N   UNL     1      -2.011  -0.647  25.394  0.00  0.00    -0.302 N 
ATOM     16  C   UNL     1      -1.913   0.666  25.822  0.00  0.00    +0.234 C 
ATOM     32  H   UNL     1      -1.161  -1.168  25.199  0.00  0.00    +0.150 HD
BRANCH   9  18
ATOM     18  C   UNL     1      -3.272  -1.337  25.246  0.00  0.00    +0.163 C 
BRANCH  18  23
ATOM      6  O   UNL     1      -3.863  -3.283  23.916  0.00  0.00    -0.274 OA
ATOM     11  N   UNL     1      -1.649  -2.923  24.412  0.00  0.00    -0.328 N 
ATOM     23  C   UNL     1      -2.993  -2.616  24.471  0.00  0.00    +0.231 C 
ATOM     34  H   UNL     1      -1.325  -3.743  23.910  0.00  0.00    +0.145 HD
ATOM     35  H   UNL     1      -0.939  -2.362  24.872  0.00  0.00    +0.145 HD
ENDBRANCH  18  23
BRANCH  18  21
ATOM     21  C   UNL     1      -4.319  -0.488  24.517  0.00  0.00    +0.074 C 
BRANCH  21  24
ATOM      2  S   UNL     1      -4.306   2.066  23.404  0.00  0.00    -0.102 S 
ATOM     24  C   UNL     1      -3.697   0.471  23.530  0.00  0.00    -0.008 A 
ATOM     28  C   UNL     1      -2.651   0.246  22.662  0.00  0.00    +0.011 A 
ATOM     29  C   UNL     1      -2.345   1.400  21.883  0.00  0.00    +0.008 A 
ATOM     30  C   UNL     1      -3.170   2.462  22.186  0.00  0.00    +0.045 A 
ENDBRANCH  21  24
ENDBRANCH  18  21
ENDBRANCH   9  18
ENDBRANCH  13  16
BRANCH  17  20
ATOM     20  C   UNL     1       1.172   0.408  22.546  0.00  0.00    +0.164 C 
BRANCH  20   1
ATOM      1  S   UNL     1       2.780  -0.393  22.627  0.00  0.00    -0.155 S 
ATOM     27  C   UNL     1       3.823   1.084  22.712  0.00  0.00    +0.085 C 
ENDBRANCH  20   1
ENDBRANCH  17  20
TORSDOF 9
ENDMDL
MODEL 7
REMARK VINA RESULT:       2.2      2.284      5.986
REMARK  Name = 7127933
REMARK  12 active torsions:
REMARK  status: ('A' for Active; 'I' for Inactive)
REMARK    1  A    between atoms: S_1  and  C_20
REMARK    2  A    between atoms: S_1  and  C_27
REMARK    3  A    between atoms: N_8  and  C_12
REMARK    4  A    between atoms: N_9  and  C_18
REMARK    5  A    between atoms: N_10  and  C_22
REMARK    6  A    between atoms: C_13  and  C_16
REMARK    7  A    between atoms: C_17  and  C_20
REMARK    8  A    between atoms: C_18  and  C_21
REMARK    9  A    between atoms: C_18  and  C_23
REMARK   10  A    between atoms: C_21  and  C_24
REMARK   11  A    between atoms: C_22  and  C_25
REMARK   12  A    between atoms: C_22  and  C_26
REMARK                            x       y       z     vdW  Elec       q    Type
REMARK                         _______ _______ _______ _____ _____    ______ ____
ROOT
ATOM      4  O   UNL     1      -0.247  -1.357  25.460  0.00  0.00    -0.275 OA
ATOM      7  N   UNL     1      -1.766  -0.312  24.061  0.00  0.00    -0.287 N 
ATOM     12  C   UNL     1      -3.015   1.054  22.572  0.00  0.00    +0.094 C 
ATOM     13  C   UNL     1      -0.794   0.501  23.346  0.00  0.00    +0.164 C 
ATOM     14  C   UNL     1      -1.547   1.049  22.136  0.00  0.00    +0.055 C 
ATOM     15  C   UNL     1      -3.111  -0.145  23.509  0.00  0.00    +0.131 C 
ATOM     17  C   UNL     1      -1.391  -1.244  25.017  0.00  0.00    +0.226 C 
ENDROOT
BRANCH  12   8
ATOM      5  O   UNL     1      -4.964   1.395  24.674  0.00  0.00    -0.253 OA
ATOM      8  N   UNL     1      -3.373   2.283  23.235  0.00  0.00    -0.295 N 
ATOM     10  N   UNL     1      -4.478   3.662  24.710  0.00  0.00    -0.297 N 
ATOM     19  C   UNL     1      -4.330   2.358  24.246  0.00  0.00    +0.300 C 
ATOM     31  H   UNL     1      -2.953   3.149  22.909  0.00  0.00    +0.151 HD
ATOM     33  H   UNL     1      -3.856   4.378  24.346  0.00  0.00    +0.150 HD
BRANCH  10  22
ATOM     22  C   UNL     1      -5.407   4.020  25.757  0.00  0.00    +0.068 C 
ATOM     25  C   UNL     1      -6.288   2.830  26.113  0.00  0.00    +0.027 C 
ATOM     26  C   UNL     1      -6.246   5.222  25.339  0.00  0.00    +0.027 C 
ENDBRANCH  10  22
ENDBRANCH  12   8
BRANCH  13  16
ATOM      3  O   UNL     1       0.632   2.312  23.966  0.00  0.00    -0.274 OA
ATOM      9  N   UNL     1      -1.086   1.685  25.408  0.00  0.00    -0.302 N 
ATOM     16  C   UNL     1      -0.329   1.602  24.251  0.00  0.00    +0.234 C 
ATOM     32  H   UNL     1      -1.842   1.021  25.552  0.00  0.00    +0.150 HD
BRANCH   9  18
ATOM     18  C   UNL     1      -0.828   2.647  26.453  0.00  0.00    +0.163 C 
BRANCH  18  23
ATOM      6  O   UNL     1      -2.578   4.327  26.606  0.00  0.00    -0.274 OA
ATOM     11  N   UNL     1      -0.890   4.634  25.078  0.00  0.00    -0.328 N 
ATOM     23  C   UNL     1      -1.547   3.931  26.066  0.00  0.00    +0.231 C 
ATOM     34  H   UNL     1      -1.256   5.518  24.739  0.00  0.00    +0.145 HD
ATOM     35  H   UNL     1      -0.037   4.299  24.642  0.00  0.00    +0.145 HD
ENDBRANCH  18  23
BRANCH  18  21
ATOM     21  C   UNL     1       0.670   2.911  26.646  0.00  0.00    +0.074 C 
BRANCH  21  24
ATOM      2  S   UNL     1       2.787   2.705  28.446  0.00  0.00    -0.102 S 
ATOM     24  C   UNL     1       1.116   2.681  28.071  0.00  0.00    -0.008 A 
ATOM     28  C   UNL     1       0.340   2.442  29.183  0.00  0.00    +0.011 A 
ATOM     29  C   UNL     1       1.127   2.274  30.360  0.00  0.00    +0.008 A 
ATOM     30  C   UNL     1       2.475   2.393  30.101  0.00  0.00    +0.045 A 
ENDBRANCH  21  24
ENDBRANCH  18  21
ENDBRANCH   9  18
ENDBRANCH  13  16
BRANCH  17  20
ATOM     20  C   UNL     1      -2.495  -2.140  25.520  0.00  0.00    +0.164 C 
BRANCH  20   1
ATOM      1  S   UNL     1      -2.889  -3.309  24.212  0.00  0.00    -0.155 S 
ATOM     27  C   UNL     1      -4.534  -2.695  23.774  0.00  0.00    +0.085 C 
ENDBRANCH  20   1
ENDBRANCH  17  20
TORSDOF 9
ENDMDL
MODEL 8
REMARK VINA RESULT:       2.3      2.431      5.672
REMARK  Name = 7127933
REMARK  12 active torsions:
REMARK  status: ('A' for Active; 'I' for Inactive)
REMARK    1  A    between atoms: S_1  and  C_20
REMARK    2  A    between atoms: S_1  and  C_27
REMARK    3  A    between atoms: N_8  and  C_12
REMARK    4  A    between atoms: N_9  and  C_18
REMARK    5  A    between atoms: N_10  and  C_22
REMARK    6  A    between atoms: C_13  and  C_16
REMARK    7  A    between atoms: C_17  and  C_20
REMARK    8  A    between atoms: C_18  and  C_21
REMARK    9  A    between atoms: C_18  and  C_23
REMARK   10  A    between atoms: C_21  and  C_24
REMARK   11  A    between atoms: C_22  and  C_25
REMARK   12  A    between atoms: C_22  and  C_26
REMARK                            x       y       z     vdW  Elec       q    Type
REMARK                         _______ _______ _______ _____ _____    ______ ____
ROOT
ATOM      4  O   UNL     1       0.705  -0.099  22.498  0.00  0.00    -0.275 OA
ATOM      7  N   UNL     1       0.499   1.085  24.476  0.00  0.00    -0.287 N 
ATOM     12  C   UNL     1      -0.111   2.139  26.516  0.00  0.00    +0.094 C 
ATOM     13  C   UNL     1      -0.639   0.339  24.993  0.00  0.00    +0.164 C 
ATOM     14  C   UNL     1      -0.750   0.749  26.460  0.00  0.00    +0.055 C 
ATOM     15  C   UNL     1       0.971   2.076  25.444  0.00  0.00    +0.131 C 
ATOM     17  C   UNL     1       1.131   0.743  23.291  0.00  0.00    +0.226 C 
ENDROOT
BRANCH  12   8
ATOM      5  O   UNL     1      -0.260   3.807  24.165  0.00  0.00    -0.253 OA
ATOM      8  N   UNL     1      -1.071   3.181  26.248  0.00  0.00    -0.295 N 
ATOM     10  N   UNL     1      -2.104   4.875  25.081  0.00  0.00    -0.297 N 
ATOM     19  C   UNL     1      -1.070   3.942  25.080  0.00  0.00    +0.300 C 
ATOM     31  H   UNL     1      -1.744   3.416  26.972  0.00  0.00    +0.151 HD
ATOM     33  H   UNL     1      -2.768   4.860  25.849  0.00  0.00    +0.150 HD
BRANCH  10  22
ATOM     22  C   UNL     1      -2.331   5.793  23.989  0.00  0.00    +0.068 C 
ATOM     25  C   UNL     1      -2.125   7.229  24.453  0.00  0.00    +0.027 C 
ATOM     26  C   UNL     1      -3.725   5.596  23.407  0.00  0.00    +0.027 C 
ENDBRANCH  10  22
ENDBRANCH  12   8
BRANCH  13  16
ATOM      3  O   UNL     1      -1.863   0.777  22.991  0.00  0.00    -0.274 OA
ATOM      9  N   UNL     1      -2.930   1.036  25.045  0.00  0.00    -0.302 N 
ATOM     16  C   UNL     1      -1.862   0.729  24.218  0.00  0.00    +0.234 C 
ATOM     32  H   UNL     1      -2.804   0.991  26.052  0.00  0.00    +0.150 HD
BRANCH   9  18
ATOM     18  C   UNL     1      -4.217   1.463  24.547  0.00  0.00    +0.163 C 
BRANCH  18  23
ATOM      6  O   UNL     1      -4.127   3.276  26.162  0.00  0.00    -0.274 OA
ATOM     11  N   UNL     1      -6.157   2.294  25.725  0.00  0.00    -0.328 N 
ATOM     23  C   UNL     1      -4.793   2.431  25.569  0.00  0.00    +0.231 C 
ATOM     34  H   UNL     1      -6.669   2.892  26.366  0.00  0.00    +0.145 HD
ATOM     35  H   UNL     1      -6.697   1.595  25.226  0.00  0.00    +0.145 HD
ENDBRANCH  18  23
BRANCH  18  21
ATOM     21  C   UNL     1      -5.175   0.286  24.326  0.00  0.00    +0.074 C 
BRANCH  21  24
ATOM      2  S   UNL     1      -3.729  -1.458  25.948  0.00  0.00    -0.102 S 
ATOM     24  C   UNL     1      -4.486  -1.051  24.467  0.00  0.00    -0.008 A 
ATOM     28  C   UNL     1      -4.366  -2.055  23.532  0.00  0.00    +0.011 A 
ATOM     29  C   UNL     1      -3.642  -3.174  24.038  0.00  0.00    +0.008 A 
ATOM     30  C   UNL     1      -3.237  -2.981  25.341  0.00  0.00    +0.045 A 
ENDBRANCH  21  24
ENDBRANCH  18  21
ENDBRANCH   9  18
ENDBRANCH  13  16
BRANCH  17  20
ATOM     20  C   UNL     1       2.410   1.487  22.996  0.00  0.00    +0.164 C 
BRANCH  20   1
ATOM      1  S   UNL     1       3.566   0.319  22.266  0.00  0.00    -0.155 S 
ATOM     27  C   UNL     1       4.929   0.504  23.442  0.00  0.00    +0.085 C 
ENDBRANCH  20   1
ENDBRANCH  17  20
TORSDOF 9
ENDMDL
MODEL 9
REMARK VINA RESULT:       2.4      2.154      5.574
REMARK  Name = 7127933
REMARK  12 active torsions:
REMARK  status: ('A' for Active; 'I' for Inactive)
REMARK    1  A    between atoms: S_1  and  C_20
REMARK    2  A    between atoms: S_1  and  C_27
REMARK    3  A    between atoms: N_8  and  C_12
REMARK    4  A    between atoms: N_9  and  C_18
REMARK    5  A    between atoms: N_10  and  C_22
REMARK    6  A    between atoms: C_13  and  C_16
REMARK    7  A    between atoms: C_17  and  C_20
REMARK    8  A    between atoms: C_18  and  C_21
REMARK    9  A    between atoms: C_18  and  C_23
REMARK   10  A    between atoms: C_21  and  C_24
REMARK   11  A    between atoms: C_22  and  C_25
REMARK   12  A    between atoms: C_22  and  C_26
REMARK                            x       y       z     vdW  Elec       q    Type
REMARK                         _______ _______ _______ _____ _____    ______ ____
ROOT
ATOM      4  O   UNL     1       1.811   1.700  24.033  0.00  0.00    -0.275 OA
ATOM      7  N   UNL     1      -0.288   1.592  23.063  0.00  0.00    -0.287 N 
ATOM     12  C   UNL     1      -2.540   1.805  22.337  0.00  0.00    +0.094 C 
ATOM     13  C   UNL     1      -0.719   2.924  23.464  0.00  0.00    +0.164 C 
ATOM     14  C   UNL     1      -1.980   3.196  22.647  0.00  0.00    +0.055 C 
ATOM     15  C   UNL     1      -1.291   0.937  22.224  0.00  0.00    +0.131 C 
ATOM     17  C   UNL     1       0.990   1.121  23.319  0.00  0.00    +0.226 C 
ENDROOT
BRANCH  12   8
ATOM      5  O   UNL     1      -4.519   3.351  23.760  0.00  0.00    -0.253 OA
ATOM      8  N   UNL     1      -3.424   1.340  23.376  0.00  0.00    -0.295 N 
ATOM     10  N   UNL     1      -5.078   1.455  24.973  0.00  0.00    -0.297 N 
ATOM     19  C   UNL     1      -4.356   2.159  24.013  0.00  0.00    +0.300 C 
ATOM     31  H   UNL     1      -3.323   0.384  23.705  0.00  0.00    +0.151 HD
ATOM     33  H   UNL     1      -4.923   0.455  25.057  0.00  0.00    +0.150 HD
BRANCH  10  22
ATOM     22  C   UNL     1      -6.107   2.066  25.781  0.00  0.00    +0.068 C 
ATOM     25  C   UNL     1      -5.689   3.469  26.201  0.00  0.00    +0.027 C 
ATOM     26  C   UNL     1      -6.419   1.197  26.994  0.00  0.00    +0.027 C 
ENDBRANCH  10  22
ENDBRANCH  12   8
BRANCH  13  16
ATOM      3  O   UNL     1      -1.431   3.909  25.519  0.00  0.00    -0.274 OA
ATOM      9  N   UNL     1      -0.717   1.692  25.518  0.00  0.00    -0.302 N 
ATOM     16  C   UNL     1      -1.007   2.914  24.935  0.00  0.00    +0.234 C 
ATOM     32  H   UNL     1      -0.340   0.946  24.940  0.00  0.00    +0.150 HD
BRANCH   9  18
ATOM     18  C   UNL     1      -0.885   1.430  26.929  0.00  0.00    +0.163 C 
BRANCH  18  23
ATOM      6  O   UNL     1       0.332   2.233  28.873  0.00  0.00    -0.274 OA
ATOM     11  N   UNL     1       1.245   2.563  26.791  0.00  0.00    -0.328 N 
ATOM     23  C   UNL     1       0.262   2.121  27.651  0.00  0.00    +0.231 C 
ATOM     34  H   UNL     1       2.076   3.027  27.146  0.00  0.00    +0.145 HD
ATOM     35  H   UNL     1       1.178   2.461  25.784  0.00  0.00    +0.145 HD
ENDBRANCH  18  23
BRANCH  18  21
ATOM     21  C   UNL     1      -0.890  -0.070  27.246  0.00  0.00    +0.074 C 
BRANCH  21  24
ATOM      2  S   UNL     1      -0.841  -1.767  25.036  0.00  0.00    -0.102 S 
ATOM     24  C   UNL     1      -1.675  -0.869  26.232  0.00  0.00    -0.008 A 
ATOM     28  C   UNL     1      -3.042  -0.996  26.114  0.00  0.00    +0.011 A 
ATOM     29  C   UNL     1      -3.409  -1.841  25.026  0.00  0.00    +0.008 A 
ATOM     30  C   UNL     1      -2.308  -2.328  24.356  0.00  0.00    +0.045 A 
ENDBRANCH  21  24
ENDBRANCH  18  21
ENDBRANCH   9  18
ENDBRANCH  13  16
BRANCH  17  20
ATOM     20  C   UNL     1       1.341  -0.195  22.669  0.00  0.00    +0.164 C 
BRANCH  20   1
ATOM      1  S   UNL     1       3.036  -0.079  22.082  0.00  0.00    -0.155 S 
ATOM     27  C   UNL     1       3.867  -0.903  23.463  0.00  0.00    +0.085 C 
ENDBRANCH  20   1
ENDBRANCH  17  20
TORSDOF 9
ENDMDL
MODEL 10
REMARK VINA RESULT:       2.5      2.273      3.519
REMARK  Name = 7127933
REMARK  12 active torsions:
REMARK  status: ('A' for Active; 'I' for Inactive)
REMARK    1  A    between atoms: S_1  and  C_20
REMARK    2  A    between atoms: S_1  and  C_27
REMARK    3  A    between atoms: N_8  and  C_12
REMARK    4  A    between atoms: N_9  and  C_18
REMARK    5  A    between atoms: N_10  and  C_22
REMARK    6  A    between atoms: C_13  and  C_16
REMARK    7  A    between atoms: C_17  and  C_20
REMARK    8  A    between atoms: C_18  and  C_21
REMARK    9  A    between atoms: C_18  and  C_23
REMARK   10  A    between atoms: C_21  and  C_24
REMARK   11  A    between atoms: C_22  and  C_25
REMARK   12  A    between atoms: C_22  and  C_26
REMARK                            x       y       z     vdW  Elec       q    Type
REMARK                         _______ _______ _______ _____ _____    ______ ____
ROOT
ATOM      4  O   UNL     1      -3.284   2.119  22.918  0.00  0.00    -0.275 OA
ATOM      7  N   UNL     1      -1.353   2.673  24.066  0.00  0.00    -0.287 N 
ATOM     12  C   UNL     1       0.686   2.815  25.278  0.00  0.00    +0.094 C 
ATOM     13  C   UNL     1      -0.694   1.386  23.903  0.00  0.00    +0.164 C 
ATOM     14  C   UNL     1       0.757   1.626  24.316  0.00  0.00    +0.055 C 
ATOM     15  C   UNL     1      -0.483   3.636  24.742  0.00  0.00    +0.131 C 
ATOM     17  C   UNL     1      -2.577   2.957  23.481  0.00  0.00    +0.226 C 
ENDROOT
BRANCH  12   8
ATOM      5  O   UNL     1       2.219   3.567  27.605  0.00  0.00    -0.253 OA
ATOM      8  N   UNL     1       0.465   2.392  26.638  0.00  0.00    -0.295 N 
ATOM     10  N   UNL     1       0.825   2.248  28.907  0.00  0.00    -0.297 N 
ATOM     19  C   UNL     1       1.258   2.806  27.708  0.00  0.00    +0.300 C 
ATOM     31  H   UNL     1      -0.265   1.710  26.820  0.00  0.00    +0.151 HD
ATOM     33  H   UNL     1      -0.025   1.691  28.902  0.00  0.00    +0.150 HD
BRANCH  10  22
ATOM     22  C   UNL     1       1.470   2.511  30.172  0.00  0.00    +0.068 C 
ATOM     25  C   UNL     1       2.579   1.497  30.422  0.00  0.00    +0.027 C 
ATOM     26  C   UNL     1       0.450   2.504  31.304  0.00  0.00    +0.027 C 
ENDBRANCH  10  22
ENDBRANCH  12   8
BRANCH  13  16
ATOM      3  O   UNL     1      -0.925   0.120  25.913  0.00  0.00    -0.274 OA
ATOM      9  N   UNL     1      -2.475  -0.186  24.203  0.00  0.00    -0.302 N 
ATOM     16  C   UNL     1      -1.362   0.386  24.796  0.00  0.00    +0.234 C 
ATOM     32  H   UNL     1      -2.727   0.090  23.258  0.00  0.00    +0.150 HD
BRANCH   9  18
ATOM     18  C   UNL     1      -3.283  -1.196  24.846  0.00  0.00    +0.163 C 
BRANCH  18  23
ATOM      6  O   UNL     1      -1.609  -2.873  24.306  0.00  0.00    -0.274 OA
ATOM     11  N   UNL     1      -3.824  -3.388  23.983  0.00  0.00    -0.328 N 
ATOM     23  C   UNL     1      -2.793  -2.546  24.344  0.00  0.00    +0.231 C 
ATOM     34  H   UNL     1      -3.635  -4.327  23.647  0.00  0.00    +0.145 HD
ATOM     35  H   UNL     1      -4.799  -3.109  24.022  0.00  0.00    +0.145 HD
ENDBRANCH  18  23
BRANCH  18  21
ATOM     21  C   UNL     1      -4.777  -1.025  24.546  0.00  0.00    +0.074 C 
BRANCH  21  24
ATOM      2  S   UNL     1      -6.427   1.188  24.168  0.00  0.00    -0.102 S 
ATOM     24  C   UNL     1      -5.332   0.264  25.106  0.00  0.00    -0.008 A 
ATOM     28  C   UNL     1      -5.078   0.847  26.327  0.00  0.00    +0.011 A 
ATOM     29  C   UNL     1      -5.792   2.069  26.496  0.00  0.00    +0.008 A 
ATOM     30  C   UNL     1      -6.564   2.372  25.397  0.00  0.00    +0.045 A 
ENDBRANCH  21  24
ENDBRANCH  18  21
ENDBRANCH   9  18
ENDBRANCH  13  16
BRANCH  17  20
ATOM     20  C   UNL     1      -3.029   4.392  23.580  0.00  0.00    +0.164 C 
BRANCH  20   1
ATOM      1  S   UNL     1      -4.259   4.489  24.888  0.00  0.00    -0.155 S 
ATOM     27  C   UNL     1      -3.160   4.327  26.317  0.00  0.00    +0.085 C 
ENDBRANCH  20   1
ENDBRANCH  17  20
TORSDOF 9
ENDMDL
