MODEL 1
REMARK VINA RESULT:       5.9      0.000      0.000
REMARK  Name = 75537023
REMARK  2 active torsions:
REMARK  status: ('A' for Active; 'I' for Inactive)
REMARK    1  A    between atoms: N_3  and  C_8
REMARK    2  A    between atoms: N_6  and  C_20
REMARK                            x       y       z     vdW  Elec       q    Type
REMARK                         _______ _______ _______ _____ _____    ______ ____
ROOT
ATOM      1  O   UNL     1      -4.863  -0.146  24.861  0.00  0.00    -0.252 OA
ATOM      2  O   UNL     1       1.620  -2.451  24.220  0.00  0.00    -0.252 OA
ATOM      3  N   UNL     1      -3.691   1.801  24.233  0.00  0.00    -0.281 N 
ATOM      4  N   UNL     1      -2.572  -0.144  24.341  0.00  0.00    -0.278 N 
ATOM      5  N   UNL     1       0.133  -0.729  24.610  0.00  0.00    -0.282 N 
ATOM      6  N   UNL     1       2.185  -0.311  23.528  0.00  0.00    -0.269 N 
ATOM      7  C   UNL     1      -1.605   0.807  23.818  0.00  0.00    +0.112 C 
ATOM      9  C   UNL     1      -2.308   2.153  23.960  0.00  0.00    +0.133 C 
ATOM     12  C   UNL     1      -0.289   0.687  24.580  0.00  0.00    +0.133 C 
ATOM     13  C   UNL     1      -3.839   0.430  24.518  0.00  0.00    +0.305 C 
ATOM     14  C   UNL     1      -2.195  -1.537  24.522  0.00  0.00    +0.128 C 
ATOM     18  C   UNL     1      -0.848  -1.628  25.240  0.00  0.00    +0.128 C 
ATOM     19  C   UNL     1       1.350  -1.251  24.129  0.00  0.00    +0.307 C 
ATOM     26  H   UNL     1       1.756   0.495  23.086  0.00  0.00    +0.156 HD
ENDROOT
BRANCH   3   8
ATOM      8  C   UNL     1      -4.728   2.799  24.330  0.00  0.00    +0.078 C 
ATOM     10  C   UNL     1      -5.576   2.579  25.585  0.00  0.00    +0.022 C 
ATOM     11  C   UNL     1      -4.125   4.205  24.306  0.00  0.00    +0.022 C 
ATOM     15  C   UNL     1      -6.647   3.656  25.737  0.00  0.00    +0.002 C 
ATOM     16  C   UNL     1      -5.197   5.281  24.460  0.00  0.00    +0.002 C 
ATOM     17  C   UNL     1      -6.043   5.058  25.710  0.00  0.00    +0.000 C 
ENDBRANCH   3   8
BRANCH   6  20
ATOM     20  C   UNL     1       3.602  -0.324  23.482  0.00  0.00    +0.035 A 
ATOM     21  C   UNL     1       4.300  -1.476  23.846  0.00  0.00    +0.023 A 
ATOM     22  C   UNL     1       4.297   0.813  23.072  0.00  0.00    +0.023 A 
ATOM     23  C   UNL     1       5.694  -1.490  23.801  0.00  0.00    +0.002 A 
ATOM     24  C   UNL     1       5.691   0.799  23.027  0.00  0.00    +0.002 A 
ATOM     25  C   UNL     1       6.390  -0.352  23.392  0.00  0.00    +0.000 A 
ENDBRANCH   6  20
TORSDOF 2
ENDMDL
MODEL 2
REMARK VINA RESULT:       7.0      1.745      2.187
REMARK  Name = 75537023
REMARK  2 active torsions:
REMARK  status: ('A' for Active; 'I' for Inactive)
REMARK    1  A    between atoms: N_3  and  C_8
REMARK    2  A    between atoms: N_6  and  C_20
REMARK                            x       y       z     vdW  Elec       q    Type
REMARK                         _______ _______ _______ _____ _____    ______ ____
ROOT
ATOM      1  O   UNL     1      -4.048   2.007  22.663  0.00  0.00    -0.252 OA
ATOM      2  O   UNL     1       2.350  -0.209  21.276  0.00  0.00    -0.252 OA
ATOM      3  N   UNL     1      -2.918   2.412  24.693  0.00  0.00    -0.281 N 
ATOM      4  N   UNL     1      -1.750   1.609  22.949  0.00  0.00    -0.278 N 
ATOM      5  N   UNL     1       0.670   0.248  22.792  0.00  0.00    -0.282 N 
ATOM      6  N   UNL     1       2.931   0.515  23.401  0.00  0.00    -0.269 N 
ATOM      7  C   UNL     1      -0.752   1.853  23.978  0.00  0.00    +0.112 C 
ATOM      9  C   UNL     1      -1.582   2.184  25.215  0.00  0.00    +0.133 C 
ATOM     12  C   UNL     1       0.158   0.639  24.123  0.00  0.00    +0.133 C 
ATOM     13  C   UNL     1      -3.032   2.012  23.347  0.00  0.00    +0.305 C 
ATOM     14  C   UNL     1      -1.342   1.100  21.650  0.00  0.00    +0.128 C 
ATOM     18  C   UNL     1      -0.388  -0.082  21.823  0.00  0.00    +0.128 C 
ATOM     19  C   UNL     1       2.022   0.149  22.410  0.00  0.00    +0.307 C 
ATOM     26  H   UNL     1       2.637   1.197  24.091  0.00  0.00    +0.156 HD
ENDROOT
BRANCH   3   8
ATOM      8  C   UNL     1      -4.001   2.862  25.533  0.00  0.00    +0.078 C 
ATOM     10  C   UNL     1      -4.595   4.167  24.999  0.00  0.00    +0.022 C 
ATOM     11  C   UNL     1      -5.070   1.774  25.658  0.00  0.00    +0.022 C 
ATOM     15  C   UNL     1      -5.778   4.633  25.843  0.00  0.00    +0.002 C 
ATOM     16  C   UNL     1      -6.254   2.243  26.501  0.00  0.00    +0.002 C 
ATOM     17  C   UNL     1      -6.842   3.546  25.969  0.00  0.00    +0.000 C 
ENDBRANCH   3   8
BRANCH   6  20
ATOM     20  C   UNL     1       4.244   0.015  23.590  0.00  0.00    +0.035 A 
ATOM     21  C   UNL     1       4.444  -1.342  23.841  0.00  0.00    +0.023 A 
ATOM     22  C   UNL     1       5.335   0.880  23.525  0.00  0.00    +0.023 A 
ATOM     23  C   UNL     1       5.736  -1.834  24.026  0.00  0.00    +0.002 A 
ATOM     24  C   UNL     1       6.627   0.388  23.710  0.00  0.00    +0.002 A 
ATOM     25  C   UNL     1       6.828  -0.969  23.962  0.00  0.00    +0.000 A 
ENDBRANCH   6  20
TORSDOF 2
ENDMDL
MODEL 3
REMARK VINA RESULT:       8.6     15.775     18.550
REMARK  Name = 75537023
REMARK  2 active torsions:
REMARK  status: ('A' for Active; 'I' for Inactive)
REMARK    1  A    between atoms: N_3  and  C_8
REMARK    2  A    between atoms: N_6  and  C_20
REMARK                            x       y       z     vdW  Elec       q    Type
REMARK                         _______ _______ _______ _____ _____    ______ ____
ROOT
ATOM      1  O   UNL     1      -1.137  -9.475  14.779  0.00  0.00    -0.252 OA
ATOM      2  O   UNL     1      -7.799 -10.356  13.166  0.00  0.00    -0.252 OA
ATOM      3  N   UNL     1      -1.165  -9.016  12.466  0.00  0.00    -0.281 N 
ATOM      4  N   UNL     1      -3.109  -9.459  13.502  0.00  0.00    -0.278 N 
ATOM      5  N   UNL     1      -5.573 -10.331  12.554  0.00  0.00    -0.282 N 
ATOM      6  N   UNL     1      -7.241  -9.695  11.014  0.00  0.00    -0.269 N 
ATOM      7  C   UNL     1      -3.489  -9.109  12.143  0.00  0.00    +0.112 C 
ATOM      9  C   UNL     1      -2.157  -9.029  11.404  0.00  0.00    +0.133 C 
ATOM     12  C   UNL     1      -4.467 -10.140  11.591  0.00  0.00    +0.133 C 
ATOM     13  C   UNL     1      -1.730  -9.331  13.717  0.00  0.00    +0.305 C 
ATOM     14  C   UNL     1      -4.134  -9.787  14.480  0.00  0.00    +0.128 C 
ATOM     18  C   UNL     1      -5.131 -10.780  13.884  0.00  0.00    +0.128 C 
ATOM     19  C   UNL     1      -6.947 -10.150  12.299  0.00  0.00    +0.307 C 
ATOM     26  H   UNL     1      -6.547  -9.131  10.536  0.00  0.00    +0.156 HD
ENDROOT
BRANCH   3   8
ATOM      8  C   UNL     1       0.241  -8.838  12.196  0.00  0.00    +0.078 C 
ATOM     10  C   UNL     1       0.554  -9.146  10.729  0.00  0.00    +0.022 C 
ATOM     11  C   UNL     1       0.685  -7.423  12.575  0.00  0.00    +0.022 C 
ATOM     15  C   UNL     1       2.028  -8.911  10.409  0.00  0.00    +0.002 C 
ATOM     16  C   UNL     1       2.158  -7.190  12.251  0.00  0.00    +0.002 C 
ATOM     17  C   UNL     1       2.469  -7.500  10.790  0.00  0.00    +0.000 C 
ENDBRANCH   3   8
BRANCH   6  20
ATOM     20  C   UNL     1      -8.412  -9.954  10.258  0.00  0.00    +0.035 A 
ATOM     21  C   UNL     1      -9.566 -10.408  10.895  0.00  0.00    +0.023 A 
ATOM     22  C   UNL     1      -8.408  -9.756   8.878  0.00  0.00    +0.023 A 
ATOM     23  C   UNL     1     -10.718 -10.664  10.151  0.00  0.00    +0.002 A 
ATOM     24  C   UNL     1      -9.560 -10.012   8.135  0.00  0.00    +0.002 A 
ATOM     25  C   UNL     1     -10.716 -10.466   8.771  0.00  0.00    +0.000 A 
ENDBRANCH   6  20
TORSDOF 2
ENDMDL
