MODEL 1
REMARK VINA RESULT:      -0.5      0.000      0.000
REMARK  Name = 56774753
REMARK  9 active torsions:
REMARK  status: ('A' for Active; 'I' for Inactive)
REMARK    1  A    between atoms: O_2  and  C_11
REMARK    2  A    between atoms: O_4  and  C_20
REMARK    3  A    between atoms: O_4  and  C_28
REMARK    4  A    between atoms: N_6  and  C_13
REMARK    5  A    between atoms: N_7  and  C_24
REMARK    6  A    between atoms: C_10  and  C_11
REMARK    7  A    between atoms: C_11  and  C_15
REMARK    8  A    between atoms: C_13  and  C_17
REMARK    9  A    between atoms: C_29  and  C_30
REMARK                            x       y       z     vdW  Elec       q    Type
REMARK                         _______ _______ _______ _____ _____    ______ ____
ROOT
ATOM     11  C   UNL     1      -3.029   4.051  25.992  0.00  0.00    +0.167 C 
ENDROOT
BRANCH  11  10
ATOM      1  O   UNL     1      -4.358   4.263  23.385  0.00  0.00    -0.369 OA
ATOM      3  O   UNL     1      -3.109   0.895  23.009  0.00  0.00    -0.273 OA
ATOM      6  N   UNL     1      -3.848   1.980  24.931  0.00  0.00    -0.287 N 
ATOM     10  C   UNL     1      -4.255   3.249  25.547  0.00  0.00    +0.135 C 
ATOM     12  C   UNL     1      -5.111   4.051  24.573  0.00  0.00    +0.185 C 
ATOM     14  C   UNL     1      -3.614   1.874  23.561  0.00  0.00    +0.242 C 
ATOM     16  C   UNL     1      -4.110   3.045  22.719  0.00  0.00    +0.255 C 
BRANCH   6  13
ATOM     13  C   UNL     1      -3.516   0.876  25.821  0.00  0.00    +0.147 C 
BRANCH  13  17
ATOM     17  C   UNL     1      -3.558  -0.448  25.113  0.00  0.00    +0.011 A 
ATOM     20  C   UNL     1      -2.451  -1.298  25.124  0.00  0.00    +0.125 A 
ATOM     21  C   UNL     1      -4.720  -0.825  24.440  0.00  0.00    +0.009 A 
ATOM     25  C   UNL     1      -2.506  -2.524  24.462  0.00  0.00    +0.046 A 
ATOM     26  C   UNL     1      -4.775  -2.052  23.778  0.00  0.00    +0.001 A 
ATOM     27  C   UNL     1      -3.668  -2.901  23.789  0.00  0.00    +0.004 A 
BRANCH  20   4
ATOM      4  O   UNL     1      -1.309  -0.945  25.778  0.00  0.00    -0.495 OA
ATOM     28  C   UNL     1      -0.136  -1.704  25.489  0.00  0.00    +0.277 C 
ENDBRANCH  20   4
ENDBRANCH  13  17
ENDBRANCH   6  13
ENDBRANCH  11  10
BRANCH  11  15
ATOM     15  C   UNL     1      -1.742   3.369  25.601  0.00  0.00    -0.017 A 
ATOM     18  C   UNL     1      -1.231   3.530  24.312  0.00  0.00    +0.008 A 
ATOM     19  C   UNL     1      -1.062   2.579  26.527  0.00  0.00    +0.008 A 
ATOM     22  C   UNL     1      -0.041   2.899  23.950  0.00  0.00    +0.023 A 
ATOM     23  C   UNL     1       0.128   1.948  26.164  0.00  0.00    +0.023 A 
ATOM     24  C   UNL     1       0.639   2.107  24.876  0.00  0.00    +0.034 A 
BRANCH  24   7
ATOM      5  O   UNL     1       1.190   0.109  22.711  0.00  0.00    -0.268 OA
ATOM      7  N   UNL     1       1.828   1.476  24.514  0.00  0.00    -0.280 N 
ATOM     29  C   UNL     1       2.033   0.545  23.487  0.00  0.00    +0.268 C 
ATOM     35  H   UNL     1       2.644   1.734  25.066  0.00  0.00    +0.155 HD
BRANCH  29  30
ATOM      8  N   UNL     1       3.693  -1.187  23.741  0.00  0.00    -0.247 NA
ATOM      9  N   UNL     1       5.682   0.457  22.641  0.00  0.00    -0.259 NA
ATOM     30  C   UNL     1       3.433   0.069  23.328  0.00  0.00    +0.144 A 
ATOM     31  C   UNL     1       4.409   0.876  22.788  0.00  0.00    +0.143 A 
ATOM     32  C   UNL     1       4.965  -1.608  23.594  0.00  0.00    +0.131 A 
ATOM     33  C   UNL     1       5.942  -0.800  23.054  0.00  0.00    +0.130 A 
ENDBRANCH  29  30
ENDBRANCH  24   7
ENDBRANCH  11  15
BRANCH  11   2
ATOM      2  O   UNL     1      -3.075   5.348  25.408  0.00  0.00    -0.385 OA
ATOM     34  H   UNL     1      -2.717   5.991  26.041  0.00  0.00    +0.210 HD
ENDBRANCH  11   2
TORSDOF 8
ENDMDL
MODEL 2
REMARK VINA RESULT:       0.3      1.890      3.982
REMARK  Name = 56774753
REMARK  9 active torsions:
REMARK  status: ('A' for Active; 'I' for Inactive)
REMARK    1  A    between atoms: O_2  and  C_11
REMARK    2  A    between atoms: O_4  and  C_20
REMARK    3  A    between atoms: O_4  and  C_28
REMARK    4  A    between atoms: N_6  and  C_13
REMARK    5  A    between atoms: N_7  and  C_24
REMARK    6  A    between atoms: C_10  and  C_11
REMARK    7  A    between atoms: C_11  and  C_15
REMARK    8  A    between atoms: C_13  and  C_17
REMARK    9  A    between atoms: C_29  and  C_30
REMARK                            x       y       z     vdW  Elec       q    Type
REMARK                         _______ _______ _______ _____ _____    ______ ____
ROOT
ATOM     11  C   UNL     1      -4.195   0.781  23.963  0.00  0.00    +0.167 C 
ENDROOT
BRANCH  11  10
ATOM      1  O   UNL     1      -6.918   1.856  24.162  0.00  0.00    -0.369 OA
ATOM      3  O   UNL     1      -6.000   2.239  27.634  0.00  0.00    -0.273 OA
ATOM      6  N   UNL     1      -4.669   2.431  25.735  0.00  0.00    -0.287 N 
ATOM     10  C   UNL     1      -4.561   2.233  24.284  0.00  0.00    +0.135 C 
ATOM     12  C   UNL     1      -5.865   2.634  23.604  0.00  0.00    +0.185 C 
ATOM     14  C   UNL     1      -5.876   2.258  26.408  0.00  0.00    +0.242 C 
ATOM     16  C   UNL     1      -7.115   2.173  25.522  0.00  0.00    +0.255 C 
BRANCH   6  13
ATOM     13  C   UNL     1      -3.434   2.634  26.480  0.00  0.00    +0.147 C 
BRANCH  13  17
ATOM     17  C   UNL     1      -2.538   3.641  25.819  0.00  0.00    +0.011 A 
ATOM     20  C   UNL     1      -1.157   3.441  25.766  0.00  0.00    +0.125 A 
ATOM     21  C   UNL     1      -3.098   4.785  25.252  0.00  0.00    +0.009 A 
ATOM     25  C   UNL     1      -0.339   4.385  25.148  0.00  0.00    +0.046 A 
ATOM     26  C   UNL     1      -2.280   5.730  24.633  0.00  0.00    +0.001 A 
ATOM     27  C   UNL     1      -0.900   5.530  24.582  0.00  0.00    +0.004 A 
BRANCH  20   4
ATOM      4  O   UNL     1      -0.593   2.328  26.314  0.00  0.00    -0.495 OA
ATOM     28  C   UNL     1       0.553   2.522  27.140  0.00  0.00    +0.277 C 
ENDBRANCH  20   4
ENDBRANCH  13  17
ENDBRANCH   6  13
ENDBRANCH  11  10
BRANCH  11  15
ATOM     15  C   UNL     1      -2.702   0.567  23.958  0.00  0.00    -0.017 A 
ATOM     18  C   UNL     1      -2.141  -0.452  24.728  0.00  0.00    +0.008 A 
ATOM     19  C   UNL     1      -1.883   1.389  23.185  0.00  0.00    +0.008 A 
ATOM     22  C   UNL     1      -0.760  -0.650  24.724  0.00  0.00    +0.023 A 
ATOM     23  C   UNL     1      -0.502   1.191  23.181  0.00  0.00    +0.023 A 
ATOM     24  C   UNL     1       0.060   0.172  23.950  0.00  0.00    +0.034 A 
BRANCH  24   7
ATOM      5  O   UNL     1       1.959  -0.192  21.660  0.00  0.00    -0.268 OA
ATOM      7  N   UNL     1       1.441  -0.024  23.947  0.00  0.00    -0.280 N 
ATOM     29  C   UNL     1       2.286  -0.189  22.842  0.00  0.00    +0.268 C 
ATOM     35  H   UNL     1       1.880  -0.044  24.865  0.00  0.00    +0.155 HD
BRANCH  29  30
ATOM      8  N   UNL     1       4.102  -1.541  23.676  0.00  0.00    -0.247 NA
ATOM      9  N   UNL     1       5.942   0.529  23.233  0.00  0.00    -0.259 NA
ATOM     30  C   UNL     1       3.729  -0.352  23.162  0.00  0.00    +0.144 A 
ATOM     31  C   UNL     1       4.632   0.664  22.945  0.00  0.00    +0.143 A 
ATOM     32  C   UNL     1       5.412  -1.677  23.964  0.00  0.00    +0.131 A 
ATOM     33  C   UNL     1       6.316  -0.659  23.747  0.00  0.00    +0.130 A 
ENDBRANCH  29  30
ENDBRANCH  24   7
ENDBRANCH  11  15
BRANCH  11   2
ATOM      2  O   UNL     1      -4.794  -0.080  24.925  0.00  0.00    -0.385 OA
ATOM     34  H   UNL     1      -5.726  -0.216  24.689  0.00  0.00    +0.210 HD
ENDBRANCH  11   2
TORSDOF 8
ENDMDL
MODEL 3
REMARK VINA RESULT:       0.4      1.541      2.390
REMARK  Name = 56774753
REMARK  9 active torsions:
REMARK  status: ('A' for Active; 'I' for Inactive)
REMARK    1  A    between atoms: O_2  and  C_11
REMARK    2  A    between atoms: O_4  and  C_20
REMARK    3  A    between atoms: O_4  and  C_28
REMARK    4  A    between atoms: N_6  and  C_13
REMARK    5  A    between atoms: N_7  and  C_24
REMARK    6  A    between atoms: C_10  and  C_11
REMARK    7  A    between atoms: C_11  and  C_15
REMARK    8  A    between atoms: C_13  and  C_17
REMARK    9  A    between atoms: C_29  and  C_30
REMARK                            x       y       z     vdW  Elec       q    Type
REMARK                         _______ _______ _______ _____ _____    ______ ____
ROOT
ATOM     11  C   UNL     1      -3.322   2.870  24.197  0.00  0.00    +0.167 C 
ENDROOT
BRANCH  11  10
ATOM      1  O   UNL     1      -5.318   4.368  25.740  0.00  0.00    -0.369 OA
ATOM      3  O   UNL     1      -7.534   1.837  24.426  0.00  0.00    -0.273 OA
ATOM      6  N   UNL     1      -5.296   1.653  25.037  0.00  0.00    -0.287 N 
ATOM     10  C   UNL     1      -4.068   2.355  25.431  0.00  0.00    +0.135 C 
ATOM     12  C   UNL     1      -4.401   3.494  26.387  0.00  0.00    +0.185 C 
ATOM     14  C   UNL     1      -6.512   2.323  24.913  0.00  0.00    +0.242 C 
ATOM     16  C   UNL     1      -6.552   3.726  25.511  0.00  0.00    +0.255 C 
BRANCH   6  13
ATOM     13  C   UNL     1      -5.171   0.269  24.602  0.00  0.00    +0.147 C 
BRANCH  13  17
ATOM     17  C   UNL     1      -3.852  -0.328  24.999  0.00  0.00    +0.011 A 
ATOM     20  C   UNL     1      -3.308  -1.395  24.284  0.00  0.00    +0.125 A 
ATOM     21  C   UNL     1      -3.168   0.197  26.095  0.00  0.00    +0.009 A 
ATOM     25  C   UNL     1      -2.081  -1.938  24.665  0.00  0.00    +0.046 A 
ATOM     26  C   UNL     1      -1.941  -0.346  26.478  0.00  0.00    +0.001 A 
ATOM     27  C   UNL     1      -1.398  -1.413  25.763  0.00  0.00    +0.004 A 
BRANCH  20   4
ATOM      4  O   UNL     1      -3.962  -1.919  23.209  0.00  0.00    -0.495 OA
ATOM     28  C   UNL     1      -4.590  -3.187  23.388  0.00  0.00    +0.277 C 
ENDBRANCH  20   4
ENDBRANCH  13  17
ENDBRANCH   6  13
ENDBRANCH  11  10
BRANCH  11  15
ATOM     15  C   UNL     1      -1.908   2.350  24.139  0.00  0.00    -0.017 A 
ATOM     18  C   UNL     1      -1.542   1.433  23.153  0.00  0.00    +0.008 A 
ATOM     19  C   UNL     1      -0.966   2.786  25.071  0.00  0.00    +0.008 A 
ATOM     22  C   UNL     1      -0.234   0.952  23.100  0.00  0.00    +0.023 A 
ATOM     23  C   UNL     1       0.342   2.304  25.018  0.00  0.00    +0.023 A 
ATOM     24  C   UNL     1       0.709   1.387  24.032  0.00  0.00    +0.034 A 
BRANCH  24   7
ATOM      5  O   UNL     1       2.081  -0.268  21.944  0.00  0.00    -0.268 OA
ATOM      7  N   UNL     1       2.016   0.905  23.980  0.00  0.00    -0.280 N 
ATOM     29  C   UNL     1       2.611   0.132  22.975  0.00  0.00    +0.268 C 
ATOM     35  H   UNL     1       2.605   1.156  24.772  0.00  0.00    +0.155 HD
BRANCH  29  30
ATOM      8  N   UNL     1       4.306  -1.439  23.666  0.00  0.00    -0.247 NA
ATOM      9  N   UNL     1       6.344   0.409  23.121  0.00  0.00    -0.259 NA
ATOM     30  C   UNL     1       4.043  -0.205  23.192  0.00  0.00    +0.144 A 
ATOM     31  C   UNL     1       5.044   0.703  22.925  0.00  0.00    +0.143 A 
ATOM     32  C   UNL     1       5.607  -1.733  23.862  0.00  0.00    +0.131 A 
ATOM     33  C   UNL     1       6.608  -0.825  23.595  0.00  0.00    +0.130 A 
ENDBRANCH  29  30
ENDBRANCH  24   7
ENDBRANCH  11  15
BRANCH  11   2
ATOM      2  O   UNL     1      -4.022   2.473  23.023  0.00  0.00    -0.385 OA
ATOM     34  H   UNL     1      -3.662   2.959  22.262  0.00  0.00    +0.210 HD
ENDBRANCH  11   2
TORSDOF 8
ENDMDL
MODEL 4
REMARK VINA RESULT:       3.3      1.839      4.357
REMARK  Name = 56774753
REMARK  9 active torsions:
REMARK  status: ('A' for Active; 'I' for Inactive)
REMARK    1  A    between atoms: O_2  and  C_11
REMARK    2  A    between atoms: O_4  and  C_20
REMARK    3  A    between atoms: O_4  and  C_28
REMARK    4  A    between atoms: N_6  and  C_13
REMARK    5  A    between atoms: N_7  and  C_24
REMARK    6  A    between atoms: C_10  and  C_11
REMARK    7  A    between atoms: C_11  and  C_15
REMARK    8  A    between atoms: C_13  and  C_17
REMARK    9  A    between atoms: C_29  and  C_30
REMARK                            x       y       z     vdW  Elec       q    Type
REMARK                         _______ _______ _______ _____ _____    ______ ____
ROOT
ATOM     11  C   UNL     1      -3.927   0.371  24.267  0.00  0.00    +0.167 C 
ENDROOT
BRANCH  11  10
ATOM      1  O   UNL     1      -6.577   1.569  23.878  0.00  0.00    -0.369 OA
ATOM      3  O   UNL     1      -6.184   2.406  27.369  0.00  0.00    -0.273 OA
ATOM      6  N   UNL     1      -4.566   2.273  25.701  0.00  0.00    -0.287 N 
ATOM     10  C   UNL     1      -4.248   1.867  24.326  0.00  0.00    +0.135 C 
ATOM     12  C   UNL     1      -5.405   2.218  23.397  0.00  0.00    +0.185 C 
ATOM     14  C   UNL     1      -5.871   2.245  26.187  0.00  0.00    +0.242 C 
ATOM     16  C   UNL     1      -6.962   2.084  25.132  0.00  0.00    +0.255 C 
BRANCH   6  13
ATOM     13  C   UNL     1      -3.451   2.531  26.602  0.00  0.00    +0.147 C 
BRANCH  13  17
ATOM     17  C   UNL     1      -2.342   3.282  25.922  0.00  0.00    +0.011 A 
ATOM     20  C   UNL     1      -2.601   4.468  25.233  0.00  0.00    +0.125 A 
ATOM     21  C   UNL     1      -1.042   2.782  25.985  0.00  0.00    +0.009 A 
ATOM     25  C   UNL     1      -1.561   5.153  24.608  0.00  0.00    +0.046 A 
ATOM     26  C   UNL     1       0.000   3.468  25.359  0.00  0.00    +0.001 A 
ATOM     27  C   UNL     1      -0.260   4.652  24.670  0.00  0.00    +0.004 A 
BRANCH  20   4
ATOM      4  O   UNL     1      -3.866   4.970  25.163  0.00  0.00    -0.495 OA
ATOM     28  C   UNL     1      -4.327   5.387  23.880  0.00  0.00    +0.277 C 
ENDBRANCH  20   4
ENDBRANCH  13  17
ENDBRANCH   6  13
ENDBRANCH  11  10
BRANCH  11  15
ATOM     15  C   UNL     1      -2.445   0.121  24.143  0.00  0.00    -0.017 A 
ATOM     18  C   UNL     1      -1.841  -0.882  24.904  0.00  0.00    +0.008 A 
ATOM     19  C   UNL     1      -1.678   0.891  23.270  0.00  0.00    +0.008 A 
ATOM     22  C   UNL     1      -0.471  -1.113  24.791  0.00  0.00    +0.023 A 
ATOM     23  C   UNL     1      -0.307   0.659  23.157  0.00  0.00    +0.023 A 
ATOM     24  C   UNL     1       0.297  -0.342  23.917  0.00  0.00    +0.034 A 
BRANCH  24   7
ATOM      5  O   UNL     1       2.514   1.510  23.118  0.00  0.00    -0.268 OA
ATOM      7  N   UNL     1       1.668  -0.573  23.804  0.00  0.00    -0.280 N 
ATOM     29  C   UNL     1       2.667   0.332  23.426  0.00  0.00    +0.268 C 
ATOM     35  H   UNL     1       1.971  -1.518  24.033  0.00  0.00    +0.155 HD
BRANCH  29  30
ATOM      8  N   UNL     1       5.032   0.646  23.070  0.00  0.00    -0.247 NA
ATOM      9  N   UNL     1       5.564  -2.016  23.776  0.00  0.00    -0.259 NA
ATOM     30  C   UNL     1       4.052  -0.208  23.427  0.00  0.00    +0.144 A 
ATOM     31  C   UNL     1       4.313  -1.515  23.774  0.00  0.00    +0.143 A 
ATOM     32  C   UNL     1       6.284   0.145  23.071  0.00  0.00    +0.131 A 
ATOM     33  C   UNL     1       6.545  -1.164  23.419  0.00  0.00    +0.130 A 
ENDBRANCH  29  30
ENDBRANCH  24   7
ENDBRANCH  11  15
BRANCH  11   2
ATOM      2  O   UNL     1      -4.420  -0.265  25.441  0.00  0.00    -0.385 OA
ATOM     34  H   UNL     1      -4.570   0.410  26.124  0.00  0.00    +0.210 HD
ENDBRANCH  11   2
TORSDOF 8
ENDMDL
