MODEL 1
REMARK VINA RESULT:      -3.9      0.000      0.000
REMARK  Name = 56774898
REMARK  6 active torsions:
REMARK  status: ('A' for Active; 'I' for Inactive)
REMARK    1  A    between atoms: O_2  and  C_10
REMARK    2  A    between atoms: N_5  and  C_15
REMARK    3  A    between atoms: N_6  and  C_20
REMARK    4  A    between atoms: C_9  and  C_10
REMARK    5  A    between atoms: C_10  and  C_12
REMARK    6  A    between atoms: C_21  and  C_22
REMARK                            x       y       z     vdW  Elec       q    Type
REMARK                         _______ _______ _______ _____ _____    ______ ____
ROOT
ATOM     12  C   UNL     1      -3.277   0.913  24.386  0.00  0.00    -0.017 A 
ATOM     16  C   UNL     1      -2.531   0.583  25.518  0.00  0.00    +0.008 A 
ATOM     17  C   UNL     1      -2.645   1.048  23.150  0.00  0.00    +0.008 A 
ATOM     18  C   UNL     1      -1.155   0.389  25.414  0.00  0.00    +0.023 A 
ATOM     19  C   UNL     1      -1.268   0.854  23.046  0.00  0.00    +0.023 A 
ATOM     20  C   UNL     1      -0.523   0.525  24.178  0.00  0.00    +0.034 A 
ENDROOT
BRANCH  20   6
ATOM      4  O   UNL     1       1.149  -0.268  21.819  0.00  0.00    -0.268 OA
ATOM      6  N   UNL     1       0.855   0.331  24.073  0.00  0.00    -0.280 N 
ATOM     21  C   UNL     1       1.591  -0.042  22.941  0.00  0.00    +0.268 C 
ATOM     27  H   UNL     1       1.383   0.484  24.931  0.00  0.00    +0.155 HD
BRANCH  21  22
ATOM      7  N   UNL     1       3.524  -1.306  23.637  0.00  0.00    -0.247 NA
ATOM      8  N   UNL     1       5.234   0.825  23.008  0.00  0.00    -0.259 NA
ATOM     22  C   UNL     1       3.060  -0.143  23.139  0.00  0.00    +0.144 A 
ATOM     23  C   UNL     1       3.900   0.904  22.831  0.00  0.00    +0.143 A 
ATOM     24  C   UNL     1       4.857  -1.385  23.815  0.00  0.00    +0.131 A 
ATOM     25  C   UNL     1       5.697  -0.338  23.506  0.00  0.00    +0.130 A 
ENDBRANCH  21  22
ENDBRANCH  20   6
BRANCH  12  10
ATOM     10  C   UNL     1      -4.765   1.123  24.500  0.00  0.00    +0.167 C 
BRANCH  10   9
ATOM      1  O   UNL     1      -4.675   3.068  26.694  0.00  0.00    -0.369 OA
ATOM      3  O   UNL     1      -2.037   4.498  24.684  0.00  0.00    -0.273 OA
ATOM      5  N   UNL     1      -3.976   3.406  24.000  0.00  0.00    -0.295 N 
ATOM      9  C   UNL     1      -5.140   2.604  24.397  0.00  0.00    +0.134 C 
ATOM     11  C   UNL     1      -5.704   3.120  25.715  0.00  0.00    +0.185 C 
ATOM     13  C   UNL     1      -3.117   3.964  24.946  0.00  0.00    +0.241 C 
ATOM     14  C   UNL     1      -3.633   3.964  26.380  0.00  0.00    +0.255 C 
ATOM     15  C   UNL     1      -3.639   3.450  22.583  0.00  0.00    +0.132 C 
ENDBRANCH  10   9
BRANCH  10   2
ATOM      2  O   UNL     1      -5.224   0.607  25.746  0.00  0.00    -0.385 OA
ATOM     26  H   UNL     1      -5.442  -0.334  25.632  0.00  0.00    +0.210 HD
ENDBRANCH  10   2
ENDBRANCH  12  10
TORSDOF 5
ENDMDL
MODEL 2
REMARK VINA RESULT:      -1.9      1.363      2.794
REMARK  Name = 56774898
REMARK  6 active torsions:
REMARK  status: ('A' for Active; 'I' for Inactive)
REMARK    1  A    between atoms: O_2  and  C_10
REMARK    2  A    between atoms: N_5  and  C_15
REMARK    3  A    between atoms: N_6  and  C_20
REMARK    4  A    between atoms: C_9  and  C_10
REMARK    5  A    between atoms: C_10  and  C_12
REMARK    6  A    between atoms: C_21  and  C_22
REMARK                            x       y       z     vdW  Elec       q    Type
REMARK                         _______ _______ _______ _____ _____    ______ ____
ROOT
ATOM     12  C   UNL     1      -2.249   3.004  25.374  0.00  0.00    -0.017 A 
ATOM     16  C   UNL     1      -1.311   3.760  24.672  0.00  0.00    +0.008 A 
ATOM     17  C   UNL     1      -1.943   1.700  25.763  0.00  0.00    +0.008 A 
ATOM     18  C   UNL     1      -0.068   3.214  24.358  0.00  0.00    +0.023 A 
ATOM     19  C   UNL     1      -0.699   1.153  25.451  0.00  0.00    +0.023 A 
ATOM     20  C   UNL     1       0.239   1.909  24.748  0.00  0.00    +0.034 A 
ENDROOT
BRANCH  20   6
ATOM      4  O   UNL     1       1.005  -0.082  22.641  0.00  0.00    -0.268 OA
ATOM      6  N   UNL     1       1.483   1.362  24.435  0.00  0.00    -0.280 N 
ATOM     21  C   UNL     1       1.789   0.429  23.435  0.00  0.00    +0.268 C 
ATOM     27  H   UNL     1       2.260   1.689  25.007  0.00  0.00    +0.155 HD
BRANCH  21  22
ATOM      7  N   UNL     1       3.560  -1.176  23.758  0.00  0.00    -0.247 NA
ATOM      8  N   UNL     1       5.462   0.603  22.718  0.00  0.00    -0.259 NA
ATOM     22  C   UNL     1       3.224   0.056  23.328  0.00  0.00    +0.144 A 
ATOM     23  C   UNL     1       4.158   0.930  22.818  0.00  0.00    +0.143 A 
ATOM     24  C   UNL     1       4.864  -1.503  23.659  0.00  0.00    +0.131 A 
ATOM     25  C   UNL     1       5.798  -0.629  23.148  0.00  0.00    +0.130 A 
ENDBRANCH  21  22
ENDBRANCH  20   6
BRANCH  12  10
ATOM     10  C   UNL     1      -3.594   3.596  25.712  0.00  0.00    +0.167 C 
BRANCH  10   9
ATOM      1  O   UNL     1      -3.111   2.347  23.102  0.00  0.00    -0.369 OA
ATOM      3  O   UNL     1      -4.683  -0.485  24.699  0.00  0.00    -0.273 OA
ATOM      5  N   UNL     1      -5.106   1.785  24.989  0.00  0.00    -0.295 N 
ATOM      9  C   UNL     1      -4.673   3.162  24.716  0.00  0.00    +0.134 C 
ATOM     11  C   UNL     1      -4.173   3.275  23.281  0.00  0.00    +0.185 C 
ATOM     13  C   UNL     1      -4.486   0.691  24.388  0.00  0.00    +0.241 C 
ATOM     14  C   UNL     1      -3.575   1.020  23.211  0.00  0.00    +0.255 C 
ATOM     15  C   UNL     1      -6.083   1.585  26.051  0.00  0.00    +0.132 C 
ENDBRANCH  10   9
BRANCH  10   2
ATOM      2  O   UNL     1      -3.500   5.017  25.714  0.00  0.00    -0.385 OA
ATOM     26  H   UNL     1      -3.571   5.332  26.631  0.00  0.00    +0.210 HD
ENDBRANCH  10   2
ENDBRANCH  12  10
TORSDOF 5
ENDMDL
MODEL 3
REMARK VINA RESULT:      -1.1      1.500      2.655
REMARK  Name = 56774898
REMARK  6 active torsions:
REMARK  status: ('A' for Active; 'I' for Inactive)
REMARK    1  A    between atoms: O_2  and  C_10
REMARK    2  A    between atoms: N_5  and  C_15
REMARK    3  A    between atoms: N_6  and  C_20
REMARK    4  A    between atoms: C_9  and  C_10
REMARK    5  A    between atoms: C_10  and  C_12
REMARK    6  A    between atoms: C_21  and  C_22
REMARK                            x       y       z     vdW  Elec       q    Type
REMARK                         _______ _______ _______ _____ _____    ______ ____
ROOT
ATOM     12  C   UNL     1      -2.158   2.761  24.594  0.00  0.00    -0.017 A 
ATOM     16  C   UNL     1      -1.849   1.970  23.488  0.00  0.00    +0.008 A 
ATOM     17  C   UNL     1      -1.183   3.026  25.556  0.00  0.00    +0.008 A 
ATOM     18  C   UNL     1      -0.567   1.443  23.343  0.00  0.00    +0.023 A 
ATOM     19  C   UNL     1       0.100   2.500  25.412  0.00  0.00    +0.023 A 
ATOM     20  C   UNL     1       0.408   1.708  24.305  0.00  0.00    +0.034 A 
ENDROOT
BRANCH  20   6
ATOM      4  O   UNL     1       1.504  -0.195  22.263  0.00  0.00    -0.268 OA
ATOM      6  N   UNL     1       1.692   1.181  24.161  0.00  0.00    -0.280 N 
ATOM     21  C   UNL     1       2.155   0.290  23.183  0.00  0.00    +0.268 C 
ATOM     27  H   UNL     1       2.371   1.490  24.854  0.00  0.00    +0.155 HD
BRANCH  21  22
ATOM      7  N   UNL     1       3.878  -1.306  23.731  0.00  0.00    -0.247 NA
ATOM      8  N   UNL     1       5.890   0.506  23.003  0.00  0.00    -0.259 NA
ATOM     22  C   UNL     1       3.594  -0.070  23.277  0.00  0.00    +0.144 A 
ATOM     23  C   UNL     1       4.582   0.820  22.920  0.00  0.00    +0.143 A 
ATOM     24  C   UNL     1       5.186  -1.621  23.815  0.00  0.00    +0.131 A 
ATOM     25  C   UNL     1       6.174  -0.731  23.457  0.00  0.00    +0.130 A 
ENDBRANCH  21  22
ENDBRANCH  20   6
BRANCH  12  10
ATOM     10  C   UNL     1      -3.545   3.330  24.750  0.00  0.00    +0.167 C 
BRANCH  10   9
ATOM      1  O   UNL     1      -6.432   2.822  24.629  0.00  0.00    -0.369 OA
ATOM      3  O   UNL     1      -5.332  -0.597  24.250  0.00  0.00    -0.273 OA
ATOM      5  N   UNL     1      -4.372   1.125  25.486  0.00  0.00    -0.295 N 
ATOM      9  C   UNL     1      -4.361   2.561  25.793  0.00  0.00    +0.134 C 
ATOM     11  C   UNL     1      -5.789   3.088  25.869  0.00  0.00    +0.185 C 
ATOM     13  C   UNL     1      -5.359   0.557  24.683  0.00  0.00    +0.241 C 
ATOM     14  C   UNL     1      -6.577   1.435  24.422  0.00  0.00    +0.255 C 
ATOM     15  C   UNL     1      -3.214   0.341  25.895  0.00  0.00    +0.132 C 
ENDBRANCH  10   9
BRANCH  10   2
ATOM      2  O   UNL     1      -4.220   3.284  23.497  0.00  0.00    -0.385 OA
ATOM     26  H   UNL     1      -5.066   3.757  23.581  0.00  0.00    +0.210 HD
ENDBRANCH  10   2
ENDBRANCH  12  10
TORSDOF 5
ENDMDL
MODEL 4
REMARK VINA RESULT:      -0.4     16.369     18.334
REMARK  Name = 56774898
REMARK  6 active torsions:
REMARK  status: ('A' for Active; 'I' for Inactive)
REMARK    1  A    between atoms: O_2  and  C_10
REMARK    2  A    between atoms: N_5  and  C_15
REMARK    3  A    between atoms: N_6  and  C_20
REMARK    4  A    between atoms: C_9  and  C_10
REMARK    5  A    between atoms: C_10  and  C_12
REMARK    6  A    between atoms: C_21  and  C_22
REMARK                            x       y       z     vdW  Elec       q    Type
REMARK                         _______ _______ _______ _____ _____    ______ ____
ROOT
ATOM     12  C   UNL     1      -9.693  -9.594  11.638  0.00  0.00    -0.017 A 
ATOM     16  C   UNL     1     -10.672 -10.411  12.203  0.00  0.00    +0.008 A 
ATOM     17  C   UNL     1      -8.749  -8.971  12.454  0.00  0.00    +0.008 A 
ATOM     18  C   UNL     1     -10.707 -10.606  13.583  0.00  0.00    +0.023 A 
ATOM     19  C   UNL     1      -8.783  -9.166  13.834  0.00  0.00    +0.023 A 
ATOM     20  C   UNL     1      -9.763  -9.983  14.399  0.00  0.00    +0.034 A 
ENDROOT
BRANCH  20   6
ATOM      4  O   UNL     1      -7.523 -10.234  16.377  0.00  0.00    -0.268 OA
ATOM      6  N   UNL     1      -9.797 -10.178  15.780  0.00  0.00    -0.280 N 
ATOM     21  C   UNL     1      -8.715 -10.289  16.663  0.00  0.00    +0.268 C 
ATOM     27  H   UNL     1     -10.728 -10.243  16.188  0.00  0.00    +0.155 HD
BRANCH  21  22
ATOM      7  N   UNL     1     -10.389 -10.568  18.378  0.00  0.00    -0.247 NA
ATOM      8  N   UNL     1      -8.427 -10.676  20.379  0.00  0.00    -0.259 NA
ATOM     22  C   UNL     1      -9.075 -10.466  18.094  0.00  0.00    +0.144 A 
ATOM     23  C   UNL     1      -8.112 -10.518  19.077  0.00  0.00    +0.143 A 
ATOM     24  C   UNL     1     -10.704 -10.725  19.679  0.00  0.00    +0.131 A 
ATOM     25  C   UNL     1      -9.741 -10.778  20.661  0.00  0.00    +0.130 A 
ENDBRANCH  21  22
ENDBRANCH  20   6
BRANCH  12  10
ATOM     10  C   UNL     1      -9.657  -9.384  10.146  0.00  0.00    +0.167 C 
BRANCH  10   9
ATOM      1  O   UNL     1      -7.804  -8.058   8.298  0.00  0.00    -0.369 OA
ATOM      3  O   UNL     1      -5.514  -8.454  11.062  0.00  0.00    -0.273 OA
ATOM      5  N   UNL     1      -7.245  -9.851  10.379  0.00  0.00    -0.295 N 
ATOM      9  C   UNL     1      -8.418 -10.023   9.511  0.00  0.00    +0.134 C 
ATOM     11  C   UNL     1      -8.139  -9.430   8.136  0.00  0.00    +0.185 C 
ATOM     13  C   UNL     1      -6.406  -8.744  10.263  0.00  0.00    +0.241 C 
ATOM     14  C   UNL     1      -6.589  -7.914   8.998  0.00  0.00    +0.255 C 
ATOM     15  C   UNL     1      -7.088 -10.781  11.490  0.00  0.00    +0.132 C 
ENDBRANCH  10   9
BRANCH  10   2
ATOM      2  O   UNL     1      -9.664  -7.988   9.863  0.00  0.00    -0.385 OA
ATOM     26  H   UNL     1      -9.748  -7.866   8.902  0.00  0.00    +0.210 HD
ENDBRANCH  10   2
ENDBRANCH  12  10
TORSDOF 5
ENDMDL
MODEL 5
REMARK VINA RESULT:       0.1     15.604     17.439
REMARK  Name = 56774898
REMARK  6 active torsions:
REMARK  status: ('A' for Active; 'I' for Inactive)
REMARK    1  A    between atoms: O_2  and  C_10
REMARK    2  A    between atoms: N_5  and  C_15
REMARK    3  A    between atoms: N_6  and  C_20
REMARK    4  A    between atoms: C_9  and  C_10
REMARK    5  A    between atoms: C_10  and  C_12
REMARK    6  A    between atoms: C_21  and  C_22
REMARK                            x       y       z     vdW  Elec       q    Type
REMARK                         _______ _______ _______ _____ _____    ______ ____
ROOT
ATOM     12  C   UNL     1      -7.803  -9.690  11.805  0.00  0.00    -0.017 A 
ATOM     16  C   UNL     1      -8.727 -10.472  12.499  0.00  0.00    +0.008 A 
ATOM     17  C   UNL     1      -6.744  -9.091  12.489  0.00  0.00    +0.008 A 
ATOM     18  C   UNL     1      -8.592 -10.656  13.874  0.00  0.00    +0.023 A 
ATOM     19  C   UNL     1      -6.609  -9.275  13.864  0.00  0.00    +0.023 A 
ATOM     20  C   UNL     1      -7.533 -10.057  14.557  0.00  0.00    +0.034 A 
ENDROOT
BRANCH  20   6
ATOM      4  O   UNL     1      -5.136  -9.732  16.329  0.00  0.00    -0.268 OA
ATOM      6  N   UNL     1      -7.398 -10.241  15.934  0.00  0.00    -0.280 N 
ATOM     21  C   UNL     1      -6.249 -10.075  16.718  0.00  0.00    +0.268 C 
ATOM     27  H   UNL     1      -8.245 -10.528  16.421  0.00  0.00    +0.155 HD
BRANCH  21  22
ATOM      7  N   UNL     1      -5.305 -10.392  18.915  0.00  0.00    -0.247 NA
ATOM      8  N   UNL     1      -7.854 -10.696  20.045  0.00  0.00    -0.259 NA
ATOM     22  C   UNL     1      -6.428 -10.321  18.172  0.00  0.00    +0.144 A 
ATOM     23  C   UNL     1      -7.679 -10.471  18.728  0.00  0.00    +0.143 A 
ATOM     24  C   UNL     1      -5.479 -10.618  20.232  0.00  0.00    +0.131 A 
ATOM     25  C   UNL     1      -6.731 -10.767  20.787  0.00  0.00    +0.130 A 
ENDBRANCH  21  22
ENDBRANCH  20   6
BRANCH  12  10
ATOM     10  C   UNL     1      -7.950  -9.492  10.319  0.00  0.00    +0.167 C 
BRANCH  10   9
ATOM      1  O   UNL     1      -6.397  -8.175   8.207  0.00  0.00    -0.369 OA
ATOM      3  O   UNL     1      -3.752  -8.427  10.654  0.00  0.00    -0.273 OA
ATOM      5  N   UNL     1      -5.516  -9.889  10.243  0.00  0.00    -0.295 N 
ATOM      9  C   UNL     1      -6.787 -10.117   9.543  0.00  0.00    +0.134 C 
ATOM     11  C   UNL     1      -6.709  -9.560   8.127  0.00  0.00    +0.185 C 
ATOM     13  C   UNL     1      -4.733  -8.764   9.988  0.00  0.00    +0.241 C 
ATOM     14  C   UNL     1      -5.105  -7.978   8.736  0.00  0.00    +0.255 C 
ATOM     15  C   UNL     1      -5.186 -10.780  11.348  0.00  0.00    +0.132 C 
ENDBRANCH  10   9
BRANCH  10   2
ATOM      2  O   UNL     1      -8.013  -8.098  10.029  0.00  0.00    -0.385 OA
ATOM     26  H   UNL     1      -7.212  -7.671  10.378  0.00  0.00    +0.210 HD
ENDBRANCH  10   2
ENDBRANCH  12  10
TORSDOF 5
ENDMDL
