MODEL 1
REMARK VINA RESULT:       0.4      0.000      0.000
REMARK  Name = 45783677
REMARK  6 active torsions:
REMARK  status: ('A' for Active; 'I' for Inactive)
REMARK    1  A    between atoms: N_2  and  C_13
REMARK    2  A    between atoms: N_3  and  C_22
REMARK    3  A    between atoms: N_7  and  C_29
REMARK    4  A    between atoms: C_9  and  C_14
REMARK    5  A    between atoms: C_13  and  C_15
REMARK    6  A    between atoms: C_20  and  C_25
REMARK                            x       y       z     vdW  Elec       q    Type
REMARK                         _______ _______ _______ _____ _____    ______ ____
ROOT
ATOM      2  N   UNL     1      -4.673   2.171  25.399  0.00  0.00    -0.287 NA
ATOM      9  C   UNL     1      -4.422   2.730  24.055  0.00  0.00    +0.146 C 
ATOM     10  C   UNL     1      -4.330   4.252  24.275  0.00  0.00    +0.030 C 
ATOM     11  C   UNL     1      -5.371   3.212  26.155  0.00  0.00    +0.085 C 
ATOM     12  C   UNL     1      -4.602   4.456  25.758  0.00  0.00    +0.017 C 
ENDROOT
BRANCH   9  14
ATOM      1  O   UNL     1      -3.267   1.850  22.089  0.00  0.00    -0.336 OA
ATOM      4  N   UNL     1      -2.009   1.904  23.942  0.00  0.00    -0.190 NA
ATOM      5  N   UNL     1      -2.013   1.344  21.723  0.00  0.00    -0.056 NA
ATOM     14  C   UNL     1      -3.177   2.157  23.410  0.00  0.00    +0.245 A 
ATOM     20  C   UNL     1      -1.328   1.407  22.868  0.00  0.00    +0.204 A 
BRANCH  20  25
ATOM      6  N   UNL     1       2.261   1.372  23.844  0.00  0.00    -0.237 NA
ATOM     25  C   UNL     1       0.039   0.983  22.973  0.00  0.00    +0.041 A 
ATOM     26  C   UNL     1       0.482  -0.173  22.338  0.00  0.00    +0.017 A 
ATOM     27  C   UNL     1       0.959   1.714  23.707  0.00  0.00    +0.124 A 
ATOM     28  C   UNL     1       1.813  -0.557  22.456  0.00  0.00    +0.047 A 
ATOM     29  C   UNL     1       2.654   0.242  23.213  0.00  0.00    +0.139 A 
BRANCH  29   7
ATOM      7  N   UNL     1       3.982  -0.137  23.334  0.00  0.00    -0.290 N 
ATOM      8  N   UNL     1       5.754  -1.389  23.807  0.00  0.00    -0.244 NA
ATOM     30  C   UNL     1       5.073   0.613  22.995  0.00  0.00    +0.114 A 
ATOM     31  C   UNL     1       4.441  -1.330  23.818  0.00  0.00    +0.205 A 
ATOM     32  C   UNL     1       6.153  -0.181  23.295  0.00  0.00    +0.130 A 
ENDBRANCH  29   7
ENDBRANCH  20  25
ENDBRANCH   9  14
BRANCH   2  13
ATOM     13  C   UNL     1      -5.421   0.921  25.369  0.00  0.00    +0.122 C 
BRANCH  13  15
ATOM      3  N   UNL     1      -3.894  -2.096  23.916  0.00  0.00    -0.349 N 
ATOM     15  C   UNL     1      -4.564  -0.233  24.922  0.00  0.00    -0.008 A 
ATOM     16  C   UNL     1      -3.212  -0.479  25.294  0.00  0.00    +0.004 A 
ATOM     17  C   UNL     1      -4.955  -1.244  24.075  0.00  0.00    +0.091 A 
ATOM     18  C   UNL     1      -2.816  -1.652  24.649  0.00  0.00    +0.049 A 
ATOM     19  C   UNL     1      -2.285   0.187  26.119  0.00  0.00    +0.010 A 
ATOM     21  C   UNL     1      -1.535  -2.196  24.789  0.00  0.00    +0.026 A 
ATOM     22  C   UNL     1      -3.919  -3.285  23.092  0.00  0.00    +0.149 C 
ATOM     23  C   UNL     1      -0.999  -0.344  26.269  0.00  0.00    +0.001 A 
ATOM     24  C   UNL     1      -0.631  -1.517  25.613  0.00  0.00    +0.002 A 
ENDBRANCH  13  15
ENDBRANCH   2  13
TORSDOF 5
ENDMDL
MODEL 2
REMARK VINA RESULT:       2.1      0.756      1.888
REMARK  Name = 45783677
REMARK  6 active torsions:
REMARK  status: ('A' for Active; 'I' for Inactive)
REMARK    1  A    between atoms: N_2  and  C_13
REMARK    2  A    between atoms: N_3  and  C_22
REMARK    3  A    between atoms: N_7  and  C_29
REMARK    4  A    between atoms: C_9  and  C_14
REMARK    5  A    between atoms: C_13  and  C_15
REMARK    6  A    between atoms: C_20  and  C_25
REMARK                            x       y       z     vdW  Elec       q    Type
REMARK                         _______ _______ _______ _____ _____    ______ ____
ROOT
ATOM      2  N   UNL     1      -4.697   1.987  25.539  0.00  0.00    -0.287 NA
ATOM      9  C   UNL     1      -4.671   2.409  24.124  0.00  0.00    +0.146 C 
ATOM     10  C   UNL     1      -5.033   3.906  24.155  0.00  0.00    +0.030 C 
ATOM     11  C   UNL     1      -5.650   2.870  26.215  0.00  0.00    +0.085 C 
ATOM     12  C   UNL     1      -5.305   4.219  25.619  0.00  0.00    +0.017 C 
ENDROOT
BRANCH   9  14
ATOM      1  O   UNL     1      -3.244   2.441  22.139  0.00  0.00    -0.336 OA
ATOM      4  N   UNL     1      -2.233   1.664  23.982  0.00  0.00    -0.190 NA
ATOM      5  N   UNL     1      -1.936   2.116  21.758  0.00  0.00    -0.056 NA
ATOM     14  C   UNL     1      -3.334   2.145  23.463  0.00  0.00    +0.245 A 
ATOM     20  C   UNL     1      -1.403   1.665  22.898  0.00  0.00    +0.204 A 
BRANCH  20  25
ATOM      6  N   UNL     1       2.126   1.383  24.037  0.00  0.00    -0.237 NA
ATOM     25  C   UNL     1      -0.045   1.210  22.987  0.00  0.00    +0.041 A 
ATOM     26  C   UNL     1       0.429   0.202  22.154  0.00  0.00    +0.017 A 
ATOM     27  C   UNL     1       0.834   1.764  23.903  0.00  0.00    +0.124 A 
ATOM     28  C   UNL     1       1.751  -0.216  22.263  0.00  0.00    +0.047 A 
ATOM     29  C   UNL     1       2.550   0.401  23.211  0.00  0.00    +0.139 A 
BRANCH  29   7
ATOM      7  N   UNL     1       3.869  -0.013  23.323  0.00  0.00    -0.290 N 
ATOM      8  N   UNL     1       5.613  -1.294  23.824  0.00  0.00    -0.244 NA
ATOM     30  C   UNL     1       4.974   0.683  22.920  0.00  0.00    +0.114 A 
ATOM     31  C   UNL     1       4.302  -1.193  23.860  0.00  0.00    +0.205 A 
ATOM     32  C   UNL     1       6.036  -0.128  23.239  0.00  0.00    +0.130 A 
ENDBRANCH  29   7
ENDBRANCH  20  25
ENDBRANCH   9  14
BRANCH   2  13
ATOM     13  C   UNL     1      -5.034   0.581  25.713  0.00  0.00    +0.122 C 
BRANCH  13  15
ATOM      3  N   UNL     1      -1.783  -1.141  25.612  0.00  0.00    -0.349 N 
ATOM     15  C   UNL     1      -3.839  -0.311  25.503  0.00  0.00    -0.008 A 
ATOM     16  C   UNL     1      -3.798  -1.502  24.724  0.00  0.00    +0.004 A 
ATOM     17  C   UNL     1      -2.587  -0.115  26.036  0.00  0.00    +0.091 A 
ATOM     18  C   UNL     1      -2.496  -2.002  24.810  0.00  0.00    +0.049 A 
ATOM     19  C   UNL     1      -4.744  -2.203  23.953  0.00  0.00    +0.010 A 
ATOM     21  C   UNL     1      -2.094  -3.173  24.159  0.00  0.00    +0.026 A 
ATOM     22  C   UNL     1      -0.387  -1.283  25.967  0.00  0.00    +0.149 C 
ATOM     23  C   UNL     1      -4.356  -3.377  23.297  0.00  0.00    +0.001 A 
ATOM     24  C   UNL     1      -3.050  -3.853  23.400  0.00  0.00    +0.002 A 
ENDBRANCH  13  15
ENDBRANCH   2  13
TORSDOF 5
ENDMDL
