MODEL 1
REMARK VINA RESULT:      -2.8      0.000      0.000
REMARK  Name = 7155435
REMARK  3 active torsions:
REMARK  status: ('A' for Active; 'I' for Inactive)
REMARK    1  A    between atoms: S_1  and  N_6
REMARK    2  A    between atoms: S_1  and  C_20
REMARK    3  A    between atoms: C_15  and  C_19
REMARK                            x       y       z     vdW  Elec       q    Type
REMARK                         _______ _______ _______ _____ _____    ______ ____
ROOT
ATOM      5  O   UNL     1      15.490  -8.893  26.186  0.00  0.00    -0.268 OA
ATOM      6  N   UNL     1      14.502  -9.603  30.986  0.00  0.00    -0.175 NA
ATOM      7  N   UNL     1      15.978  -8.484  28.439  0.00  0.00    -0.311 N 
ATOM      8  C   UNL     1      16.668 -10.374  30.029  0.00  0.00    +0.025 C 
ATOM      9  C   UNL     1      16.466  -8.077  30.872  0.00  0.00    +0.053 C 
ATOM     10  C   UNL     1      17.405  -9.277  30.779  0.00  0.00    +0.017 C 
ATOM     11  C   UNL     1      15.388 -10.781  30.775  0.00  0.00    +0.114 C 
ATOM     12  C   UNL     1      15.205  -8.474  31.665  0.00  0.00    +0.119 C 
ATOM     13  C   UNL     1      16.382  -9.887  28.608  0.00  0.00    +0.130 C 
ATOM     14  C   UNL     1      16.089  -7.547  29.486  0.00  0.00    +0.034 A 
ATOM     15  C   UNL     1      15.846  -6.233  29.245  0.00  0.00    +0.002 A 
ATOM     16  C   UNL     1      15.589  -8.119  27.138  0.00  0.00    +0.252 A 
ATOM     17  C   UNL     1      15.436  -5.819  27.916  0.00  0.00    +0.015 A 
ATOM     18  C   UNL     1      15.295  -6.686  26.913  0.00  0.00    +0.071 A 
ENDROOT
BRANCH  15  19
ATOM     19  C   UNL     1      15.968  -5.209  30.307  0.00  0.00    -0.016 A 
ATOM     22  C   UNL     1      17.228  -4.776  30.707  0.00  0.00    +0.008 A 
ATOM     23  C   UNL     1      14.821  -4.685  30.896  0.00  0.00    +0.008 A 
ATOM     26  C   UNL     1      17.343  -3.810  31.707  0.00  0.00    +0.001 A 
ATOM     27  C   UNL     1      14.936  -3.719  31.896  0.00  0.00    +0.001 A 
ATOM     28  C   UNL     1      16.197  -3.282  32.301  0.00  0.00    +0.000 A 
ENDBRANCH  15  19
BRANCH   6   1
ATOM      1  S   UNL     1      12.930  -9.949  31.564  0.00  0.00    +0.067 S 
ATOM      3  O   UNL     1      13.030 -10.584  32.862  0.00  0.00    -0.152 OA
ATOM      4  O   UNL     1      12.159 -10.554  30.498  0.00  0.00    -0.152 OA
BRANCH   1  20
ATOM      2  S   UNL     1      12.562  -7.256  30.487  0.00  0.00    -0.077 S 
ATOM     20  C   UNL     1      12.322  -8.311  31.811  0.00  0.00    +0.143 A 
ATOM     21  C   UNL     1      11.686  -7.697  32.862  0.00  0.00    +0.036 A 
ATOM     24  C   UNL     1      11.388  -6.334  32.577  0.00  0.00    +0.010 A 
ATOM     25  C   UNL     1      11.810  -5.963  31.319  0.00  0.00    +0.047 A 
ENDBRANCH   1  20
ENDBRANCH   6   1
TORSDOF 3
ENDMDL
