MODEL 1
REMARK VINA RESULT:      -5.7      0.000      0.000
REMARK  Name = 86769019
REMARK  3 active torsions:
REMARK  status: ('A' for Active; 'I' for Inactive)
REMARK    1  A    between atoms: N_2  and  C_8
REMARK    2  A    between atoms: N_4  and  C_15
REMARK    3  A    between atoms: C_5  and  C_8
REMARK                            x       y       z     vdW  Elec       q    Type
REMARK                         _______ _______ _______ _____ _____    ______ ____
ROOT
ATOM      1  O   UNL     1      -3.260   4.481  26.496  0.00  0.00    -0.252 OA
ATOM      2  N   UNL     1      -4.333   0.213  23.965  0.00  0.00    -0.299 NA
ATOM      3  N   UNL     1      -3.627   2.753  24.946  0.00  0.00    -0.278 N 
ATOM      4  N   UNL     1      -1.749   3.968  24.759  0.00  0.00    -0.287 N 
ATOM      9  C   UNL     1      -3.003   2.271  23.732  0.00  0.00    +0.109 C 
ATOM     10  C   UNL     1      -2.977   0.744  23.718  0.00  0.00    +0.108 C 
ATOM     11  C   UNL     1      -4.844   0.663  25.276  0.00  0.00    +0.103 C 
ATOM     12  C   UNL     1      -4.896   2.190  25.363  0.00  0.00    +0.125 C 
ATOM     13  C   UNL     1      -1.629   2.937  23.743  0.00  0.00    +0.132 C 
ATOM     14  C   UNL     1      -2.924   3.820  25.521  0.00  0.00    +0.305 C 
ATOM     15  C   UNL     1      -0.688   4.917  25.017  0.00  0.00    +0.133 C 
ENDROOT
BRANCH   2   8
ATOM      8  C   UNL     1      -4.331  -1.247  23.893  0.00  0.00    +0.088 C 
BRANCH   8   5
ATOM      5  C   UNL     1      -3.444  -1.841  24.939  0.00  0.00    +0.003 C 
ATOM      6  C   UNL     1      -3.215  -3.327  24.982  0.00  0.00    +0.005 C 
ATOM      7  C   UNL     1      -2.103  -2.407  24.561  0.00  0.00    +0.005 C 
ENDBRANCH   8   5
ENDBRANCH   2   8
TORSDOF 2
ENDMDL
MODEL 2
REMARK VINA RESULT:      -5.3      2.310      5.414
REMARK  Name = 86769019
REMARK  3 active torsions:
REMARK  status: ('A' for Active; 'I' for Inactive)
REMARK    1  A    between atoms: N_2  and  C_8
REMARK    2  A    between atoms: N_4  and  C_15
REMARK    3  A    between atoms: C_5  and  C_8
REMARK                            x       y       z     vdW  Elec       q    Type
REMARK                         _______ _______ _______ _____ _____    ______ ____
ROOT
ATOM      1  O   UNL     1      -4.393  -2.278  23.889  0.00  0.00    -0.252 OA
ATOM      2  N   UNL     1      -3.425   2.547  25.133  0.00  0.00    -0.299 NA
ATOM      3  N   UNL     1      -3.686  -0.235  24.807  0.00  0.00    -0.278 N 
ATOM      4  N   UNL     1      -2.166  -1.867  24.545  0.00  0.00    -0.287 N 
ATOM      9  C   UNL     1      -2.480   0.291  25.412  0.00  0.00    +0.109 C 
ATOM     10  C   UNL     1      -2.221   1.716  24.928  0.00  0.00    +0.108 C 
ATOM     11  C   UNL     1      -4.576   1.999  24.386  0.00  0.00    +0.103 C 
ATOM     12  C   UNL     1      -4.893   0.565  24.821  0.00  0.00    +0.125 C 
ATOM     13  C   UNL     1      -1.408  -0.724  25.025  0.00  0.00    +0.132 C 
ATOM     14  C   UNL     1      -3.527  -1.553  24.358  0.00  0.00    +0.305 C 
ATOM     15  C   UNL     1      -1.526  -3.110  24.173  0.00  0.00    +0.133 C 
ENDROOT
BRANCH   2   8
ATOM      8  C   UNL     1      -3.168   3.928  24.729  0.00  0.00    +0.088 C 
BRANCH   8   5
ATOM      5  C   UNL     1      -1.983   4.491  25.443  0.00  0.00    +0.003 C 
ATOM      6  C   UNL     1      -0.640   4.532  24.767  0.00  0.00    +0.005 C 
ATOM      7  C   UNL     1      -1.396   5.808  25.014  0.00  0.00    +0.005 C 
ENDBRANCH   8   5
ENDBRANCH   2   8
TORSDOF 2
ENDMDL
MODEL 3
REMARK VINA RESULT:      -4.8      2.769      4.202
REMARK  Name = 86769019
REMARK  3 active torsions:
REMARK  status: ('A' for Active; 'I' for Inactive)
REMARK    1  A    between atoms: N_2  and  C_8
REMARK    2  A    between atoms: N_4  and  C_15
REMARK    3  A    between atoms: C_5  and  C_8
REMARK                            x       y       z     vdW  Elec       q    Type
REMARK                         _______ _______ _______ _____ _____    ______ ____
ROOT
ATOM      1  O   UNL     1      -4.101   3.900  24.860  0.00  0.00    -0.252 OA
ATOM      2  N   UNL     1      -0.592   0.239  24.628  0.00  0.00    -0.299 NA
ATOM      3  N   UNL     1      -2.737   2.000  25.086  0.00  0.00    -0.278 N 
ATOM      4  N   UNL     1      -4.963   1.710  25.012  0.00  0.00    -0.287 N 
ATOM      9  C   UNL     1      -2.927   0.585  25.327  0.00  0.00    +0.109 C 
ATOM     10  C   UNL     1      -1.980  -0.234  24.452  0.00  0.00    +0.108 C 
ATOM     11  C   UNL     1      -0.469   1.662  24.250  0.00  0.00    +0.103 C 
ATOM     12  C   UNL     1      -1.395   2.546  25.089  0.00  0.00    +0.125 C 
ATOM     13  C   UNL     1      -4.412   0.366  25.047  0.00  0.00    +0.132 C 
ATOM     14  C   UNL     1      -3.952   2.691  24.976  0.00  0.00    +0.305 C 
ATOM     15  C   UNL     1      -6.382   1.953  24.877  0.00  0.00    +0.133 C 
ENDROOT
BRANCH   2   8
ATOM      8  C   UNL     1       0.330  -0.578  23.842  0.00  0.00    +0.088 C 
BRANCH   8   5
ATOM      5  C   UNL     1       1.070   0.249  22.841  0.00  0.00    +0.003 C 
ATOM      6  C   UNL     1       2.558   0.095  22.685  0.00  0.00    +0.005 C 
ATOM      7  C   UNL     1       1.635  -0.390  21.602  0.00  0.00    +0.005 C 
ENDBRANCH   8   5
ENDBRANCH   2   8
TORSDOF 2
ENDMDL
MODEL 4
REMARK VINA RESULT:      -4.7      2.350      5.776
REMARK  Name = 86769019
REMARK  3 active torsions:
REMARK  status: ('A' for Active; 'I' for Inactive)
REMARK    1  A    between atoms: N_2  and  C_8
REMARK    2  A    between atoms: N_4  and  C_15
REMARK    3  A    between atoms: C_5  and  C_8
REMARK                            x       y       z     vdW  Elec       q    Type
REMARK                         _______ _______ _______ _____ _____    ______ ____
ROOT
ATOM      1  O   UNL     1      -0.898  -2.216  25.154  0.00  0.00    -0.252 OA
ATOM      2  N   UNL     1      -2.541   2.537  24.466  0.00  0.00    -0.299 NA
ATOM      3  N   UNL     1      -1.873  -0.195  24.458  0.00  0.00    -0.278 N 
ATOM      4  N   UNL     1      -3.136  -2.051  24.427  0.00  0.00    -0.287 N 
ATOM      9  C   UNL     1      -3.120   0.225  23.855  0.00  0.00    +0.109 C 
ATOM     10  C   UNL     1      -3.612   1.520  24.497  0.00  0.00    +0.108 C 
ATOM     11  C   UNL     1      -1.349   2.069  25.203  0.00  0.00    +0.103 C 
ATOM     12  C   UNL     1      -0.801   0.767  24.613  0.00  0.00    +0.125 C 
ATOM     13  C   UNL     1      -4.040  -0.979  24.051  0.00  0.00    +0.132 C 
ATOM     14  C   UNL     1      -1.846  -1.570  24.729  0.00  0.00    +0.305 C 
ATOM     15  C   UNL     1      -3.593  -3.412  24.605  0.00  0.00    +0.133 C 
ENDROOT
BRANCH   2   8
ATOM      8  C   UNL     1      -3.020   3.801  25.023  0.00  0.00    +0.088 C 
BRANCH   8   5
ATOM      5  C   UNL     1      -1.891   4.626  25.550  0.00  0.00    +0.003 C 
ATOM      6  C   UNL     1      -0.719   4.955  24.667  0.00  0.00    +0.005 C 
ATOM      7  C   UNL     1      -1.690   6.033  25.060  0.00  0.00    +0.005 C 
ENDBRANCH   8   5
ENDBRANCH   2   8
TORSDOF 2
ENDMDL
MODEL 5
REMARK VINA RESULT:      -4.6      1.621      2.108
REMARK  Name = 86769019
REMARK  3 active torsions:
REMARK  status: ('A' for Active; 'I' for Inactive)
REMARK    1  A    between atoms: N_2  and  C_8
REMARK    2  A    between atoms: N_4  and  C_15
REMARK    3  A    between atoms: C_5  and  C_8
REMARK                            x       y       z     vdW  Elec       q    Type
REMARK                         _______ _______ _______ _____ _____    ______ ____
ROOT
ATOM      1  O   UNL     1       0.229   3.658  25.391  0.00  0.00    -0.252 OA
ATOM      2  N   UNL     1      -3.235   0.062  24.477  0.00  0.00    -0.299 NA
ATOM      3  N   UNL     1      -1.646   2.249  25.255  0.00  0.00    -0.278 N 
ATOM      4  N   UNL     1      -1.970   4.466  25.121  0.00  0.00    -0.287 N 
ATOM      9  C   UNL     1      -3.085   2.403  25.222  0.00  0.00    +0.109 C 
ATOM     10  C   UNL     1      -3.700   1.439  24.210  0.00  0.00    +0.108 C 
ATOM     11  C   UNL     1      -1.764  -0.026  24.376  0.00  0.00    +0.103 C 
ATOM     12  C   UNL     1      -1.078   0.920  25.365  0.00  0.00    +0.125 C 
ATOM     13  C   UNL     1      -3.282   3.883  24.901  0.00  0.00    +0.132 C 
ATOM     14  C   UNL     1      -0.976   3.480  25.275  0.00  0.00    +0.305 C 
ATOM     15  C   UNL     1      -1.740   5.892  25.031  0.00  0.00    +0.133 C 
ENDROOT
BRANCH   2   8
ATOM      8  C   UNL     1      -3.866  -0.878  23.552  0.00  0.00    +0.088 C 
BRANCH   8   5
ATOM      5  C   UNL     1      -4.208  -2.163  24.232  0.00  0.00    +0.003 C 
ATOM      6  C   UNL     1      -3.280  -3.343  24.133  0.00  0.00    +0.005 C 
ATOM      7  C   UNL     1      -3.429  -2.611  25.438  0.00  0.00    +0.005 C 
ENDBRANCH   8   5
ENDBRANCH   2   8
TORSDOF 2
ENDMDL
MODEL 6
REMARK VINA RESULT:      -4.6      2.291      5.327
REMARK  Name = 86769019
REMARK  3 active torsions:
REMARK  status: ('A' for Active; 'I' for Inactive)
REMARK    1  A    between atoms: N_2  and  C_8
REMARK    2  A    between atoms: N_4  and  C_15
REMARK    3  A    between atoms: C_5  and  C_8
REMARK                            x       y       z     vdW  Elec       q    Type
REMARK                         _______ _______ _______ _____ _____    ______ ____
ROOT
ATOM      1  O   UNL     1      -0.799  -1.683  25.396  0.00  0.00    -0.252 OA
ATOM      2  N   UNL     1      -2.941   2.692  23.970  0.00  0.00    -0.299 NA
ATOM      3  N   UNL     1      -1.951   0.090  24.373  0.00  0.00    -0.278 N 
ATOM      4  N   UNL     1      -2.975  -1.903  24.513  0.00  0.00    -0.287 N 
ATOM      9  C   UNL     1      -3.188   0.266  23.641  0.00  0.00    +0.109 C 
ATOM     10  C   UNL     1      -3.881   1.557  24.070  0.00  0.00    +0.108 C 
ATOM     11  C   UNL     1      -1.765   2.480  24.837  0.00  0.00    +0.103 C 
ATOM     12  C   UNL     1      -1.019   1.196  24.464  0.00  0.00    +0.125 C 
ATOM     13  C   UNL     1      -3.969  -1.013  23.939  0.00  0.00    +0.132 C 
ATOM     14  C   UNL     1      -1.781  -1.224  24.829  0.00  0.00    +0.305 C 
ATOM     15  C   UNL     1      -3.278  -3.278  24.844  0.00  0.00    +0.133 C 
ENDROOT
BRANCH   2   8
ATOM      8  C   UNL     1      -3.612   3.943  24.320  0.00  0.00    +0.088 C 
BRANCH   8   5
ATOM      5  C   UNL     1      -4.398   3.803  25.583  0.00  0.00    +0.003 C 
ATOM      6  C   UNL     1      -5.789   4.366  25.676  0.00  0.00    +0.005 C 
ATOM      7  C   UNL     1      -5.581   2.877  25.640  0.00  0.00    +0.005 C 
ENDBRANCH   8   5
ENDBRANCH   2   8
TORSDOF 2
ENDMDL
MODEL 7
REMARK VINA RESULT:      -4.4      2.658      3.687
REMARK  Name = 86769019
REMARK  3 active torsions:
REMARK  status: ('A' for Active; 'I' for Inactive)
REMARK    1  A    between atoms: N_2  and  C_8
REMARK    2  A    between atoms: N_4  and  C_15
REMARK    3  A    between atoms: C_5  and  C_8
REMARK                            x       y       z     vdW  Elec       q    Type
REMARK                         _______ _______ _______ _____ _____    ______ ____
ROOT
ATOM      1  O   UNL     1      -5.968   1.371  26.114  0.00  0.00    -0.252 OA
ATOM      2  N   UNL     1      -1.580  -0.053  23.995  0.00  0.00    -0.299 NA
ATOM      3  N   UNL     1      -4.071   0.992  24.781  0.00  0.00    -0.278 N 
ATOM      4  N   UNL     1      -4.816   3.099  24.996  0.00  0.00    -0.287 N 
ATOM      9  C   UNL     1      -3.234   1.767  23.887  0.00  0.00    +0.109 C 
ATOM     10  C   UNL     1      -1.764   1.410  24.093  0.00  0.00    +0.108 C 
ATOM     11  C   UNL     1      -2.382  -0.754  25.018  0.00  0.00    +0.103 C 
ATOM     12  C   UNL     1      -3.873  -0.440  24.873  0.00  0.00    +0.125 C 
ATOM     13  C   UNL     1      -3.597   3.213  24.216  0.00  0.00    +0.132 C 
ATOM     14  C   UNL     1      -5.068   1.769  25.386  0.00  0.00    +0.305 C 
ATOM     15  C   UNL     1      -5.563   4.262  25.425  0.00  0.00    +0.133 C 
ENDROOT
BRANCH   2   8
ATOM      8  C   UNL     1      -0.167  -0.400  24.130  0.00  0.00    +0.088 C 
BRANCH   8   5
ATOM      5  C   UNL     1       0.672   0.341  23.140  0.00  0.00    +0.003 C 
ATOM      6  C   UNL     1       2.156   0.104  23.078  0.00  0.00    +0.005 C 
ATOM      7  C   UNL     1       1.269  -0.380  21.964  0.00  0.00    +0.005 C 
ENDBRANCH   8   5
ENDBRANCH   2   8
TORSDOF 2
ENDMDL
MODEL 8
REMARK VINA RESULT:      -3.8      3.152      4.317
REMARK  Name = 86769019
REMARK  3 active torsions:
REMARK  status: ('A' for Active; 'I' for Inactive)
REMARK    1  A    between atoms: N_2  and  C_8
REMARK    2  A    between atoms: N_4  and  C_15
REMARK    3  A    between atoms: C_5  and  C_8
REMARK                            x       y       z     vdW  Elec       q    Type
REMARK                         _______ _______ _______ _____ _____    ______ ____
ROOT
ATOM      1  O   UNL     1      -5.005   0.733  25.510  0.00  0.00    -0.252 OA
ATOM      2  N   UNL     1      -0.345   0.002  23.635  0.00  0.00    -0.299 NA
ATOM      3  N   UNL     1      -2.971   0.729  24.335  0.00  0.00    -0.278 N 
ATOM      4  N   UNL     1      -3.894   2.708  24.856  0.00  0.00    -0.287 N 
ATOM      9  C   UNL     1      -2.119   1.707  23.692  0.00  0.00    +0.109 C 
ATOM     10  C   UNL     1      -0.650   1.405  23.981  0.00  0.00    +0.108 C 
ATOM     11  C   UNL     1      -1.180  -0.929  24.422  0.00  0.00    +0.103 C 
ATOM     12  C   UNL     1      -2.672  -0.681  24.182  0.00  0.00    +0.125 C 
ATOM     13  C   UNL     1      -2.620   3.041  24.242  0.00  0.00    +0.132 C 
ATOM     14  C   UNL     1      -4.076   1.315  24.966  0.00  0.00    +0.305 C 
ATOM     15  C   UNL     1      -4.765   3.721  25.412  0.00  0.00    +0.133 C 
ENDROOT
BRANCH   2   8
ATOM      8  C   UNL     1       1.073  -0.281  23.850  0.00  0.00    +0.088 C 
BRANCH   8   5
ATOM      5  C   UNL     1       1.891   0.109  22.663  0.00  0.00    +0.003 C 
ATOM      6  C   UNL     1       2.964   1.156  22.794  0.00  0.00    +0.005 C 
ATOM      7  C   UNL     1       3.341  -0.284  22.580  0.00  0.00    +0.005 C 
ENDBRANCH   8   5
ENDBRANCH   2   8
TORSDOF 2
ENDMDL
MODEL 9
REMARK VINA RESULT:      -3.8     14.598     16.145
REMARK  Name = 86769019
REMARK  3 active torsions:
REMARK  status: ('A' for Active; 'I' for Inactive)
REMARK    1  A    between atoms: N_2  and  C_8
REMARK    2  A    between atoms: N_4  and  C_15
REMARK    3  A    between atoms: C_5  and  C_8
REMARK                            x       y       z     vdW  Elec       q    Type
REMARK                         _______ _______ _______ _____ _____    ______ ____
ROOT
ATOM      1  O   UNL     1      -7.356  -9.375  17.880  0.00  0.00    -0.252 OA
ATOM      2  N   UNL     1      -4.544 -10.780  13.895  0.00  0.00    -0.299 NA
ATOM      3  N   UNL     1      -6.448 -10.240  15.894  0.00  0.00    -0.278 N 
ATOM      4  N   UNL     1      -8.489  -9.308  15.812  0.00  0.00    -0.287 N 
ATOM      9  C   UNL     1      -6.899 -10.473  14.538  0.00  0.00    +0.109 C 
ATOM     10  C   UNL     1      -5.805 -10.098  13.541  0.00  0.00    +0.108 C 
ATOM     11  C   UNL     1      -4.098 -10.395  15.249  0.00  0.00    +0.103 C 
ATOM     12  C   UNL     1      -5.152 -10.741  16.305  0.00  0.00    +0.125 C 
ATOM     13  C   UNL     1      -8.176  -9.641  14.434  0.00  0.00    +0.132 C 
ATOM     14  C   UNL     1      -7.423  -9.615  16.682  0.00  0.00    +0.305 C 
ATOM     15  C   UNL     1      -9.701  -8.606  16.175  0.00  0.00    +0.133 C 
ENDROOT
BRANCH   2   8
ATOM      8  C   UNL     1      -3.505 -10.476  12.912  0.00  0.00    +0.088 C 
BRANCH   8   5
ATOM      5  C   UNL     1      -4.099 -10.059  11.605  0.00  0.00    +0.003 C 
ATOM      6  C   UNL     1      -3.248  -9.374  10.572  0.00  0.00    +0.005 C 
ATOM      7  C   UNL     1      -3.725 -10.781  10.340  0.00  0.00    +0.005 C 
ENDBRANCH   8   5
ENDBRANCH   2   8
TORSDOF 2
ENDMDL
MODEL 10
REMARK VINA RESULT:      -3.8     15.969     17.878
REMARK  Name = 86769019
REMARK  3 active torsions:
REMARK  status: ('A' for Active; 'I' for Inactive)
REMARK    1  A    between atoms: N_2  and  C_8
REMARK    2  A    between atoms: N_4  and  C_15
REMARK    3  A    between atoms: C_5  and  C_8
REMARK                            x       y       z     vdW  Elec       q    Type
REMARK                         _______ _______ _______ _____ _____    ______ ____
ROOT
ATOM      1  O   UNL     1      -0.927  -9.627  12.092  0.00  0.00    -0.252 OA
ATOM      2  N   UNL     1      -5.769  -9.439  10.582  0.00  0.00    -0.299 NA
ATOM      3  N   UNL     1      -3.204  -9.953  11.615  0.00  0.00    -0.278 N 
ATOM      4  N   UNL     1      -2.480 -10.386  13.696  0.00  0.00    -0.287 N 
ATOM      9  C   UNL     1      -4.358 -10.507  12.293  0.00  0.00    +0.109 C 
ATOM     10  C   UNL     1      -5.591  -9.643  12.034  0.00  0.00    +0.108 C 
ATOM     11  C   UNL     1      -4.592  -8.765   9.996  0.00  0.00    +0.103 C 
ATOM     12  C   UNL     1      -3.314  -9.577  10.220  0.00  0.00    +0.125 C 
ATOM     13  C   UNL     1      -3.919 -10.579  13.754  0.00  0.00    +0.132 C 
ATOM     14  C   UNL     1      -2.059  -9.951  12.424  0.00  0.00    +0.305 C 
ATOM     15  C   UNL     1      -1.645 -10.491  14.873  0.00  0.00    +0.133 C 
ENDROOT
BRANCH   2   8
ATOM      8  C   UNL     1      -6.981  -8.665  10.320  0.00  0.00    +0.088 C 
BRANCH   8   5
ATOM      5  C   UNL     1      -7.095  -8.305   8.875  0.00  0.00    +0.003 C 
ATOM      6  C   UNL     1      -8.415  -8.426   8.166  0.00  0.00    +0.005 C 
ATOM      7  C   UNL     1      -7.842  -7.068   8.460  0.00  0.00    +0.005 C 
ENDBRANCH   8   5
ENDBRANCH   2   8
TORSDOF 2
ENDMDL
