MODEL 1
REMARK VINA RESULT:      -5.0      0.000      0.000
REMARK  Name = 75536521
REMARK  13 active torsions:
REMARK  status: ('A' for Active; 'I' for Inactive)
REMARK    1  A    between atoms: O_2  and  C_8
REMARK    2  A    between atoms: O_4  and  C_24
REMARK    3  A    between atoms: O_4  and  C_25
REMARK    4  A    between atoms: N_5  and  C_7
REMARK    5  A    between atoms: N_5  and  C_13
REMARK    6  A    between atoms: N_6  and  C_11
REMARK    7  A    between atoms: C_9  and  C_11
REMARK    8  A    between atoms: C_12  and  C_14
REMARK    9  A    between atoms: C_12  and  C_16
REMARK   10  A    between atoms: C_12  and  C_17
REMARK   11  A    between atoms: C_12  and  C_18
REMARK   12  A    between atoms: C_13  and  C_19
REMARK   13  A    between atoms: C_14  and  C_15
REMARK                            x       y       z     vdW  Elec       q    Type
REMARK                         _______ _______ _______ _____ _____    ______ ____
ROOT
ATOM      1  O   UNL     1       0.160   3.643  23.851  0.00  0.00    -0.371 OA
ATOM      7  C   UNL     1      -1.325   3.683  25.704  0.00  0.00    +0.111 C 
ATOM      8  C   UNL     1      -0.851   2.260  25.482  0.00  0.00    +0.164 C 
ATOM      9  C   UNL     1       0.421   2.496  24.677  0.00  0.00    +0.165 C 
ATOM     10  C   UNL     1      -0.999   4.322  24.364  0.00  0.00    +0.181 C 
ENDROOT
BRANCH   8   2
ATOM      2  O   UNL     1      -0.590   1.575  26.691  0.00  0.00    -0.388 OA
ATOM     28  H   UNL     1      -0.379   2.234  27.375  0.00  0.00    +0.210 HD
ENDBRANCH   8   2
BRANCH   7   5
ATOM      5  N   UNL     1      -2.733   3.783  26.051  0.00  0.00    -0.305 NA
ATOM     26  H   UNL     1      -2.916   4.711  26.434  0.00  0.00    +0.123 HD
BRANCH   5  13
ATOM     13  C   UNL     1      -3.578   3.581  24.880  0.00  0.00    +0.116 C 
BRANCH  13  19
ATOM     19  C   UNL     1      -3.762   2.119  24.567  0.00  0.00    -0.033 A 
ATOM     20  C   UNL     1      -4.545   1.321  25.403  0.00  0.00    +0.008 A 
ATOM     21  C   UNL     1      -3.152   1.564  23.444  0.00  0.00    +0.008 A 
ATOM     22  C   UNL     1      -4.715  -0.032  25.114  0.00  0.00    +0.046 A 
ATOM     23  C   UNL     1      -3.322   0.210  23.154  0.00  0.00    +0.046 A 
ATOM     24  C   UNL     1      -4.104  -0.588  23.989  0.00  0.00    +0.120 A 
BRANCH  24   4
ATOM      4  O   UNL     1      -4.270  -1.909  23.707  0.00  0.00    -0.495 OA
ATOM     25  C   UNL     1      -3.552  -2.840  24.516  0.00  0.00    +0.277 C 
ENDBRANCH  24   4
ENDBRANCH  13  19
ENDBRANCH   5  13
ENDBRANCH   7   5
BRANCH   9  11
ATOM     11  C   UNL     1       0.809   1.313  23.808  0.00  0.00    +0.138 C 
BRANCH  11   6
ATOM      3  O   UNL     1       2.191  -0.222  21.777  0.00  0.00    -0.276 OA
ATOM      6  N   UNL     1       2.226   1.309  23.524  0.00  0.00    -0.313 N 
ATOM     15  C   UNL     1       2.799   0.537  22.527  0.00  0.00    +0.214 C 
ATOM     27  H   UNL     1       2.818   1.914  24.087  0.00  0.00    +0.149 HD
BRANCH  15  14
ATOM     14  C   UNL     1       4.307   0.705  22.438  0.00  0.00    +0.102 C 
BRANCH  14  12
ATOM     12  C   UNL     1       5.113  -0.149  23.445  0.00  0.00    -0.029 C 
ATOM     16  C   UNL     1       4.357  -1.440  23.805  0.00  0.00    +0.011 C 
ATOM     17  C   UNL     1       5.419   0.635  24.731  0.00  0.00    +0.011 C 
ATOM     18  C   UNL     1       6.449  -0.537  22.781  0.00  0.00    +0.011 C 
ENDBRANCH  14  12
ENDBRANCH  15  14
ENDBRANCH  11   6
ENDBRANCH   9  11
TORSDOF 9
ENDMDL
MODEL 2
REMARK VINA RESULT:      -4.9      2.340      6.166
REMARK  Name = 75536521
REMARK  13 active torsions:
REMARK  status: ('A' for Active; 'I' for Inactive)
REMARK    1  A    between atoms: O_2  and  C_8
REMARK    2  A    between atoms: O_4  and  C_24
REMARK    3  A    between atoms: O_4  and  C_25
REMARK    4  A    between atoms: N_5  and  C_7
REMARK    5  A    between atoms: N_5  and  C_13
REMARK    6  A    between atoms: N_6  and  C_11
REMARK    7  A    between atoms: C_9  and  C_11
REMARK    8  A    between atoms: C_12  and  C_14
REMARK    9  A    between atoms: C_12  and  C_16
REMARK   10  A    between atoms: C_12  and  C_17
REMARK   11  A    between atoms: C_12  and  C_18
REMARK   12  A    between atoms: C_13  and  C_19
REMARK   13  A    between atoms: C_14  and  C_15
REMARK                            x       y       z     vdW  Elec       q    Type
REMARK                         _______ _______ _______ _____ _____    ______ ____
ROOT
ATOM      1  O   UNL     1      -5.227   3.486  26.403  0.00  0.00    -0.371 OA
ATOM      7  C   UNL     1      -3.267   4.357  25.385  0.00  0.00    +0.111 C 
ATOM      8  C   UNL     1      -3.815   3.237  24.522  0.00  0.00    +0.164 C 
ATOM      9  C   UNL     1      -5.261   3.179  25.000  0.00  0.00    +0.165 C 
ATOM     10  C   UNL     1      -3.955   4.081  26.712  0.00  0.00    +0.181 C 
ENDROOT
BRANCH   8   2
ATOM      2  O   UNL     1      -3.727   3.518  23.140  0.00  0.00    -0.388 OA
ATOM     28  H   UNL     1      -4.512   4.032  22.882  0.00  0.00    +0.210 HD
ENDBRANCH   8   2
BRANCH   7   5
ATOM      5  N   UNL     1      -1.817   4.359  25.490  0.00  0.00    -0.305 NA
ATOM     26  H   UNL     1      -1.521   5.194  25.996  0.00  0.00    +0.123 HD
BRANCH   5  13
ATOM     13  C   UNL     1      -1.340   3.181  26.203  0.00  0.00    +0.116 C 
BRANCH  13  19
ATOM     19  C   UNL     1      -0.581   2.246  25.297  0.00  0.00    -0.033 A 
ATOM     20  C   UNL     1       0.319   2.760  24.363  0.00  0.00    +0.008 A 
ATOM     21  C   UNL     1      -0.778   0.869  25.393  0.00  0.00    +0.008 A 
ATOM     22  C   UNL     1       1.022   1.895  23.525  0.00  0.00    +0.046 A 
ATOM     23  C   UNL     1      -0.075   0.004  24.554  0.00  0.00    +0.046 A 
ATOM     24  C   UNL     1       0.825   0.517  23.621  0.00  0.00    +0.120 A 
BRANCH  24   4
ATOM      4  O   UNL     1       1.510  -0.327  22.802  0.00  0.00    -0.495 OA
ATOM     25  C   UNL     1       2.794   0.105  22.352  0.00  0.00    +0.277 C 
ENDBRANCH  24   4
ENDBRANCH  13  19
ENDBRANCH   5  13
ENDBRANCH   7   5
BRANCH   9  11
ATOM     11  C   UNL     1      -5.910   1.823  24.784  0.00  0.00    +0.138 C 
BRANCH  11   6
ATOM      3  O   UNL     1      -3.766   0.340  23.523  0.00  0.00    -0.276 OA
ATOM      6  N   UNL     1      -5.120   0.762  25.364  0.00  0.00    -0.313 N 
ATOM     15  C   UNL     1      -4.109   0.107  24.679  0.00  0.00    +0.214 C 
ATOM     27  H   UNL     1      -5.320   0.500  26.325  0.00  0.00    +0.149 HD
BRANCH  15  14
ATOM     14  C   UNL     1      -3.436  -0.976  25.507  0.00  0.00    +0.102 C 
BRANCH  14  12
ATOM     12  C   UNL     1      -3.241  -2.323  24.771  0.00  0.00    -0.029 C 
ATOM     16  C   UNL     1      -1.858  -2.393  24.101  0.00  0.00    +0.011 C 
ATOM     17  C   UNL     1      -4.330  -2.549  23.710  0.00  0.00    +0.011 C 
ATOM     18  C   UNL     1      -3.334  -3.455  25.814  0.00  0.00    +0.011 C 
ENDBRANCH  14  12
ENDBRANCH  15  14
ENDBRANCH  11   6
ENDBRANCH   9  11
TORSDOF 9
ENDMDL
MODEL 3
REMARK VINA RESULT:      -4.5      2.888      3.914
REMARK  Name = 75536521
REMARK  13 active torsions:
REMARK  status: ('A' for Active; 'I' for Inactive)
REMARK    1  A    between atoms: O_2  and  C_8
REMARK    2  A    between atoms: O_4  and  C_24
REMARK    3  A    between atoms: O_4  and  C_25
REMARK    4  A    between atoms: N_5  and  C_7
REMARK    5  A    between atoms: N_5  and  C_13
REMARK    6  A    between atoms: N_6  and  C_11
REMARK    7  A    between atoms: C_9  and  C_11
REMARK    8  A    between atoms: C_12  and  C_14
REMARK    9  A    between atoms: C_12  and  C_16
REMARK   10  A    between atoms: C_12  and  C_17
REMARK   11  A    between atoms: C_12  and  C_18
REMARK   12  A    between atoms: C_13  and  C_19
REMARK   13  A    between atoms: C_14  and  C_15
REMARK                            x       y       z     vdW  Elec       q    Type
REMARK                         _______ _______ _______ _____ _____    ______ ____
ROOT
ATOM      1  O   UNL     1      -3.096   4.328  23.817  0.00  0.00    -0.371 OA
ATOM      7  C   UNL     1      -4.687   3.590  25.419  0.00  0.00    +0.111 C 
ATOM      8  C   UNL     1      -3.409   3.981  26.136  0.00  0.00    +0.164 C 
ATOM      9  C   UNL     1      -2.753   4.883  25.098  0.00  0.00    +0.165 C 
ATOM     10  C   UNL     1      -4.191   3.412  23.993  0.00  0.00    +0.181 C 
ENDROOT
BRANCH   8   2
ATOM      2  O   UNL     1      -3.650   4.663  27.350  0.00  0.00    -0.388 OA
ATOM     28  H   UNL     1      -3.847   4.003  28.037  0.00  0.00    +0.210 HD
ENDBRANCH   8   2
BRANCH   7   5
ATOM      5  N   UNL     1      -5.315   2.393  25.953  0.00  0.00    -0.305 NA
ATOM     26  H   UNL     1      -6.148   2.661  26.479  0.00  0.00    +0.123 HD
BRANCH   5  13
ATOM     13  C   UNL     1      -5.706   1.482  24.883  0.00  0.00    +0.116 C 
BRANCH  13  19
ATOM     19  C   UNL     1      -4.864   0.233  24.877  0.00  0.00    -0.033 A 
ATOM     20  C   UNL     1      -4.143  -0.127  26.016  0.00  0.00    +0.008 A 
ATOM     21  C   UNL     1      -4.806  -0.563  23.734  0.00  0.00    +0.008 A 
ATOM     22  C   UNL     1      -3.363  -1.284  26.009  0.00  0.00    +0.046 A 
ATOM     23  C   UNL     1      -4.027  -1.720  23.727  0.00  0.00    +0.046 A 
ATOM     24  C   UNL     1      -3.306  -2.080  24.865  0.00  0.00    +0.120 A 
BRANCH  24   4
ATOM      4  O   UNL     1      -2.545  -3.209  24.859  0.00  0.00    -0.495 OA
ATOM     25  C   UNL     1      -1.467  -3.259  23.925  0.00  0.00    +0.277 C 
ENDBRANCH  24   4
ENDBRANCH  13  19
ENDBRANCH   5  13
ENDBRANCH   7   5
BRANCH   9  11
ATOM     11  C   UNL     1      -1.243   4.960  25.238  0.00  0.00    +0.138 C 
BRANCH  11   6
ATOM      3  O   UNL     1       0.108   2.676  26.398  0.00  0.00    -0.276 OA
ATOM      6  N   UNL     1      -0.592   3.877  24.537  0.00  0.00    -0.313 N 
ATOM     15  C   UNL     1       0.032   2.822  25.181  0.00  0.00    +0.214 C 
ATOM     27  H   UNL     1      -0.608   3.901  23.521  0.00  0.00    +0.149 HD
BRANCH  15  14
ATOM     14  C   UNL     1       0.649   1.820  24.219  0.00  0.00    +0.102 C 
BRANCH  14  12
ATOM     12  C   UNL     1      -0.228   0.579  23.929  0.00  0.00    -0.029 C 
ATOM     16  C   UNL     1      -1.572   0.985  23.300  0.00  0.00    +0.011 C 
ATOM     17  C   UNL     1      -0.492  -0.236  25.206  0.00  0.00    +0.011 C 
ATOM     18  C   UNL     1       0.527  -0.317  22.927  0.00  0.00    +0.011 C 
ENDBRANCH  14  12
ENDBRANCH  15  14
ENDBRANCH  11   6
ENDBRANCH   9  11
TORSDOF 9
ENDMDL
MODEL 4
REMARK VINA RESULT:      -4.0      2.420      3.054
REMARK  Name = 75536521
REMARK  13 active torsions:
REMARK  status: ('A' for Active; 'I' for Inactive)
REMARK    1  A    between atoms: O_2  and  C_8
REMARK    2  A    between atoms: O_4  and  C_24
REMARK    3  A    between atoms: O_4  and  C_25
REMARK    4  A    between atoms: N_5  and  C_7
REMARK    5  A    between atoms: N_5  and  C_13
REMARK    6  A    between atoms: N_6  and  C_11
REMARK    7  A    between atoms: C_9  and  C_11
REMARK    8  A    between atoms: C_12  and  C_14
REMARK    9  A    between atoms: C_12  and  C_16
REMARK   10  A    between atoms: C_12  and  C_17
REMARK   11  A    between atoms: C_12  and  C_18
REMARK   12  A    between atoms: C_13  and  C_19
REMARK   13  A    between atoms: C_14  and  C_15
REMARK                            x       y       z     vdW  Elec       q    Type
REMARK                         _______ _______ _______ _____ _____    ______ ____
ROOT
ATOM      1  O   UNL     1      -0.439   4.520  24.216  0.00  0.00    -0.371 OA
ATOM      7  C   UNL     1      -1.776   4.168  26.146  0.00  0.00    +0.111 C 
ATOM      8  C   UNL     1      -1.002   2.900  25.843  0.00  0.00    +0.164 C 
ATOM      9  C   UNL     1       0.129   3.445  24.981  0.00  0.00    +0.165 C 
ATOM     10  C   UNL     1      -1.690   4.899  24.816  0.00  0.00    +0.181 C 
ENDROOT
BRANCH   8   2
ATOM      2  O   UNL     1      -0.517   2.264  27.009  0.00  0.00    -0.388 OA
ATOM     28  H   UNL     1      -0.697   1.311  26.936  0.00  0.00    +0.210 HD
ENDBRANCH   8   2
BRANCH   7   5
ATOM      5  N   UNL     1      -3.146   3.930  26.572  0.00  0.00    -0.305 NA
ATOM     26  H   UNL     1      -3.443   4.695  27.178  0.00  0.00    +0.123 HD
BRANCH   5  13
ATOM     13  C   UNL     1      -4.047   3.857  25.429  0.00  0.00    +0.116 C 
BRANCH  13  19
ATOM     19  C   UNL     1      -4.077   2.476  24.827  0.00  0.00    -0.033 A 
ATOM     20  C   UNL     1      -4.808   1.462  25.446  0.00  0.00    +0.008 A 
ATOM     21  C   UNL     1      -3.374   2.212  23.652  0.00  0.00    +0.008 A 
ATOM     22  C   UNL     1      -4.836   0.184  24.889  0.00  0.00    +0.046 A 
ATOM     23  C   UNL     1      -3.402   0.934  23.095  0.00  0.00    +0.046 A 
ATOM     24  C   UNL     1      -4.133  -0.080  23.713  0.00  0.00    +0.120 A 
BRANCH  24   4
ATOM      4  O   UNL     1      -4.160  -1.328  23.170  0.00  0.00    -0.495 OA
ATOM     25  C   UNL     1      -4.469  -2.411  24.046  0.00  0.00    +0.277 C 
ENDBRANCH  24   4
ENDBRANCH  13  19
ENDBRANCH   5  13
ENDBRANCH   7   5
BRANCH   9  11
ATOM     11  C   UNL     1       0.725   2.407  24.046  0.00  0.00    +0.138 C 
BRANCH  11   6
ATOM      3  O   UNL     1       1.488  -0.193  23.021  0.00  0.00    -0.276 OA
ATOM      6  N   UNL     1      -0.083   1.209  24.005  0.00  0.00    -0.313 N 
ATOM     15  C   UNL     1       0.370   0.005  23.492  0.00  0.00    +0.214 C 
ATOM     27  H   UNL     1      -1.025   1.267  24.381  0.00  0.00    +0.149 HD
BRANCH  15  14
ATOM     14  C   UNL     1      -0.674  -1.098  23.554  0.00  0.00    +0.102 C 
BRANCH  14  12
ATOM     12  C   UNL     1      -0.878  -1.716  24.957  0.00  0.00    -0.029 C 
ATOM     16  C   UNL     1      -1.827  -2.925  24.896  0.00  0.00    +0.011 C 
ATOM     17  C   UNL     1      -1.435  -0.684  25.952  0.00  0.00    +0.011 C 
ATOM     18  C   UNL     1       0.493  -2.198  25.472  0.00  0.00    +0.011 C 
ENDBRANCH  14  12
ENDBRANCH  15  14
ENDBRANCH  11   6
ENDBRANCH   9  11
TORSDOF 9
ENDMDL
MODEL 5
REMARK VINA RESULT:      -3.7      3.171      7.357
REMARK  Name = 75536521
REMARK  13 active torsions:
REMARK  status: ('A' for Active; 'I' for Inactive)
REMARK    1  A    between atoms: O_2  and  C_8
REMARK    2  A    between atoms: O_4  and  C_24
REMARK    3  A    between atoms: O_4  and  C_25
REMARK    4  A    between atoms: N_5  and  C_7
REMARK    5  A    between atoms: N_5  and  C_13
REMARK    6  A    between atoms: N_6  and  C_11
REMARK    7  A    between atoms: C_9  and  C_11
REMARK    8  A    between atoms: C_12  and  C_14
REMARK    9  A    between atoms: C_12  and  C_16
REMARK   10  A    between atoms: C_12  and  C_17
REMARK   11  A    between atoms: C_12  and  C_18
REMARK   12  A    between atoms: C_13  and  C_19
REMARK   13  A    between atoms: C_14  and  C_15
REMARK                            x       y       z     vdW  Elec       q    Type
REMARK                         _______ _______ _______ _____ _____    ______ ____
ROOT
ATOM      1  O   UNL     1      -2.827  -2.841  23.682  0.00  0.00    -0.371 OA
ATOM      7  C   UNL     1      -1.208  -2.168  25.285  0.00  0.00    +0.111 C 
ATOM      8  C   UNL     1      -2.457  -1.323  25.458  0.00  0.00    +0.164 C 
ATOM      9  C   UNL     1      -3.501  -2.199  24.778  0.00  0.00    +0.165 C 
ATOM     10  C   UNL     1      -1.408  -2.716  23.882  0.00  0.00    +0.181 C 
ENDROOT
BRANCH   8   2
ATOM      2  O   UNL     1      -2.771  -1.084  26.815  0.00  0.00    -0.388 OA
ATOM     28  H   UNL     1      -3.653  -1.455  26.994  0.00  0.00    +0.210 HD
ENDBRANCH   8   2
BRANCH   7   5
ATOM      5  N   UNL     1       0.029  -1.419  25.429  0.00  0.00    -0.305 NA
ATOM     26  H   UNL     1       0.806  -2.075  25.516  0.00  0.00    +0.123 HD
BRANCH   5  13
ATOM     13  C   UNL     1       0.263  -0.562  24.272  0.00  0.00    +0.116 C 
BRANCH  13  19
ATOM     19  C   UNL     1      -0.069   0.877  24.566  0.00  0.00    -0.033 A 
ATOM     20  C   UNL     1      -0.295   1.286  25.881  0.00  0.00    +0.008 A 
ATOM     21  C   UNL     1      -0.150   1.801  23.525  0.00  0.00    +0.008 A 
ATOM     22  C   UNL     1      -0.602   2.619  26.153  0.00  0.00    +0.046 A 
ATOM     23  C   UNL     1      -0.458   3.134  23.796  0.00  0.00    +0.046 A 
ATOM     24  C   UNL     1      -0.683   3.543  25.110  0.00  0.00    +0.120 A 
BRANCH  24   4
ATOM      4  O   UNL     1      -0.984   4.844  25.376  0.00  0.00    -0.495 OA
ATOM     25  C   UNL     1      -2.354   5.229  25.265  0.00  0.00    +0.277 C 
ENDBRANCH  24   4
ENDBRANCH  13  19
ENDBRANCH   5  13
ENDBRANCH   7   5
BRANCH   9  11
ATOM     11  C   UNL     1      -4.695  -1.416  24.260  0.00  0.00    +0.138 C 
BRANCH  11   6
ATOM      3  O   UNL     1      -3.399   0.949  23.203  0.00  0.00    -0.276 OA
ATOM      6  N   UNL     1      -4.727  -0.079  24.808  0.00  0.00    -0.313 N 
ATOM     15  C   UNL     1      -4.072   0.995  24.229  0.00  0.00    +0.214 C 
ATOM     27  H   UNL     1      -5.268   0.066  25.656  0.00  0.00    +0.149 HD
BRANCH  15  14
ATOM     14  C   UNL     1      -4.254   2.290  25.004  0.00  0.00    +0.102 C 
BRANCH  14  12
ATOM     12  C   UNL     1      -5.710   2.583  25.440  0.00  0.00    -0.029 C 
ATOM     16  C   UNL     1      -5.992   2.017  26.843  0.00  0.00    +0.011 C 
ATOM     17  C   UNL     1      -6.725   1.999  24.444  0.00  0.00    +0.011 C 
ATOM     18  C   UNL     1      -5.896   4.112  25.486  0.00  0.00    +0.011 C 
ENDBRANCH  14  12
ENDBRANCH  15  14
ENDBRANCH  11   6
ENDBRANCH   9  11
TORSDOF 9
ENDMDL
MODEL 6
REMARK VINA RESULT:      -3.7      2.015      7.113
REMARK  Name = 75536521
REMARK  13 active torsions:
REMARK  status: ('A' for Active; 'I' for Inactive)
REMARK    1  A    between atoms: O_2  and  C_8
REMARK    2  A    between atoms: O_4  and  C_24
REMARK    3  A    between atoms: O_4  and  C_25
REMARK    4  A    between atoms: N_5  and  C_7
REMARK    5  A    between atoms: N_5  and  C_13
REMARK    6  A    between atoms: N_6  and  C_11
REMARK    7  A    between atoms: C_9  and  C_11
REMARK    8  A    between atoms: C_12  and  C_14
REMARK    9  A    between atoms: C_12  and  C_16
REMARK   10  A    between atoms: C_12  and  C_17
REMARK   11  A    between atoms: C_12  and  C_18
REMARK   12  A    between atoms: C_13  and  C_19
REMARK   13  A    between atoms: C_14  and  C_15
REMARK                            x       y       z     vdW  Elec       q    Type
REMARK                         _______ _______ _______ _____ _____    ______ ____
ROOT
ATOM      1  O   UNL     1      -4.663  -1.418  24.303  0.00  0.00    -0.371 OA
ATOM      7  C   UNL     1      -2.316  -1.598  24.620  0.00  0.00    +0.111 C 
ATOM      8  C   UNL     1      -2.754  -0.187  24.964  0.00  0.00    +0.164 C 
ATOM      9  C   UNL     1      -4.241  -0.397  25.222  0.00  0.00    +0.165 C 
ATOM     10  C   UNL     1      -3.495  -2.087  23.795  0.00  0.00    +0.181 C 
ENDROOT
BRANCH   8   2
ATOM      2  O   UNL     1      -2.090   0.329  26.100  0.00  0.00    -0.388 OA
ATOM     28  H   UNL     1      -1.711   1.194  25.866  0.00  0.00    +0.210 HD
ENDBRANCH   8   2
BRANCH   7   5
ATOM      5  N   UNL     1      -1.056  -1.659  23.896  0.00  0.00    -0.305 NA
ATOM     26  H   UNL     1      -1.045  -2.500  23.319  0.00  0.00    +0.123 HD
BRANCH   5  13
ATOM     13  C   UNL     1      -0.887  -0.494  23.037  0.00  0.00    +0.116 C 
BRANCH  13  19
ATOM     19  C   UNL     1       0.559  -0.088  22.920  0.00  0.00    -0.033 A 
ATOM     20  C   UNL     1       1.106   0.812  23.836  0.00  0.00    +0.008 A 
ATOM     21  C   UNL     1       1.351  -0.613  21.900  0.00  0.00    +0.008 A 
ATOM     22  C   UNL     1       2.445   1.187  23.728  0.00  0.00    +0.046 A 
ATOM     23  C   UNL     1       2.690  -0.237  21.792  0.00  0.00    +0.046 A 
ATOM     24  C   UNL     1       3.237   0.662  22.707  0.00  0.00    +0.120 A 
BRANCH  24   4
ATOM      4  O   UNL     1       4.543   1.029  22.602  0.00  0.00    -0.495 OA
ATOM     25  C   UNL     1       5.492   0.276  23.357  0.00  0.00    +0.277 C 
ENDBRANCH  24   4
ENDBRANCH  13  19
ENDBRANCH   5  13
ENDBRANCH   7   5
BRANCH   9  11
ATOM     11  C   UNL     1      -5.068   0.859  25.011  0.00  0.00    +0.138 C 
BRANCH  11   6
ATOM      3  O   UNL     1      -5.426   3.651  25.694  0.00  0.00    -0.276 OA
ATOM      6  N   UNL     1      -4.242   1.973  24.606  0.00  0.00    -0.313 N 
ATOM     15  C   UNL     1      -4.494   3.282  24.984  0.00  0.00    +0.214 C 
ATOM     27  H   UNL     1      -3.436   1.771  24.022  0.00  0.00    +0.149 HD
BRANCH  15  14
ATOM     14  C   UNL     1      -3.485   4.268  24.419  0.00  0.00    +0.102 C 
BRANCH  14  12
ATOM     12  C   UNL     1      -2.068   4.164  25.030  0.00  0.00    -0.029 C 
ATOM     16  C   UNL     1      -1.185   3.198  24.220  0.00  0.00    +0.011 C 
ATOM     17  C   UNL     1      -2.118   3.698  26.494  0.00  0.00    +0.011 C 
ATOM     18  C   UNL     1      -1.424   5.564  24.986  0.00  0.00    +0.011 C 
ENDBRANCH  14  12
ENDBRANCH  15  14
ENDBRANCH  11   6
ENDBRANCH   9  11
TORSDOF 9
ENDMDL
MODEL 7
REMARK VINA RESULT:      -3.7      2.806      5.141
REMARK  Name = 75536521
REMARK  13 active torsions:
REMARK  status: ('A' for Active; 'I' for Inactive)
REMARK    1  A    between atoms: O_2  and  C_8
REMARK    2  A    between atoms: O_4  and  C_24
REMARK    3  A    between atoms: O_4  and  C_25
REMARK    4  A    between atoms: N_5  and  C_7
REMARK    5  A    between atoms: N_5  and  C_13
REMARK    6  A    between atoms: N_6  and  C_11
REMARK    7  A    between atoms: C_9  and  C_11
REMARK    8  A    between atoms: C_12  and  C_14
REMARK    9  A    between atoms: C_12  and  C_16
REMARK   10  A    between atoms: C_12  and  C_17
REMARK   11  A    between atoms: C_12  and  C_18
REMARK   12  A    between atoms: C_13  and  C_19
REMARK   13  A    between atoms: C_14  and  C_15
REMARK                            x       y       z     vdW  Elec       q    Type
REMARK                         _______ _______ _______ _____ _____    ______ ____
ROOT
ATOM      1  O   UNL     1      -0.864  -0.821  25.966  0.00  0.00    -0.371 OA
ATOM      7  C   UNL     1      -2.550  -2.396  25.403  0.00  0.00    +0.111 C 
ATOM      8  C   UNL     1      -1.700  -2.122  24.177  0.00  0.00    +0.164 C 
ATOM      9  C   UNL     1      -0.434  -1.567  24.816  0.00  0.00    +0.165 C 
ATOM     10  C   UNL     1      -2.219  -1.196  26.274  0.00  0.00    +0.181 C 
ENDROOT
BRANCH   8   2
ATOM      2  O   UNL     1      -1.441  -3.287  23.419  0.00  0.00    -0.388 OA
ATOM     28  H   UNL     1      -1.835  -4.047  23.883  0.00  0.00    +0.210 HD
ENDBRANCH   8   2
BRANCH   7   5
ATOM      5  N   UNL     1      -3.971  -2.511  25.116  0.00  0.00    -0.305 NA
ATOM     26  H   UNL     1      -4.499  -2.075  25.872  0.00  0.00    +0.123 HD
BRANCH   5  13
ATOM     13  C   UNL     1      -4.309  -1.850  23.861  0.00  0.00    +0.116 C 
BRANCH  13  19
ATOM     19  C   UNL     1      -4.389  -0.354  24.020  0.00  0.00    -0.033 A 
ATOM     20  C   UNL     1      -5.270   0.201  24.949  0.00  0.00    +0.008 A 
ATOM     21  C   UNL     1      -3.585   0.474  23.240  0.00  0.00    +0.008 A 
ATOM     22  C   UNL     1      -5.345   1.585  25.096  0.00  0.00    +0.046 A 
ATOM     23  C   UNL     1      -3.659   1.859  23.387  0.00  0.00    +0.046 A 
ATOM     24  C   UNL     1      -4.539   2.415  24.315  0.00  0.00    +0.120 A 
BRANCH  24   4
ATOM      4  O   UNL     1      -4.613   3.766  24.459  0.00  0.00    -0.495 OA
ATOM     25  C   UNL     1      -5.316   4.261  25.598  0.00  0.00    +0.277 C 
ENDBRANCH  24   4
ENDBRANCH  13  19
ENDBRANCH   5  13
ENDBRANCH   7   5
BRANCH   9  11
ATOM     11  C   UNL     1       0.361  -0.665  23.887  0.00  0.00    +0.138 C 
BRANCH  11   6
ATOM      3  O   UNL     1       1.887   1.795  23.806  0.00  0.00    -0.276 OA
ATOM      6  N   UNL     1      -0.153   0.685  23.895  0.00  0.00    -0.313 N 
ATOM     15  C   UNL     1       0.659   1.806  23.854  0.00  0.00    +0.214 C 
ATOM     27  H   UNL     1      -1.162   0.802  23.923  0.00  0.00    +0.149 HD
BRANCH  15  14
ATOM     14  C   UNL     1      -0.124   3.109  23.882  0.00  0.00    +0.102 C 
BRANCH  14  12
ATOM     12  C   UNL     1      -0.658   3.511  25.277  0.00  0.00    -0.029 C 
ATOM     16  C   UNL     1       0.452   3.431  26.339  0.00  0.00    +0.011 C 
ATOM     17  C   UNL     1      -1.837   2.623  25.708  0.00  0.00    +0.011 C 
ATOM     18  C   UNL     1      -1.151   4.970  25.198  0.00  0.00    +0.011 C 
ENDBRANCH  14  12
ENDBRANCH  15  14
ENDBRANCH  11   6
ENDBRANCH   9  11
TORSDOF 9
ENDMDL
MODEL 8
REMARK VINA RESULT:      -3.3      2.525      6.107
REMARK  Name = 75536521
REMARK  13 active torsions:
REMARK  status: ('A' for Active; 'I' for Inactive)
REMARK    1  A    between atoms: O_2  and  C_8
REMARK    2  A    between atoms: O_4  and  C_24
REMARK    3  A    between atoms: O_4  and  C_25
REMARK    4  A    between atoms: N_5  and  C_7
REMARK    5  A    between atoms: N_5  and  C_13
REMARK    6  A    between atoms: N_6  and  C_11
REMARK    7  A    between atoms: C_9  and  C_11
REMARK    8  A    between atoms: C_12  and  C_14
REMARK    9  A    between atoms: C_12  and  C_16
REMARK   10  A    between atoms: C_12  and  C_17
REMARK   11  A    between atoms: C_12  and  C_18
REMARK   12  A    between atoms: C_13  and  C_19
REMARK   13  A    between atoms: C_14  and  C_15
REMARK                            x       y       z     vdW  Elec       q    Type
REMARK                         _______ _______ _______ _____ _____    ______ ____
ROOT
ATOM      1  O   UNL     1       0.862  -0.873  23.250  0.00  0.00    -0.371 OA
ATOM      7  C   UNL     1       0.631   1.329  24.109  0.00  0.00    +0.111 C 
ATOM      8  C   UNL     1      -0.432   0.441  24.730  0.00  0.00    +0.164 C 
ATOM      9  C   UNL     1       0.172  -0.939  24.509  0.00  0.00    +0.165 C 
ATOM     10  C   UNL     1       1.035   0.510  22.895  0.00  0.00    +0.181 C 
ENDROOT
BRANCH   8   2
ATOM      2  O   UNL     1      -0.638   0.713  26.102  0.00  0.00    -0.388 OA
ATOM     28  H   UNL     1      -1.362   0.148  26.420  0.00  0.00    +0.210 HD
ENDBRANCH   8   2
BRANCH   7   5
ATOM      5  N   UNL     1       0.154   2.657  23.763  0.00  0.00    -0.305 NA
ATOM     26  H   UNL     1      -0.689   2.570  23.195  0.00  0.00    +0.123 HD
BRANCH   5  13
ATOM     13  C   UNL     1      -0.160   3.432  24.957  0.00  0.00    +0.116 C 
BRANCH  13  19
ATOM     19  C   UNL     1      -1.645   3.590  25.148  0.00  0.00    -0.033 A 
ATOM     20  C   UNL     1      -2.174   3.710  26.434  0.00  0.00    +0.008 A 
ATOM     21  C   UNL     1      -2.492   3.616  24.041  0.00  0.00    +0.008 A 
ATOM     22  C   UNL     1      -3.549   3.856  26.611  0.00  0.00    +0.046 A 
ATOM     23  C   UNL     1      -3.868   3.762  24.217  0.00  0.00    +0.046 A 
ATOM     24  C   UNL     1      -4.396   3.883  25.502  0.00  0.00    +0.120 A 
BRANCH  24   4
ATOM      4  O   UNL     1      -5.739   4.025  25.675  0.00  0.00    -0.495 OA
ATOM     25  C   UNL     1      -6.290   5.321  25.441  0.00  0.00    +0.277 C 
ENDBRANCH  24   4
ENDBRANCH  13  19
ENDBRANCH   5  13
ENDBRANCH   7   5
BRANCH   9  11
ATOM     11  C   UNL     1      -0.865  -2.048  24.470  0.00  0.00    +0.138 C 
BRANCH  11   6
ATOM      3  O   UNL     1      -3.395  -3.363  24.976  0.00  0.00    -0.276 OA
ATOM      6  N   UNL     1      -2.189  -1.524  24.225  0.00  0.00    -0.313 N 
ATOM     15  C   UNL     1      -3.348  -2.231  24.501  0.00  0.00    +0.214 C 
ATOM     27  H   UNL     1      -2.257  -0.586  23.840  0.00  0.00    +0.149 HD
BRANCH  15  14
ATOM     14  C   UNL     1      -4.611  -1.463  24.144  0.00  0.00    +0.102 C 
BRANCH  14  12
ATOM     12  C   UNL     1      -4.559   0.050  24.462  0.00  0.00    -0.029 C 
ATOM     16  C   UNL     1      -5.971   0.659  24.486  0.00  0.00    +0.011 C 
ATOM     17  C   UNL     1      -3.695   0.811  23.442  0.00  0.00    +0.011 C 
ATOM     18  C   UNL     1      -3.930   0.223  25.859  0.00  0.00    +0.011 C 
ENDBRANCH  14  12
ENDBRANCH  15  14
ENDBRANCH  11   6
ENDBRANCH   9  11
TORSDOF 9
ENDMDL
MODEL 9
REMARK VINA RESULT:      -2.8      2.929      4.415
REMARK  Name = 75536521
REMARK  13 active torsions:
REMARK  status: ('A' for Active; 'I' for Inactive)
REMARK    1  A    between atoms: O_2  and  C_8
REMARK    2  A    between atoms: O_4  and  C_24
REMARK    3  A    between atoms: O_4  and  C_25
REMARK    4  A    between atoms: N_5  and  C_7
REMARK    5  A    between atoms: N_5  and  C_13
REMARK    6  A    between atoms: N_6  and  C_11
REMARK    7  A    between atoms: C_9  and  C_11
REMARK    8  A    between atoms: C_12  and  C_14
REMARK    9  A    between atoms: C_12  and  C_16
REMARK   10  A    between atoms: C_12  and  C_17
REMARK   11  A    between atoms: C_12  and  C_18
REMARK   12  A    between atoms: C_13  and  C_19
REMARK   13  A    between atoms: C_14  and  C_15
REMARK                            x       y       z     vdW  Elec       q    Type
REMARK                         _______ _______ _______ _____ _____    ______ ____
ROOT
ATOM      1  O   UNL     1      -3.416   4.083  24.002  0.00  0.00    -0.371 OA
ATOM      7  C   UNL     1      -5.417   2.932  24.563  0.00  0.00    +0.111 C 
ATOM      8  C   UNL     1      -4.604   3.153  25.824  0.00  0.00    +0.164 C 
ATOM      9  C   UNL     1      -3.701   4.302  25.393  0.00  0.00    +0.165 C 
ATOM     10  C   UNL     1      -4.362   3.130  23.486  0.00  0.00    +0.181 C 
ENDROOT
BRANCH   8   2
ATOM      2  O   UNL     1      -5.404   3.500  26.936  0.00  0.00    -0.388 OA
ATOM     28  H   UNL     1      -5.594   2.691  27.441  0.00  0.00    +0.210 HD
ENDBRANCH   8   2
BRANCH   7   5
ATOM      5  N   UNL     1      -6.052   1.626  24.498  0.00  0.00    -0.305 NA
ATOM     26  H   UNL     1      -5.763   1.158  23.639  0.00  0.00    +0.123 HD
BRANCH   5  13
ATOM     13  C   UNL     1      -5.671   0.799  25.637  0.00  0.00    +0.116 C 
BRANCH  13  19
ATOM     19  C   UNL     1      -4.618  -0.212  25.267  0.00  0.00    -0.033 A 
ATOM     20  C   UNL     1      -4.479  -0.620  23.939  0.00  0.00    +0.008 A 
ATOM     21  C   UNL     1      -3.782  -0.740  26.250  0.00  0.00    +0.008 A 
ATOM     22  C   UNL     1      -3.504  -1.557  23.597  0.00  0.00    +0.046 A 
ATOM     23  C   UNL     1      -2.807  -1.677  25.907  0.00  0.00    +0.046 A 
ATOM     24  C   UNL     1      -2.667  -2.085  24.581  0.00  0.00    +0.120 A 
BRANCH  24   4
ATOM      4  O   UNL     1      -1.716  -2.999  24.247  0.00  0.00    -0.495 OA
ATOM     25  C   UNL     1      -0.451  -2.887  24.897  0.00  0.00    +0.277 C 
ENDBRANCH  24   4
ENDBRANCH  13  19
ENDBRANCH   5  13
ENDBRANCH   7   5
BRANCH   9  11
ATOM     11  C   UNL     1      -2.403   4.372  26.179  0.00  0.00    +0.138 C 
BRANCH  11   6
ATOM      3  O   UNL     1      -0.305   4.892  24.252  0.00  0.00    -0.276 OA
ATOM      6  N   UNL     1      -1.428   3.434  25.671  0.00  0.00    -0.313 N 
ATOM     15  C   UNL     1      -0.456   3.777  24.745  0.00  0.00    +0.214 C 
ATOM     27  H   UNL     1      -1.463   2.483  26.026  0.00  0.00    +0.149 HD
BRANCH  15  14
ATOM     14  C   UNL     1       0.440   2.610  24.365  0.00  0.00    +0.102 C 
BRANCH  14  12
ATOM     12  C   UNL     1      -0.297   1.263  24.177  0.00  0.00    -0.029 C 
ATOM     16  C   UNL     1      -1.554   1.436  23.306  0.00  0.00    +0.011 C 
ATOM     17  C   UNL     1      -0.698   0.646  25.527  0.00  0.00    +0.011 C 
ATOM     18  C   UNL     1       0.660   0.289  23.461  0.00  0.00    +0.011 C 
ENDBRANCH  14  12
ENDBRANCH  15  14
ENDBRANCH  11   6
ENDBRANCH   9  11
TORSDOF 9
ENDMDL
MODEL 10
REMARK VINA RESULT:      -2.2      2.643      6.423
REMARK  Name = 75536521
REMARK  13 active torsions:
REMARK  status: ('A' for Active; 'I' for Inactive)
REMARK    1  A    between atoms: O_2  and  C_8
REMARK    2  A    between atoms: O_4  and  C_24
REMARK    3  A    between atoms: O_4  and  C_25
REMARK    4  A    between atoms: N_5  and  C_7
REMARK    5  A    between atoms: N_5  and  C_13
REMARK    6  A    between atoms: N_6  and  C_11
REMARK    7  A    between atoms: C_9  and  C_11
REMARK    8  A    between atoms: C_12  and  C_14
REMARK    9  A    between atoms: C_12  and  C_16
REMARK   10  A    between atoms: C_12  and  C_17
REMARK   11  A    between atoms: C_12  and  C_18
REMARK   12  A    between atoms: C_13  and  C_19
REMARK   13  A    between atoms: C_14  and  C_15
REMARK                            x       y       z     vdW  Elec       q    Type
REMARK                         _______ _______ _______ _____ _____    ______ ____
ROOT
ATOM      1  O   UNL     1      -1.113   3.133  26.313  0.00  0.00    -0.371 OA
ATOM      7  C   UNL     1       0.326   2.296  24.618  0.00  0.00    +0.111 C 
ATOM      8  C   UNL     1      -0.386   3.530  24.097  0.00  0.00    +0.164 C 
ATOM      9  C   UNL     1      -0.805   4.199  25.400  0.00  0.00    +0.165 C 
ATOM     10  C   UNL     1      -0.558   1.911  25.793  0.00  0.00    +0.181 C 
ENDROOT
BRANCH   8   2
ATOM      2  O   UNL     1       0.457   4.361  23.324  0.00  0.00    -0.388 OA
ATOM     28  H   UNL     1       1.033   3.794  22.784  0.00  0.00    +0.210 HD
ENDBRANCH   8   2
BRANCH   7   5
ATOM      5  N   UNL     1       0.452   1.233  23.634  0.00  0.00    -0.305 NA
ATOM     26  H   UNL     1       1.242   1.439  23.022  0.00  0.00    +0.123 HD
BRANCH   5  13
ATOM     13  C   UNL     1       0.675  -0.056  24.277  0.00  0.00    +0.116 C 
BRANCH  13  19
ATOM     19  C   UNL     1      -0.589  -0.873  24.346  0.00  0.00    -0.033 A 
ATOM     20  C   UNL     1      -0.614  -2.055  25.089  0.00  0.00    +0.008 A 
ATOM     21  C   UNL     1      -1.732  -0.450  23.670  0.00  0.00    +0.008 A 
ATOM     22  C   UNL     1      -1.783  -2.812  25.153  0.00  0.00    +0.046 A 
ATOM     23  C   UNL     1      -2.901  -1.207  23.734  0.00  0.00    +0.046 A 
ATOM     24  C   UNL     1      -2.927  -2.387  24.476  0.00  0.00    +0.120 A 
BRANCH  24   4
ATOM      4  O   UNL     1      -4.068  -3.127  24.538  0.00  0.00    -0.495 OA
ATOM     25  C   UNL     1      -4.995  -2.983  23.461  0.00  0.00    +0.277 C 
ENDBRANCH  24   4
ENDBRANCH  13  19
ENDBRANCH   5  13
ENDBRANCH   7   5
BRANCH   9  11
ATOM     11  C   UNL     1      -2.011   5.109  25.246  0.00  0.00    +0.138 C 
BRANCH  11   6
ATOM      3  O   UNL     1      -4.204   3.843  23.839  0.00  0.00    -0.276 OA
ATOM      6  N   UNL     1      -3.196   4.516  25.822  0.00  0.00    -0.313 N 
ATOM     15  C   UNL     1      -4.197   3.930  25.065  0.00  0.00    +0.214 C 
ATOM     27  H   UNL     1      -3.281   4.529  26.834  0.00  0.00    +0.149 HD
BRANCH  15  14
ATOM     14  C   UNL     1      -5.340   3.389  25.907  0.00  0.00    +0.102 C 
BRANCH  14  12
ATOM     12  C   UNL     1      -5.679   1.901  25.656  0.00  0.00    -0.029 C 
ATOM     16  C   UNL     1      -6.344   1.268  26.891  0.00  0.00    +0.011 C 
ATOM     17  C   UNL     1      -4.425   1.092  25.286  0.00  0.00    +0.011 C 
ATOM     18  C   UNL     1      -6.671   1.828  24.479  0.00  0.00    +0.011 C 
ENDBRANCH  14  12
ENDBRANCH  15  14
ENDBRANCH  11   6
ENDBRANCH   9  11
TORSDOF 9
ENDMDL
