MODEL 1
REMARK VINA RESULT:      -4.4      0.000      0.000
REMARK  Name = 11883345
REMARK  7 active torsions:
REMARK  status: ('A' for Active; 'I' for Inactive)
REMARK    1  A    between atoms: S_1  and  N_8
REMARK    2  A    between atoms: S_1  and  C_16
REMARK    3  A    between atoms: O_4  and  C_13
REMARK    4  A    between atoms: O_4  and  C_17
REMARK    5  A    between atoms: N_8  and  C_12
REMARK    6  A    between atoms: N_9  and  C_23
REMARK    7  A    between atoms: C_22  and  C_24
REMARK                            x       y       z     vdW  Elec       q    Type
REMARK                         _______ _______ _______ _____ _____    ______ ____
ROOT
ATOM      2  O   UNL     1      -2.940   0.275  23.817  0.00  0.00    -0.369 OA
ATOM      3  O   UNL     1      -3.161  -2.466  25.175  0.00  0.00    -0.368 OA
ATOM     10  C   UNL     1      -3.223  -1.127  25.708  0.00  0.00    +0.171 C 
ATOM     11  C   UNL     1      -2.227  -0.295  24.927  0.00  0.00    +0.191 C 
ATOM     12  C   UNL     1      -4.557  -0.498  25.379  0.00  0.00    +0.133 C 
ATOM     13  C   UNL     1      -1.223  -1.328  24.474  0.00  0.00    +0.235 C 
ATOM     14  C   UNL     1      -4.341  -0.011  23.957  0.00  0.00    +0.183 C 
ATOM     15  C   UNL     1      -2.099  -2.531  24.210  0.00  0.00    +0.207 C 
ENDROOT
BRANCH  12   8
ATOM      8  N   UNL     1      -4.854   0.596  26.270  0.00  0.00    -0.182 NA
ATOM     30  H   UNL     1      -4.971   0.371  27.266  0.00  0.00    +0.148 HD
BRANCH   8   1
ATOM      1  S   UNL     1      -5.579   2.008  25.663  0.00  0.00    +0.059 S 
ATOM      5  O   UNL     1      -6.379   2.625  26.704  0.00  0.00    -0.153 OA
ATOM      6  O   UNL     1      -6.163   1.716  24.369  0.00  0.00    -0.153 OA
BRANCH   1  16
ATOM     16  C   UNL     1      -4.174   3.042  25.373  0.00  0.00    +0.105 A 
ATOM     18  C   UNL     1      -3.392   3.434  26.446  0.00  0.00    +0.029 A 
ATOM     19  C   UNL     1      -3.882   3.440  24.081  0.00  0.00    +0.029 A 
ATOM     20  C   UNL     1      -2.283   4.249  26.219  0.00  0.00    +0.005 A 
ATOM     21  C   UNL     1      -2.773   4.255  23.853  0.00  0.00    +0.005 A 
ATOM     22  C   UNL     1      -1.974   4.660  24.922  0.00  0.00    -0.050 A 
ATOM     24  C   UNL     1      -0.788   5.531  24.678  0.00  0.00    +0.044 C 
ENDBRANCH   1  16
ENDBRANCH   8   1
ENDBRANCH  12   8
BRANCH  13   4
ATOM      4  O   UNL     1      -0.493  -0.942  23.332  0.00  0.00    -0.442 OA
BRANCH   4  17
ATOM      7  O   UNL     1       0.577   0.986  23.939  0.00  0.00    -0.226 OA
ATOM      9  N   UNL     1       1.760  -0.907  23.235  0.00  0.00    -0.251 N 
ATOM     17  C   UNL     1       0.632  -0.170  23.541  0.00  0.00    +0.405 C 
ATOM     31  H   UNL     1       1.601  -1.860  22.918  0.00  0.00    +0.158 HD
BRANCH   9  23
ATOM     23  C   UNL     1       3.111  -0.499  23.309  0.00  0.00    +0.036 A 
ATOM     25  C   UNL     1       4.046  -1.346  23.883  0.00  0.00    +0.023 A 
ATOM     26  C   UNL     1       3.476   0.740  22.805  0.00  0.00    +0.023 A 
ATOM     27  C   UNL     1       5.380  -0.944  23.956  0.00  0.00    +0.002 A 
ATOM     28  C   UNL     1       4.809   1.143  22.879  0.00  0.00    +0.002 A 
ATOM     29  C   UNL     1       5.762   0.300  23.454  0.00  0.00    +0.000 A 
ENDBRANCH   9  23
ENDBRANCH   4  17
ENDBRANCH  13   4
TORSDOF 6
ENDMDL
MODEL 2
REMARK VINA RESULT:      -3.0      1.555      3.933
REMARK  Name = 11883345
REMARK  7 active torsions:
REMARK  status: ('A' for Active; 'I' for Inactive)
REMARK    1  A    between atoms: S_1  and  N_8
REMARK    2  A    between atoms: S_1  and  C_16
REMARK    3  A    between atoms: O_4  and  C_13
REMARK    4  A    between atoms: O_4  and  C_17
REMARK    5  A    between atoms: N_8  and  C_12
REMARK    6  A    between atoms: N_9  and  C_23
REMARK    7  A    between atoms: C_22  and  C_24
REMARK                            x       y       z     vdW  Elec       q    Type
REMARK                         _______ _______ _______ _____ _____    ______ ____
ROOT
ATOM      2  O   UNL     1      -1.724   3.211  24.944  0.00  0.00    -0.369 OA
ATOM      3  O   UNL     1      -3.289   2.515  22.400  0.00  0.00    -0.368 OA
ATOM     10  C   UNL     1      -3.493   2.144  23.779  0.00  0.00    +0.171 C 
ATOM     11  C   UNL     1      -2.121   1.945  24.390  0.00  0.00    +0.191 C 
ATOM     12  C   UNL     1      -4.066   3.310  24.550  0.00  0.00    +0.133 C 
ATOM     13  C   UNL     1      -1.282   1.573  23.191  0.00  0.00    +0.235 C 
ATOM     14  C   UNL     1      -2.827   4.128  24.866  0.00  0.00    +0.183 C 
ATOM     15  C   UNL     1      -1.888   2.426  22.099  0.00  0.00    +0.207 C 
ENDROOT
BRANCH  12   8
ATOM      8  N   UNL     1      -4.726   2.868  25.755  0.00  0.00    -0.182 NA
ATOM     30  H   UNL     1      -4.244   3.046  26.645  0.00  0.00    +0.148 HD
BRANCH   8   1
ATOM      1  S   UNL     1      -5.867   1.612  25.682  0.00  0.00    +0.059 S 
ATOM      5  O   UNL     1      -6.750   1.827  24.552  0.00  0.00    -0.153 OA
ATOM      6  O   UNL     1      -6.416   1.401  27.008  0.00  0.00    -0.153 OA
BRANCH   1  16
ATOM     16  C   UNL     1      -4.847   0.215  25.318  0.00  0.00    +0.105 A 
ATOM     18  C   UNL     1      -4.977  -0.414  24.092  0.00  0.00    +0.029 A 
ATOM     19  C   UNL     1      -3.939  -0.225  26.265  0.00  0.00    +0.029 A 
ATOM     20  C   UNL     1      -4.173  -1.517  23.803  0.00  0.00    +0.005 A 
ATOM     21  C   UNL     1      -3.134  -1.327  25.977  0.00  0.00    +0.005 A 
ATOM     22  C   UNL     1      -3.251  -1.973  24.746  0.00  0.00    -0.050 A 
ATOM     24  C   UNL     1      -2.391  -3.152  24.437  0.00  0.00    +0.044 C 
ENDBRANCH   1  16
ENDBRANCH   8   1
ENDBRANCH  12   8
BRANCH  13   4
ATOM      4  O   UNL     1       0.093   1.830  23.364  0.00  0.00    -0.442 OA
BRANCH   4  17
ATOM      7  O   UNL     1       0.525  -0.415  23.350  0.00  0.00    -0.226 OA
ATOM      9  N   UNL     1       2.248   1.167  23.432  0.00  0.00    -0.251 N 
ATOM     17  C   UNL     1       0.936   0.738  23.379  0.00  0.00    +0.405 C 
ATOM     31  H   UNL     1       2.390   2.174  23.449  0.00  0.00    +0.158 HD
BRANCH   9  23
ATOM     23  C   UNL     1       3.420   0.379  23.464  0.00  0.00    +0.036 A 
ATOM     25  C   UNL     1       4.649   0.978  23.232  0.00  0.00    +0.023 A 
ATOM     26  C   UNL     1       3.320  -0.979  23.726  0.00  0.00    +0.023 A 
ATOM     27  C   UNL     1       5.806   0.201  23.263  0.00  0.00    +0.002 A 
ATOM     28  C   UNL     1       4.477  -1.757  23.757  0.00  0.00    +0.002 A 
ATOM     29  C   UNL     1       5.721  -1.167  23.525  0.00  0.00    +0.000 A 
ENDBRANCH   9  23
ENDBRANCH   4  17
ENDBRANCH  13   4
TORSDOF 6
ENDMDL
MODEL 3
REMARK VINA RESULT:      -2.4      2.150      7.347
REMARK  Name = 11883345
REMARK  7 active torsions:
REMARK  status: ('A' for Active; 'I' for Inactive)
REMARK    1  A    between atoms: S_1  and  N_8
REMARK    2  A    between atoms: S_1  and  C_16
REMARK    3  A    between atoms: O_4  and  C_13
REMARK    4  A    between atoms: O_4  and  C_17
REMARK    5  A    between atoms: N_8  and  C_12
REMARK    6  A    between atoms: N_9  and  C_23
REMARK    7  A    between atoms: C_22  and  C_24
REMARK                            x       y       z     vdW  Elec       q    Type
REMARK                         _______ _______ _______ _____ _____    ______ ____
ROOT
ATOM      2  O   UNL     1      -2.280   2.090  23.869  0.00  0.00    -0.369 OA
ATOM      3  O   UNL     1      -1.219   4.588  25.296  0.00  0.00    -0.368 OA
ATOM     10  C   UNL     1      -0.909   3.189  25.462  0.00  0.00    +0.171 C 
ATOM     11  C   UNL     1      -2.203   2.426  25.265  0.00  0.00    +0.191 C 
ATOM     12  C   UNL     1      -0.032   2.713  24.328  0.00  0.00    +0.133 C 
ATOM     13  C   UNL     1      -3.246   3.447  25.652  0.00  0.00    +0.235 C 
ATOM     14  C   UNL     1      -1.045   2.446  23.228  0.00  0.00    +0.183 C 
ATOM     15  C   UNL     1      -2.639   4.734  25.141  0.00  0.00    +0.207 C 
ENDROOT
BRANCH  12   8
ATOM      8  N   UNL     1       0.684   1.514  24.687  0.00  0.00    -0.182 NA
ATOM     30  H   UNL     1       1.399   1.597  25.420  0.00  0.00    +0.148 HD
BRANCH   8   1
ATOM      1  S   UNL     1       0.800   0.233  23.576  0.00  0.00    +0.059 S 
ATOM      5  O   UNL     1       0.293   0.665  22.288  0.00  0.00    -0.153 OA
ATOM      6  O   UNL     1       0.286  -0.972  24.197  0.00  0.00    -0.153 OA
BRANCH   1  16
ATOM     16  C   UNL     1       2.551   0.033  23.434  0.00  0.00    +0.105 A 
ATOM     18  C   UNL     1       3.312   1.083  22.949  0.00  0.00    +0.029 A 
ATOM     19  C   UNL     1       3.128  -1.167  23.809  0.00  0.00    +0.029 A 
ATOM     20  C   UNL     1       4.694   0.927  22.836  0.00  0.00    +0.005 A 
ATOM     21  C   UNL     1       4.509  -1.324  23.696  0.00  0.00    +0.005 A 
ATOM     22  C   UNL     1       5.292  -0.277  23.210  0.00  0.00    -0.050 A 
ATOM     24  C   UNL     1       6.769  -0.443  23.090  0.00  0.00    +0.044 C 
ENDBRANCH   1  16
ENDBRANCH   8   1
ENDBRANCH  12   8
BRANCH  13   4
ATOM      4  O   UNL     1      -4.515   3.199  25.088  0.00  0.00    -0.442 OA
BRANCH   4  17
ATOM      7  O   UNL     1      -6.111   1.562  25.109  0.00  0.00    -0.226 OA
ATOM      9  N   UNL     1      -3.833   1.056  24.922  0.00  0.00    -0.251 N 
ATOM     17  C   UNL     1      -4.932   1.884  25.044  0.00  0.00    +0.405 C 
ATOM     31  H   UNL     1      -2.926   1.515  24.883  0.00  0.00    +0.158 HD
BRANCH   9  23
ATOM     23  C   UNL     1      -3.813  -0.355  24.843  0.00  0.00    +0.036 A 
ATOM     25  C   UNL     1      -4.339  -0.981  23.723  0.00  0.00    +0.023 A 
ATOM     26  C   UNL     1      -3.267  -1.087  25.886  0.00  0.00    +0.023 A 
ATOM     27  C   UNL     1      -4.319  -2.373  23.644  0.00  0.00    +0.002 A 
ATOM     28  C   UNL     1      -3.248  -2.480  25.808  0.00  0.00    +0.002 A 
ATOM     29  C   UNL     1      -3.774  -3.123  24.687  0.00  0.00    +0.000 A 
ENDBRANCH   9  23
ENDBRANCH   4  17
ENDBRANCH  13   4
TORSDOF 6
ENDMDL
MODEL 4
REMARK VINA RESULT:      -2.0      1.862      6.659
REMARK  Name = 11883345
REMARK  7 active torsions:
REMARK  status: ('A' for Active; 'I' for Inactive)
REMARK    1  A    between atoms: S_1  and  N_8
REMARK    2  A    between atoms: S_1  and  C_16
REMARK    3  A    between atoms: O_4  and  C_13
REMARK    4  A    between atoms: O_4  and  C_17
REMARK    5  A    between atoms: N_8  and  C_12
REMARK    6  A    between atoms: N_9  and  C_23
REMARK    7  A    between atoms: C_22  and  C_24
REMARK                            x       y       z     vdW  Elec       q    Type
REMARK                         _______ _______ _______ _____ _____    ______ ____
ROOT
ATOM      2  O   UNL     1      -2.445  -0.378  25.936  0.00  0.00    -0.369 OA
ATOM      3  O   UNL     1      -2.833  -2.547  23.803  0.00  0.00    -0.368 OA
ATOM     10  C   UNL     1      -1.855  -1.493  23.928  0.00  0.00    +0.171 C 
ATOM     11  C   UNL     1      -2.575  -0.292  24.507  0.00  0.00    +0.191 C 
ATOM     12  C   UNL     1      -0.839  -1.851  24.987  0.00  0.00    +0.133 C 
ATOM     13  C   UNL     1      -4.000  -0.519  24.061  0.00  0.00    +0.235 C 
ATOM     14  C   UNL     1      -1.553  -1.454  26.267  0.00  0.00    +0.183 C 
ATOM     15  C   UNL     1      -4.125  -2.024  24.146  0.00  0.00    +0.207 C 
ENDROOT
BRANCH  12   8
ATOM      8  N   UNL     1       0.383  -1.104  24.814  0.00  0.00    -0.182 NA
ATOM     30  H   UNL     1       0.852  -0.770  25.665  0.00  0.00    +0.148 HD
BRANCH   8   1
ATOM      1  S   UNL     1       0.681  -0.297  23.348  0.00  0.00    +0.059 S 
ATOM      5  O   UNL     1       0.187   1.064  23.438  0.00  0.00    -0.153 OA
ATOM      6  O   UNL     1       0.271  -1.152  22.251  0.00  0.00    -0.153 OA
BRANCH   1  16
ATOM     16  C   UNL     1       2.448  -0.235  23.321  0.00  0.00    +0.105 A 
ATOM     18  C   UNL     1       3.168  -1.327  23.774  0.00  0.00    +0.029 A 
ATOM     19  C   UNL     1       3.077   0.902  22.847  0.00  0.00    +0.029 A 
ATOM     20  C   UNL     1       4.562  -1.279  23.752  0.00  0.00    +0.005 A 
ATOM     21  C   UNL     1       4.471   0.950  22.826  0.00  0.00    +0.005 A 
ATOM     22  C   UNL     1       5.214  -0.140  23.278  0.00  0.00    -0.050 A 
ATOM     24  C   UNL     1       6.704  -0.090  23.254  0.00  0.00    +0.044 C 
ENDBRANCH   1  16
ENDBRANCH   8   1
ENDBRANCH  12   8
BRANCH  13   4
ATOM      4  O   UNL     1      -4.953   0.139  24.864  0.00  0.00    -0.442 OA
BRANCH   4  17
ATOM      7  O   UNL     1      -5.521   2.172  25.744  0.00  0.00    -0.226 OA
ATOM      9  N   UNL     1      -3.443   1.808  24.729  0.00  0.00    -0.251 N 
ATOM     17  C   UNL     1      -4.706   1.462  25.170  0.00  0.00    +0.405 C 
ATOM     31  H   UNL     1      -2.911   1.074  24.270  0.00  0.00    +0.158 HD
BRANCH   9  23
ATOM     23  C   UNL     1      -2.797   3.061  24.840  0.00  0.00    +0.036 A 
ATOM     25  C   UNL     1      -1.478   3.110  25.262  0.00  0.00    +0.023 A 
ATOM     26  C   UNL     1      -3.496   4.216  24.524  0.00  0.00    +0.023 A 
ATOM     27  C   UNL     1      -0.840   4.345  25.370  0.00  0.00    +0.002 A 
ATOM     28  C   UNL     1      -2.858   5.452  24.633  0.00  0.00    +0.002 A 
ATOM     29  C   UNL     1      -1.530   5.517  25.056  0.00  0.00    +0.000 A 
ENDBRANCH   9  23
ENDBRANCH   4  17
ENDBRANCH  13   4
TORSDOF 6
ENDMDL
MODEL 5
REMARK VINA RESULT:      -0.8      1.532      2.180
REMARK  Name = 11883345
REMARK  7 active torsions:
REMARK  status: ('A' for Active; 'I' for Inactive)
REMARK    1  A    between atoms: S_1  and  N_8
REMARK    2  A    between atoms: S_1  and  C_16
REMARK    3  A    between atoms: O_4  and  C_13
REMARK    4  A    between atoms: O_4  and  C_17
REMARK    5  A    between atoms: N_8  and  C_12
REMARK    6  A    between atoms: N_9  and  C_23
REMARK    7  A    between atoms: C_22  and  C_24
REMARK                            x       y       z     vdW  Elec       q    Type
REMARK                         _______ _______ _______ _____ _____    ______ ____
ROOT
ATOM      2  O   UNL     1      -2.506  -0.521  24.404  0.00  0.00    -0.369 OA
ATOM      3  O   UNL     1      -4.868  -2.383  23.807  0.00  0.00    -0.368 OA
ATOM     10  C   UNL     1      -4.583  -1.533  24.937  0.00  0.00    +0.171 C 
ATOM     11  C   UNL     1      -3.087  -1.593  25.166  0.00  0.00    +0.191 C 
ATOM     12  C   UNL     1      -4.837  -0.088  24.577  0.00  0.00    +0.133 C 
ATOM     13  C   UNL     1      -2.723  -2.943  24.597  0.00  0.00    +0.235 C 
ATOM     14  C   UNL     1      -3.555   0.295  23.860  0.00  0.00    +0.183 C 
ATOM     15  C   UNL     1      -3.661  -3.056  23.417  0.00  0.00    +0.207 C 
ENDROOT
BRANCH  12   8
ATOM      8  N   UNL     1      -5.040   0.717  25.756  0.00  0.00    -0.182 NA
ATOM     30  H   UNL     1      -5.185   0.220  26.644  0.00  0.00    +0.148 HD
BRANCH   8   1
ATOM      1  S   UNL     1      -5.627   2.305  25.607  0.00  0.00    +0.059 S 
ATOM      5  O   UNL     1      -6.192   2.731  26.873  0.00  0.00    -0.153 OA
ATOM      6  O   UNL     1      -6.409   2.402  24.389  0.00  0.00    -0.153 OA
BRANCH   1  16
ATOM     16  C   UNL     1      -4.138   3.219  25.338  0.00  0.00    +0.105 A 
ATOM     18  C   UNL     1      -3.950   3.862  24.127  0.00  0.00    +0.029 A 
ATOM     19  C   UNL     1      -3.189   3.277  26.343  0.00  0.00    +0.029 A 
ATOM     20  C   UNL     1      -2.776   4.584  23.913  0.00  0.00    +0.005 A 
ATOM     21  C   UNL     1      -2.015   3.999  26.131  0.00  0.00    +0.005 A 
ATOM     22  C   UNL     1      -1.809   4.653  24.916  0.00  0.00    -0.050 A 
ATOM     24  C   UNL     1      -0.554   5.426  24.688  0.00  0.00    +0.044 C 
ENDBRANCH   1  16
ENDBRANCH   8   1
ENDBRANCH  12   8
BRANCH  13   4
ATOM      4  O   UNL     1      -1.371  -3.047  24.212  0.00  0.00    -0.442 OA
BRANCH   4  17
ATOM      7  O   UNL     1      -0.221  -1.804  25.748  0.00  0.00    -0.226 OA
ATOM      9  N   UNL     1      -0.146  -1.309  23.462  0.00  0.00    -0.251 N 
ATOM     17  C   UNL     1      -0.535  -2.014  24.584  0.00  0.00    +0.405 C 
ATOM     31  H   UNL     1      -0.514  -1.640  22.574  0.00  0.00    +0.158 HD
BRANCH   9  23
ATOM     23  C   UNL     1       0.703  -0.181  23.395  0.00  0.00    +0.036 A 
ATOM     25  C   UNL     1       1.956  -0.308  22.815  0.00  0.00    +0.023 A 
ATOM     26  C   UNL     1       0.268   1.030  23.910  0.00  0.00    +0.023 A 
ATOM     27  C   UNL     1       2.795   0.805  22.749  0.00  0.00    +0.002 A 
ATOM     28  C   UNL     1       1.106   2.143  23.845  0.00  0.00    +0.002 A 
ATOM     29  C   UNL     1       2.371   2.030  23.264  0.00  0.00    +0.000 A 
ENDBRANCH   9  23
ENDBRANCH   4  17
ENDBRANCH  13   4
TORSDOF 6
ENDMDL
