MODEL 1
REMARK VINA RESULT:       9.2      0.000      0.000
REMARK  Name = 11867067
REMARK  11 active torsions:
REMARK  status: ('A' for Active; 'I' for Inactive)
REMARK    1  A    between atoms: O_2  and  C_15
REMARK    2  A    between atoms: O_3  and  C_20
REMARK    3  A    between atoms: O_6  and  C_30
REMARK    4  A    between atoms: O_6  and  C_34
REMARK    5  A    between atoms: N_8  and  C_26
REMARK    6  A    between atoms: C_10  and  C_18
REMARK    7  A    between atoms: C_12  and  C_20
REMARK    8  A    between atoms: C_12  and  C_21
REMARK    9  A    between atoms: C_13  and  C_23
REMARK   10  A    between atoms: C_23  and  C_24
REMARK   11  A    between atoms: C_27  and  C_30
REMARK                            x       y       z     vdW  Elec       q    Type
REMARK                         _______ _______ _______ _____ _____    ______ ____
ROOT
ATOM      1  S   UNL     1      -0.793  -0.683  22.730  0.00  0.00    -0.057 S 
ATOM      5  O   UNL     1       3.247   1.517  23.496  0.00  0.00    -0.273 OA
ATOM      7  N   UNL     1       0.306   1.365  23.868  0.00  0.00    -0.229 NA
ATOM      9  N   UNL     1       1.769  -0.130  22.672  0.00  0.00    -0.263 N 
ATOM     10  C   UNL     1      -3.236   2.608  24.755  0.00  0.00    -0.019 C 
ATOM     11  C   UNL     1      -3.813   1.129  24.865  0.00  0.00    +0.011 C 
ATOM     12  C   UNL     1      -5.364   0.982  25.112  0.00  0.00    +0.021 C 
ATOM     13  C   UNL     1      -1.651   2.535  24.948  0.00  0.00    +0.054 C 
ATOM     14  C   UNL     1      -3.828   3.480  25.892  0.00  0.00    +0.010 C 
ATOM     15  C   UNL     1      -5.796   1.953  26.247  0.00  0.00    +0.123 C 
ATOM     16  C   UNL     1      -3.272   0.220  23.723  0.00  0.00    +0.049 C 
ATOM     17  C   UNL     1      -5.343   3.390  26.014  0.00  0.00    +0.032 C 
ATOM     18  C   UNL     1      -3.557   3.279  23.396  0.00  0.00    +0.012 C 
ATOM     19  C   UNL     1      -1.053   1.430  24.116  0.00  0.00    +0.058 A 
ATOM     21  C   UNL     1      -5.665  -0.463  25.602  0.00  0.00    +0.016 C 
ATOM     22  C   UNL     1      -1.796   0.392  23.592  0.00  0.00    +0.015 A 
ATOM     25  C   UNL     1       0.556   0.297  23.141  0.00  0.00    +0.165 A 
ATOM     27  C   UNL     1       3.018   0.487  22.870  0.00  0.00    +0.244 C 
ATOM     38  H   UNL     1       1.740  -0.987  22.126  0.00  0.00    +0.157 HD
ENDROOT
BRANCH  15   2
ATOM      2  O   UNL     1      -7.214   1.940  26.409  0.00  0.00    -0.391 OA
ATOM     35  H   UNL     1      -7.489   2.833  26.673  0.00  0.00    +0.210 HD
ENDBRANCH  15   2
BRANCH  12  20
ATOM     20  C   UNL     1      -6.235   1.185  23.853  0.00  0.00    +0.165 C 
BRANCH  20   3
ATOM      3  O   UNL     1      -7.514   1.601  24.276  0.00  0.00    -0.394 OA
ATOM     36  H   UNL     1      -8.033   0.800  24.462  0.00  0.00    +0.209 HD
ENDBRANCH  20   3
ENDBRANCH  12  20
BRANCH  13  23
ATOM     23  C   UNL     1      -0.919   3.865  24.725  0.00  0.00    +0.106 C 
BRANCH  23  24
ATOM      4  O   UNL     1       0.838   5.128  25.786  0.00  0.00    -0.275 OA
ATOM      8  N   UNL     1       0.185   3.053  26.673  0.00  0.00    -0.285 N 
ATOM     24  C   UNL     1       0.143   4.116  25.776  0.00  0.00    +0.218 C 
ATOM     37  H   UNL     1      -0.465   2.284  26.522  0.00  0.00    +0.155 HD
BRANCH   8  26
ATOM     26  C   UNL     1       1.035   2.902  27.794  0.00  0.00    +0.033 A 
ATOM     28  C   UNL     1       2.392   3.204  27.687  0.00  0.00    +0.023 A 
ATOM     29  C   UNL     1       0.515   2.451  29.008  0.00  0.00    +0.023 A 
ATOM     31  C   UNL     1       3.230   3.055  28.793  0.00  0.00    +0.002 A 
ATOM     32  C   UNL     1       1.352   2.303  30.113  0.00  0.00    +0.002 A 
ATOM     33  C   UNL     1       2.710   2.605  30.006  0.00  0.00    +0.000 A 
ENDBRANCH   8  26
ENDBRANCH  23  24
ENDBRANCH  13  23
BRANCH  27  30
ATOM     30  C   UNL     1       4.131  -0.290  22.192  0.00  0.00    +0.255 C 
BRANCH  30   6
ATOM      6  O   UNL     1       5.371  -0.045  22.821  0.00  0.00    -0.374 OA
ATOM     34  C   UNL     1       5.450  -0.668  24.100  0.00  0.00    +0.194 C 
ENDBRANCH  30   6
ENDBRANCH  27  30
TORSDOF 8
ENDMDL
MODEL 2
REMARK VINA RESULT:      11.8      1.569      1.891
REMARK  Name = 11867067
REMARK  11 active torsions:
REMARK  status: ('A' for Active; 'I' for Inactive)
REMARK    1  A    between atoms: O_2  and  C_15
REMARK    2  A    between atoms: O_3  and  C_20
REMARK    3  A    between atoms: O_6  and  C_30
REMARK    4  A    between atoms: O_6  and  C_34
REMARK    5  A    between atoms: N_8  and  C_26
REMARK    6  A    between atoms: C_10  and  C_18
REMARK    7  A    between atoms: C_12  and  C_20
REMARK    8  A    between atoms: C_12  and  C_21
REMARK    9  A    between atoms: C_13  and  C_23
REMARK   10  A    between atoms: C_23  and  C_24
REMARK   11  A    between atoms: C_27  and  C_30
REMARK                            x       y       z     vdW  Elec       q    Type
REMARK                         _______ _______ _______ _____ _____    ______ ____
ROOT
ATOM      1  S   UNL     1       1.131  -1.517  22.565  0.00  0.00    -0.057 S 
ATOM      5  O   UNL     1       4.420   1.647  23.524  0.00  0.00    -0.273 OA
ATOM      7  N   UNL     1       1.587   0.773  23.679  0.00  0.00    -0.229 NA
ATOM      9  N   UNL     1       3.472  -0.342  22.673  0.00  0.00    -0.263 N 
ATOM     10  C   UNL     1      -2.215   1.114  24.232  0.00  0.00    -0.019 C 
ATOM     11  C   UNL     1      -2.416  -0.459  24.371  0.00  0.00    +0.011 C 
ATOM     12  C   UNL     1      -3.897  -0.983  24.508  0.00  0.00    +0.021 C 
ATOM     13  C   UNL     1      -0.684   1.447  24.548  0.00  0.00    +0.054 C 
ATOM     14  C   UNL     1      -3.100   1.842  25.276  0.00  0.00    +0.010 C 
ATOM     15  C   UNL     1      -4.651  -0.118  25.556  0.00  0.00    +0.123 C 
ATOM     16  C   UNL     1      -1.570  -1.237  23.321  0.00  0.00    +0.049 C 
ATOM     17  C   UNL     1      -4.550   1.379  25.287  0.00  0.00    +0.032 C 
ATOM     18  C   UNL     1      -2.575   1.643  22.821  0.00  0.00    +0.012 C 
ATOM     19  C   UNL     1       0.238   0.502  23.820  0.00  0.00    +0.058 A 
ATOM     21  C   UNL     1      -3.872  -2.442  25.044  0.00  0.00    +0.016 C 
ATOM     22  C   UNL     1      -0.177  -0.704  23.293  0.00  0.00    +0.015 A 
ATOM     25  C   UNL     1       2.155  -0.219  23.028  0.00  0.00    +0.165 A 
ATOM     27  C   UNL     1       4.507   0.575  22.935  0.00  0.00    +0.244 C 
ATOM     38  H   UNL     1       3.703  -1.194  22.170  0.00  0.00    +0.157 HD
ENDROOT
BRANCH  15   2
ATOM      2  O   UNL     1      -6.031  -0.482  25.610  0.00  0.00    -0.391 OA
ATOM     35  H   UNL     1      -6.311  -0.711  24.709  0.00  0.00    +0.210 HD
ENDBRANCH  15   2
BRANCH  12  20
ATOM     20  C   UNL     1      -4.680  -1.042  23.177  0.00  0.00    +0.165 C 
BRANCH  20   3
ATOM      3  O   UNL     1      -4.801  -2.398  22.808  0.00  0.00    -0.394 OA
ATOM     36  H   UNL     1      -4.456  -2.484  21.903  0.00  0.00    +0.209 HD
ENDBRANCH  20   3
ENDBRANCH  12  20
BRANCH  13  23
ATOM     23  C   UNL     1      -0.288   2.911  24.315  0.00  0.00    +0.106 C 
BRANCH  23  24
ATOM      4  O   UNL     1       0.339   4.778  25.703  0.00  0.00    -0.275 OA
ATOM      8  N   UNL     1       0.636   2.584  26.486  0.00  0.00    -0.285 N 
ATOM     24  C   UNL     1       0.260   3.561  25.569  0.00  0.00    +0.218 C 
ATOM     37  H   UNL     1       0.503   1.611  26.218  0.00  0.00    +0.155 HD
BRANCH   8  26
ATOM     26  C   UNL     1       1.190   2.775  27.774  0.00  0.00    +0.033 A 
ATOM     28  C   UNL     1       2.512   3.200  27.909  0.00  0.00    +0.023 A 
ATOM     29  C   UNL     1       0.415   2.539  28.910  0.00  0.00    +0.023 A 
ATOM     31  C   UNL     1       3.058   3.389  29.179  0.00  0.00    +0.002 A 
ATOM     32  C   UNL     1       0.960   2.728  30.179  0.00  0.00    +0.002 A 
ATOM     33  C   UNL     1       2.282   3.153  30.314  0.00  0.00    +0.000 A 
ENDBRANCH   8  26
ENDBRANCH  23  24
ENDBRANCH  13  23
BRANCH  27  30
ATOM     30  C   UNL     1       5.831   0.082  22.383  0.00  0.00    +0.255 C 
BRANCH  30   6
ATOM      6  O   UNL     1       6.637  -0.456  23.410  0.00  0.00    -0.374 OA
ATOM     34  C   UNL     1       5.854  -1.013  24.462  0.00  0.00    +0.194 C 
ENDBRANCH  30   6
ENDBRANCH  27  30
TORSDOF 8
ENDMDL
MODEL 3
REMARK VINA RESULT:      12.2      2.840      4.398
REMARK  Name = 11867067
REMARK  11 active torsions:
REMARK  status: ('A' for Active; 'I' for Inactive)
REMARK    1  A    between atoms: O_2  and  C_15
REMARK    2  A    between atoms: O_3  and  C_20
REMARK    3  A    between atoms: O_6  and  C_30
REMARK    4  A    between atoms: O_6  and  C_34
REMARK    5  A    between atoms: N_8  and  C_26
REMARK    6  A    between atoms: C_10  and  C_18
REMARK    7  A    between atoms: C_12  and  C_20
REMARK    8  A    between atoms: C_12  and  C_21
REMARK    9  A    between atoms: C_13  and  C_23
REMARK   10  A    between atoms: C_23  and  C_24
REMARK   11  A    between atoms: C_27  and  C_30
REMARK                            x       y       z     vdW  Elec       q    Type
REMARK                         _______ _______ _______ _____ _____    ______ ____
ROOT
ATOM      1  S   UNL     1       0.672   2.224  25.435  0.00  0.00    -0.057 S 
ATOM      5  O   UNL     1       1.911   0.220  21.410  0.00  0.00    -0.273 OA
ATOM      7  N   UNL     1      -0.178   1.469  23.110  0.00  0.00    -0.229 NA
ATOM      9  N   UNL     1       2.149   1.073  23.599  0.00  0.00    -0.263 N 
ATOM     10  C   UNL     1      -3.739   2.417  24.248  0.00  0.00    -0.019 C 
ATOM     11  C   UNL     1      -3.210   3.579  25.201  0.00  0.00    +0.011 C 
ATOM     12  C   UNL     1      -4.280   4.316  26.094  0.00  0.00    +0.021 C 
ATOM     13  C   UNL     1      -2.613   2.127  23.152  0.00  0.00    +0.054 C 
ATOM     14  C   UNL     1      -5.022   2.891  23.519  0.00  0.00    +0.010 C 
ATOM     15  C   UNL     1      -5.514   4.678  25.220  0.00  0.00    +0.123 C 
ATOM     16  C   UNL     1      -1.937   3.140  25.982  0.00  0.00    +0.049 C 
ATOM     17  C   UNL     1      -6.072   3.490  24.445  0.00  0.00    +0.032 C 
ATOM     18  C   UNL     1      -4.057   1.110  25.016  0.00  0.00    +0.012 C 
ATOM     19  C   UNL     1      -1.251   2.018  23.788  0.00  0.00    +0.058 A 
ATOM     21  C   UNL     1      -3.675   5.650  26.615  0.00  0.00    +0.016 C 
ATOM     22  C   UNL     1      -0.965   2.495  25.051  0.00  0.00    +0.015 A 
ATOM     25  C   UNL     1       0.885   1.518  23.884  0.00  0.00    +0.165 A 
ATOM     27  C   UNL     1       2.582   0.464  22.407  0.00  0.00    +0.244 C 
ATOM     38  H   UNL     1       2.829   1.208  24.342  0.00  0.00    +0.157 HD
ENDROOT
BRANCH  15   2
ATOM      2  O   UNL     1      -6.556   5.230  26.025  0.00  0.00    -0.391 OA
ATOM     35  H   UNL     1      -6.184   5.415  26.903  0.00  0.00    +0.210 HD
ENDBRANCH  15   2
BRANCH  12  20
ATOM     20  C   UNL     1      -4.710   3.533  27.355  0.00  0.00    +0.165 C 
BRANCH  20   3
ATOM      3  O   UNL     1      -5.860   2.786  27.028  0.00  0.00    -0.394 OA
ATOM     36  H   UNL     1      -5.749   2.469  26.116  0.00  0.00    +0.209 HD
ENDBRANCH  20   3
ENDBRANCH  12  20
BRANCH  13  23
ATOM     23  C   UNL     1      -2.905   0.929  22.239  0.00  0.00    +0.106 C 
BRANCH  23  24
ATOM      4  O   UNL     1      -3.864  -1.134  23.034  0.00  0.00    -0.275 OA
ATOM      8  N   UNL     1      -1.658  -0.569  23.609  0.00  0.00    -0.285 N 
ATOM     24  C   UNL     1      -2.894  -0.383  22.998  0.00  0.00    +0.218 C 
ATOM     37  H   UNL     1      -0.955   0.156  23.479  0.00  0.00    +0.155 HD
BRANCH   8  26
ATOM     26  C   UNL     1      -1.245  -1.662  24.407  0.00  0.00    +0.033 A 
ATOM     28  C   UNL     1       0.079  -1.752  24.837  0.00  0.00    +0.023 A 
ATOM     29  C   UNL     1      -2.162  -2.652  24.763  0.00  0.00    +0.023 A 
ATOM     31  C   UNL     1       0.485  -2.830  25.623  0.00  0.00    +0.002 A 
ATOM     32  C   UNL     1      -1.755  -3.729  25.549  0.00  0.00    +0.002 A 
ATOM     33  C   UNL     1      -0.432  -3.819  25.980  0.00  0.00    +0.000 A 
ENDBRANCH   8  26
ENDBRANCH  23  24
ENDBRANCH  13  23
BRANCH  27  30
ATOM     30  C   UNL     1       4.056   0.111  22.473  0.00  0.00    +0.255 C 
BRANCH  30   6
ATOM      6  O   UNL     1       4.678   0.745  23.571  0.00  0.00    -0.374 OA
ATOM     34  C   UNL     1       5.477  -0.162  24.325  0.00  0.00    +0.194 C 
ENDBRANCH  30   6
ENDBRANCH  27  30
TORSDOF 8
ENDMDL
MODEL 4
REMARK VINA RESULT:      12.6      2.626      5.470
REMARK  Name = 11867067
REMARK  11 active torsions:
REMARK  status: ('A' for Active; 'I' for Inactive)
REMARK    1  A    between atoms: O_2  and  C_15
REMARK    2  A    between atoms: O_3  and  C_20
REMARK    3  A    between atoms: O_6  and  C_30
REMARK    4  A    between atoms: O_6  and  C_34
REMARK    5  A    between atoms: N_8  and  C_26
REMARK    6  A    between atoms: C_10  and  C_18
REMARK    7  A    between atoms: C_12  and  C_20
REMARK    8  A    between atoms: C_12  and  C_21
REMARK    9  A    between atoms: C_13  and  C_23
REMARK   10  A    between atoms: C_23  and  C_24
REMARK   11  A    between atoms: C_27  and  C_30
REMARK                            x       y       z     vdW  Elec       q    Type
REMARK                         _______ _______ _______ _____ _____    ______ ____
ROOT
ATOM      1  S   UNL     1       1.514   3.397  23.153  0.00  0.00    -0.057 S 
ATOM      5  O   UNL     1       3.250  -0.927  23.365  0.00  0.00    -0.273 OA
ATOM      7  N   UNL     1       1.043   0.976  23.935  0.00  0.00    -0.229 NA
ATOM      9  N   UNL     1       3.165   1.380  22.867  0.00  0.00    -0.263 N 
ATOM     10  C   UNL     1      -2.199   2.274  25.572  0.00  0.00    -0.019 C 
ATOM     11  C   UNL     1      -2.384   3.419  24.482  0.00  0.00    +0.011 C 
ATOM     12  C   UNL     1      -3.572   4.433  24.704  0.00  0.00    +0.021 C 
ATOM     13  C   UNL     1      -1.264   1.140  24.944  0.00  0.00    +0.054 C 
ATOM     14  C   UNL     1      -3.578   1.645  25.900  0.00  0.00    +0.010 C 
ATOM     15  C   UNL     1      -4.860   3.642  25.066  0.00  0.00    +0.123 C 
ATOM     16  C   UNL     1      -1.029   4.105  24.141  0.00  0.00    +0.049 C 
ATOM     17  C   UNL     1      -4.661   2.665  26.220  0.00  0.00    +0.032 C 
ATOM     18  C   UNL     1      -1.565   2.792  26.887  0.00  0.00    +0.012 C 
ATOM     19  C   UNL     1      -0.057   1.744  24.273  0.00  0.00    +0.058 A 
ATOM     21  C   UNL     1      -3.851   5.186  23.372  0.00  0.00    +0.016 C 
ATOM     22  C   UNL     1       0.020   3.072  23.905  0.00  0.00    +0.015 A 
ATOM     25  C   UNL     1       1.935   1.743  23.348  0.00  0.00    +0.165 A 
ATOM     27  C   UNL     1       3.741   0.097  22.901  0.00  0.00    +0.244 C 
ATOM     38  H   UNL     1       3.701   2.135  22.446  0.00  0.00    +0.157 HD
ENDROOT
BRANCH  15   2
ATOM      2  O   UNL     1      -5.922   4.535  25.400  0.00  0.00    -0.391 OA
ATOM     35  H   UNL     1      -5.523   5.368  25.703  0.00  0.00    +0.210 HD
ENDBRANCH  15   2
BRANCH  12  20
ATOM     20  C   UNL     1      -3.288   5.533  25.751  0.00  0.00    +0.165 C 
BRANCH  20   3
ATOM      3  O   UNL     1      -2.045   6.119  25.436  0.00  0.00    -0.394 OA
ATOM     36  H   UNL     1      -2.093   6.420  24.512  0.00  0.00    +0.209 HD
ENDBRANCH  20   3
ENDBRANCH  12  20
BRANCH  13  23
ATOM     23  C   UNL     1      -0.866   0.026  25.921  0.00  0.00    +0.106 C 
BRANCH  23  24
ATOM      4  O   UNL     1      -0.773  -2.375  25.742  0.00  0.00    -0.275 OA
ATOM      8  N   UNL     1      -2.538  -1.191  24.741  0.00  0.00    -0.285 N 
ATOM     24  C   UNL     1      -1.363  -1.333  25.472  0.00  0.00    +0.218 C 
ATOM     37  H   UNL     1      -2.898  -0.248  24.607  0.00  0.00    +0.155 HD
BRANCH   8  26
ATOM     26  C   UNL     1      -3.315  -2.215  24.148  0.00  0.00    +0.033 A 
ATOM     28  C   UNL     1      -2.750  -3.466  23.901  0.00  0.00    +0.023 A 
ATOM     29  C   UNL     1      -4.647  -1.973  23.810  0.00  0.00    +0.023 A 
ATOM     31  C   UNL     1      -3.516  -4.474  23.316  0.00  0.00    +0.002 A 
ATOM     32  C   UNL     1      -5.412  -2.981  23.226  0.00  0.00    +0.002 A 
ATOM     33  C   UNL     1      -4.848  -4.232  22.979  0.00  0.00    +0.000 A 
ENDBRANCH   8  26
ENDBRANCH  23  24
ENDBRANCH  13  23
BRANCH  27  30
ATOM     30  C   UNL     1       5.120   0.095  22.268  0.00  0.00    +0.255 C 
BRANCH  30   6
ATOM      6  O   UNL     1       6.110  -0.241  23.217  0.00  0.00    -0.374 OA
ATOM     34  C   UNL     1       5.737   0.153  24.535  0.00  0.00    +0.194 C 
ENDBRANCH  30   6
ENDBRANCH  27  30
TORSDOF 8
ENDMDL
