MODEL 1
REMARK VINA RESULT:       4.3      0.000      0.000
REMARK  Name = 45783300
REMARK  5 active torsions:
REMARK  status: ('A' for Active; 'I' for Inactive)
REMARK    1  A    between atoms: N_6  and  C_15
REMARK    2  A    between atoms: C_11  and  C_16
REMARK    3  A    between atoms: C_15  and  C_17
REMARK    4  A    between atoms: C_18  and  C_23
REMARK    5  A    between atoms: C_30  and  C_33
REMARK                            x       y       z     vdW  Elec       q    Type
REMARK                         _______ _______ _______ _____ _____    ______ ____
ROOT
ATOM      4  O   UNL     1      -1.294   2.414  25.793  0.00  0.00    -0.336 OA
ATOM      7  N   UNL     1      -1.314   2.346  23.554  0.00  0.00    -0.190 NA
ATOM      9  N   UNL     1      -0.246   1.563  25.420  0.00  0.00    -0.056 NA
ATOM     16  C   UNL     1      -1.871   2.831  24.636  0.00  0.00    +0.245 A 
ATOM     18  C   UNL     1      -0.323   1.575  24.086  0.00  0.00    +0.202 A 
ENDROOT
BRANCH  18  23
ATOM      5  O   UNL     1       6.791  -0.595  23.752  0.00  0.00    -0.377 OA
ATOM      8  N   UNL     1       4.090  -0.128  23.128  0.00  0.00    -0.311 N 
ATOM     10  N   UNL     1       2.323  -0.642  21.640  0.00  0.00    -0.240 NA
ATOM     21  C   UNL     1       5.086  -0.274  22.057  0.00  0.00    +0.134 C 
ATOM     22  C   UNL     1       4.460  -0.735  24.412  0.00  0.00    +0.134 C 
ATOM     23  C   UNL     1       0.575   0.824  23.256  0.00  0.00    +0.027 A 
ATOM     24  C   UNL     1       2.743  -0.026  22.768  0.00  0.00    +0.122 A 
ATOM     27  C   UNL     1       6.460   0.138  22.572  0.00  0.00    +0.178 C 
ATOM     28  C   UNL     1       5.868  -0.300  24.801  0.00  0.00    +0.178 C 
ATOM     29  C   UNL     1       1.917   0.712  23.602  0.00  0.00    +0.055 A 
ATOM     31  C   UNL     1       0.106   0.204  22.103  0.00  0.00    +0.031 A 
ATOM     32  C   UNL     1       1.013  -0.511  21.336  0.00  0.00    +0.113 A 
ENDBRANCH  18  23
BRANCH  16  11
ATOM      6  N   UNL     1      -4.115   3.237  25.633  0.00  0.00    -0.287 NA
ATOM     11  C   UNL     1      -3.046   3.776  24.769  0.00  0.00    +0.146 C 
ATOM     12  C   UNL     1      -2.658   5.118  25.418  0.00  0.00    +0.030 C 
ATOM     13  C   UNL     1      -3.602   5.275  26.602  0.00  0.00    +0.017 C 
ATOM     14  C   UNL     1      -4.779   4.391  26.239  0.00  0.00    +0.085 C 
BRANCH   6  15
ATOM     15  C   UNL     1      -5.052   2.378  24.920  0.00  0.00    +0.120 C 
BRANCH  15  17
ATOM     17  C   UNL     1      -4.544   0.965  24.809  0.00  0.00    -0.033 A 
ATOM     19  C   UNL     1      -4.297   0.409  23.553  0.00  0.00    +0.005 A 
ATOM     20  C   UNL     1      -4.319   0.212  25.961  0.00  0.00    +0.005 A 
ATOM     25  C   UNL     1      -3.827  -0.900  23.450  0.00  0.00    +0.012 A 
ATOM     26  C   UNL     1      -3.847  -1.097  25.857  0.00  0.00    +0.012 A 
ATOM     30  C   UNL     1      -3.601  -1.652  24.602  0.00  0.00    +0.055 A 
BRANCH  30  33
ATOM      1  F   UNL     1      -3.771  -3.809  23.579  0.00  0.00    -0.166 F 
ATOM      2  F   UNL     1      -3.177  -3.735  25.669  0.00  0.00    -0.166 F 
ATOM      3  F   UNL     1      -1.782  -3.128  24.115  0.00  0.00    -0.166 F 
ATOM     33  C   UNL     1      -3.094  -3.050  24.491  0.00  0.00    +0.417 C 
ENDBRANCH  30  33
ENDBRANCH  15  17
ENDBRANCH   6  15
ENDBRANCH  16  11
TORSDOF 5
ENDMDL
MODEL 2
REMARK VINA RESULT:       5.5      3.219      7.872
REMARK  Name = 45783300
REMARK  5 active torsions:
REMARK  status: ('A' for Active; 'I' for Inactive)
REMARK    1  A    between atoms: N_6  and  C_15
REMARK    2  A    between atoms: C_11  and  C_16
REMARK    3  A    between atoms: C_15  and  C_17
REMARK    4  A    between atoms: C_18  and  C_23
REMARK    5  A    between atoms: C_30  and  C_33
REMARK                            x       y       z     vdW  Elec       q    Type
REMARK                         _______ _______ _______ _____ _____    ______ ____
ROOT
ATOM      4  O   UNL     1       1.189  -1.568  24.300  0.00  0.00    -0.336 OA
ATOM      7  N   UNL     1      -0.256  -0.212  23.256  0.00  0.00    -0.190 NA
ATOM      9  N   UNL     1      -0.082  -1.919  24.769  0.00  0.00    -0.056 NA
ATOM     16  C   UNL     1       0.997  -0.556  23.415  0.00  0.00    +0.245 A 
ATOM     18  C   UNL     1      -0.881  -1.076  24.108  0.00  0.00    +0.202 A 
ENDROOT
BRANCH  18  23
ATOM      5  O   UNL     1      -6.501   3.568  25.610  0.00  0.00    -0.377 OA
ATOM      8  N   UNL     1      -4.989   1.256  25.095  0.00  0.00    -0.311 N 
ATOM     10  N   UNL     1      -5.082  -1.057  24.600  0.00  0.00    -0.240 NA
ATOM     21  C   UNL     1      -6.223   1.175  25.888  0.00  0.00    +0.134 C 
ATOM     22  C   UNL     1      -4.894   2.417  24.203  0.00  0.00    +0.134 C 
ATOM     23  C   UNL     1      -2.305  -1.070  24.276  0.00  0.00    +0.027 A 
ATOM     24  C   UNL     1      -4.341   0.062  24.759  0.00  0.00    +0.122 A 
ATOM     27  C   UNL     1      -6.486   2.512  26.571  0.00  0.00    +0.178 C 
ATOM     28  C   UNL     1      -5.228   3.688  24.975  0.00  0.00    +0.178 C 
ATOM     29  C   UNL     1      -2.964   0.109  24.609  0.00  0.00    +0.055 A 
ATOM     31  C   UNL     1      -3.034  -2.242  24.105  0.00  0.00    +0.031 A 
ATOM     32  C   UNL     1      -4.408  -2.182  24.277  0.00  0.00    +0.113 A 
ENDBRANCH  18  23
BRANCH  16  11
ATOM      6  N   UNL     1       2.780   1.180  23.473  0.00  0.00    -0.287 NA
ATOM     11  C   UNL     1       2.238   0.009  22.755  0.00  0.00    +0.146 C 
ATOM     12  C   UNL     1       3.401  -0.999  22.716  0.00  0.00    +0.030 C 
ATOM     13  C   UNL     1       4.569  -0.285  23.380  0.00  0.00    +0.017 C 
ATOM     14  C   UNL     1       4.222   1.183  23.228  0.00  0.00    +0.085 C 
BRANCH   6  15
ATOM     15  C   UNL     1       2.155   2.436  23.079  0.00  0.00    +0.120 C 
BRANCH  15  17
ATOM     17  C   UNL     1       0.998   2.791  23.974  0.00  0.00    -0.033 A 
ATOM     19  C   UNL     1       0.788   2.081  25.157  0.00  0.00    +0.005 A 
ATOM     20  C   UNL     1       0.137   3.831  23.623  0.00  0.00    +0.005 A 
ATOM     25  C   UNL     1      -0.285   2.410  25.987  0.00  0.00    +0.012 A 
ATOM     26  C   UNL     1      -0.934   4.160  24.454  0.00  0.00    +0.012 A 
ATOM     30  C   UNL     1      -1.144   3.450  25.636  0.00  0.00    +0.055 A 
BRANCH  30  33
ATOM      1  F   UNL     1      -3.350   2.952  26.419  0.00  0.00    -0.166 F 
ATOM      2  F   UNL     1      -2.789   5.047  26.268  0.00  0.00    -0.166 F 
ATOM      3  F   UNL     1      -1.966   3.807  27.854  0.00  0.00    -0.166 F 
ATOM     33  C   UNL     1      -2.288   3.804  26.526  0.00  0.00    +0.417 C 
ENDBRANCH  30  33
ENDBRANCH  15  17
ENDBRANCH   6  15
ENDBRANCH  16  11
TORSDOF 5
ENDMDL
MODEL 3
REMARK VINA RESULT:       7.1      2.981      4.536
REMARK  Name = 45783300
REMARK  5 active torsions:
REMARK  status: ('A' for Active; 'I' for Inactive)
REMARK    1  A    between atoms: N_6  and  C_15
REMARK    2  A    between atoms: C_11  and  C_16
REMARK    3  A    between atoms: C_15  and  C_17
REMARK    4  A    between atoms: C_18  and  C_23
REMARK    5  A    between atoms: C_30  and  C_33
REMARK                            x       y       z     vdW  Elec       q    Type
REMARK                         _______ _______ _______ _____ _____    ______ ____
ROOT
ATOM      4  O   UNL     1      -1.595  -0.159  25.764  0.00  0.00    -0.336 OA
ATOM      7  N   UNL     1      -1.467  -0.991  23.689  0.00  0.00    -0.190 NA
ATOM      9  N   UNL     1      -0.320   0.173  25.289  0.00  0.00    -0.056 NA
ATOM     16  C   UNL     1      -2.204  -0.843  24.761  0.00  0.00    +0.245 A 
ATOM     18  C   UNL     1      -0.321  -0.351  24.060  0.00  0.00    +0.202 A 
ENDROOT
BRANCH  18  23
ATOM      5  O   UNL     1       7.121  -0.504  24.168  0.00  0.00    -0.377 OA
ATOM      8  N   UNL     1       4.449  -0.263  23.331  0.00  0.00    -0.311 N 
ATOM     10  N   UNL     1       3.007  -0.075  21.464  0.00  0.00    -0.240 NA
ATOM     21  C   UNL     1       5.516   0.463  22.629  0.00  0.00    +0.134 C 
ATOM     22  C   UNL     1       4.887  -1.446  24.081  0.00  0.00    +0.134 C 
ATOM     23  C   UNL     1       0.808  -0.256  23.180  0.00  0.00    +0.027 A 
ATOM     24  C   UNL     1       3.156  -0.212  22.800  0.00  0.00    +0.122 A 
ATOM     27  C   UNL     1       6.678   0.720  23.581  0.00  0.00    +0.178 C 
ATOM     28  C   UNL     1       6.083  -1.089  24.955  0.00  0.00    +0.178 C 
ATOM     29  C   UNL     1       2.100  -0.307  23.693  0.00  0.00    +0.055 A 
ATOM     31  C   UNL     1       0.614  -0.115  21.810  0.00  0.00    +0.031 A 
ATOM     32  C   UNL     1       1.738  -0.030  21.002  0.00  0.00    +0.113 A 
ENDBRANCH  18  23
BRANCH  16  11
ATOM      6  N   UNL     1      -4.606  -0.700  24.124  0.00  0.00    -0.287 NA
ATOM     11  C   UNL     1      -3.616  -1.319  25.028  0.00  0.00    +0.146 C 
ATOM     12  C   UNL     1      -3.783  -2.835  24.813  0.00  0.00    +0.030 C 
ATOM     13  C   UNL     1      -4.927  -2.972  23.818  0.00  0.00    +0.017 C 
ATOM     14  C   UNL     1      -5.690  -1.671  23.971  0.00  0.00    +0.085 C 
BRANCH   6  15
ATOM     15  C   UNL     1      -5.088   0.591  24.597  0.00  0.00    +0.120 C 
BRANCH  15  17
ATOM     17  C   UNL     1      -3.990   1.620  24.635  0.00  0.00    -0.033 A 
ATOM     19  C   UNL     1      -3.757   2.348  25.803  0.00  0.00    +0.005 A 
ATOM     20  C   UNL     1      -3.204   1.845  23.505  0.00  0.00    +0.005 A 
ATOM     25  C   UNL     1      -2.739   3.301  25.839  0.00  0.00    +0.012 A 
ATOM     26  C   UNL     1      -2.186   2.797  23.542  0.00  0.00    +0.012 A 
ATOM     30  C   UNL     1      -1.954   3.525  24.708  0.00  0.00    +0.055 A 
BRANCH  30  33
ATOM      1  F   UNL     1      -0.202   4.685  23.562  0.00  0.00    -0.166 F 
ATOM      2  F   UNL     1       0.099   4.244  25.670  0.00  0.00    -0.166 F 
ATOM      3  F   UNL     1      -1.298   5.798  25.067  0.00  0.00    -0.166 F 
ATOM     33  C   UNL     1      -0.863   4.542  24.749  0.00  0.00    +0.417 C 
ENDBRANCH  30  33
ENDBRANCH  15  17
ENDBRANCH   6  15
ENDBRANCH  16  11
TORSDOF 5
ENDMDL
