MODEL 1
REMARK VINA RESULT:      -1.4      0.000      0.000
REMARK  Name = 11883362
REMARK  6 active torsions:
REMARK  status: ('A' for Active; 'I' for Inactive)
REMARK    1  A    between atoms: S_1  and  N_8
REMARK    2  A    between atoms: S_1  and  C_24
REMARK    3  A    between atoms: O_4  and  C_14
REMARK    4  A    between atoms: O_4  and  C_23
REMARK    5  A    between atoms: N_8  and  C_13
REMARK    6  A    between atoms: N_9  and  C_17
REMARK                            x       y       z     vdW  Elec       q    Type
REMARK                         _______ _______ _______ _____ _____    ______ ____
ROOT
ATOM      2  O   UNL     1      -1.084   2.491  26.585  0.00  0.00    -0.369 OA
ATOM      3  O   UNL     1      -1.446   4.985  24.822  0.00  0.00    -0.368 OA
ATOM     11  C   UNL     1      -2.335   3.893  25.135  0.00  0.00    +0.171 C 
ATOM     12  C   UNL     1      -1.483   2.641  25.213  0.00  0.00    +0.191 C 
ATOM     13  C   UNL     1      -2.874   4.053  26.535  0.00  0.00    +0.133 C 
ATOM     14  C   UNL     1      -0.311   2.986  24.323  0.00  0.00    +0.235 C 
ATOM     15  C   UNL     1      -1.771   3.460  27.390  0.00  0.00    +0.183 C 
ATOM     16  C   UNL     1      -0.130   4.462  24.596  0.00  0.00    +0.207 C 
ENDROOT
BRANCH  13   8
ATOM      8  N   UNL     1      -4.114   3.258  26.694  0.00  0.00    -0.182 NA
ATOM     33  H   UNL     1      -4.162   2.602  27.483  0.00  0.00    +0.148 HD
BRANCH   8   1
ATOM      1  S   UNL     1      -5.214   3.142  25.406  0.00  0.00    +0.061 S 
ATOM      5  O   UNL     1      -5.449   4.461  24.851  0.00  0.00    -0.153 OA
ATOM      6  O   UNL     1      -6.332   2.315  25.821  0.00  0.00    -0.153 OA
BRANCH   1  24
ATOM     10  N   UNL     1      -4.329   0.305  25.640  0.00  0.00    -0.253 NA
ATOM     24  C   UNL     1      -4.293   2.207  24.223  0.00  0.00    +0.131 A 
ATOM     25  C   UNL     1      -3.958   0.888  24.484  0.00  0.00    +0.097 A 
ATOM     26  C   UNL     1      -3.931   2.850  23.043  0.00  0.00    +0.031 A 
ATOM     27  C   UNL     1      -3.222   0.193  23.502  0.00  0.00    +0.002 A 
ATOM     28  C   UNL     1      -3.206   2.159  22.080  0.00  0.00    +0.003 A 
ATOM     29  C   UNL     1      -2.851   0.832  22.308  0.00  0.00    +0.010 A 
ATOM     30  C   UNL     1      -2.877  -1.142  23.758  0.00  0.00    +0.011 A 
ATOM     31  C   UNL     1      -3.977  -0.985  25.848  0.00  0.00    +0.111 A 
ATOM     32  C   UNL     1      -3.258  -1.746  24.948  0.00  0.00    +0.020 A 
ENDBRANCH   1  24
ENDBRANCH   8   1
ENDBRANCH  13   8
BRANCH  14   4
ATOM      4  O   UNL     1       0.852   2.245  24.614  0.00  0.00    -0.442 OA
BRANCH   4  23
ATOM      7  O   UNL     1       0.450   0.449  23.241  0.00  0.00    -0.226 OA
ATOM      9  N   UNL     1       2.557   1.411  23.379  0.00  0.00    -0.278 N 
ATOM     23  C   UNL     1       1.220   1.287  23.697  0.00  0.00    +0.401 C 
ATOM     34  H   UNL     1       3.089   2.122  23.868  0.00  0.00    +0.152 HD
BRANCH   9  17
ATOM     17  C   UNL     1       3.242   0.548  22.442  0.00  0.00    +0.076 C 
ATOM     18  C   UNL     1       4.739   0.870  22.390  0.00  0.00    +0.022 C 
ATOM     19  C   UNL     1       3.002  -0.929  22.776  0.00  0.00    +0.022 C 
ATOM     20  C   UNL     1       5.477   0.425  23.653  0.00  0.00    +0.002 C 
ATOM     21  C   UNL     1       3.744  -1.370  24.038  0.00  0.00    +0.002 C 
ATOM     22  C   UNL     1       5.233  -1.049  23.958  0.00  0.00    +0.000 C 
ENDBRANCH   9  17
ENDBRANCH   4  23
ENDBRANCH  14   4
TORSDOF 6
ENDMDL
MODEL 2
REMARK VINA RESULT:       0.1      2.467      4.752
REMARK  Name = 11883362
REMARK  6 active torsions:
REMARK  status: ('A' for Active; 'I' for Inactive)
REMARK    1  A    between atoms: S_1  and  N_8
REMARK    2  A    between atoms: S_1  and  C_24
REMARK    3  A    between atoms: O_4  and  C_14
REMARK    4  A    between atoms: O_4  and  C_23
REMARK    5  A    between atoms: N_8  and  C_13
REMARK    6  A    between atoms: N_9  and  C_17
REMARK                            x       y       z     vdW  Elec       q    Type
REMARK                         _______ _______ _______ _____ _____    ______ ____
ROOT
ATOM      2  O   UNL     1       0.002   0.925  26.224  0.00  0.00    -0.369 OA
ATOM      3  O   UNL     1       0.963   2.730  23.926  0.00  0.00    -0.368 OA
ATOM     11  C   UNL     1      -0.285   2.676  24.649  0.00  0.00    +0.171 C 
ATOM     12  C   UNL     1      -0.564   1.214  24.935  0.00  0.00    +0.191 C 
ATOM     13  C   UNL     1      -0.114   3.290  26.016  0.00  0.00    +0.133 C 
ATOM     14  C   UNL     1       0.182   0.513  23.825  0.00  0.00    +0.235 C 
ATOM     15  C   UNL     1       0.458   2.144  26.829  0.00  0.00    +0.183 C 
ATOM     16  C   UNL     1       1.402   1.390  23.659  0.00  0.00    +0.207 C 
ENDROOT
BRANCH  13   8
ATOM      8  N   UNL     1      -1.434   3.683  26.564  0.00  0.00    -0.182 NA
ATOM     33  H   UNL     1      -1.854   3.076  27.278  0.00  0.00    +0.148 HD
BRANCH   8   1
ATOM      1  S   UNL     1      -2.374   4.840  25.752  0.00  0.00    +0.061 S 
ATOM      5  O   UNL     1      -1.512   5.684  24.947  0.00  0.00    -0.153 OA
ATOM      6  O   UNL     1      -3.302   5.433  26.696  0.00  0.00    -0.153 OA
BRANCH   1  24
ATOM     10  N   UNL     1      -4.808   3.253  26.416  0.00  0.00    -0.253 NA
ATOM     24  C   UNL     1      -3.327   3.832  24.656  0.00  0.00    +0.131 A 
ATOM     25  C   UNL     1      -4.441   3.153  25.125  0.00  0.00    +0.097 A 
ATOM     26  C   UNL     1      -2.910   3.758  23.331  0.00  0.00    +0.031 A 
ATOM     27  C   UNL     1      -5.162   2.365  24.204  0.00  0.00    +0.002 A 
ATOM     28  C   UNL     1      -3.625   2.980  22.429  0.00  0.00    +0.003 A 
ATOM     29  C   UNL     1      -4.750   2.283  22.864  0.00  0.00    +0.010 A 
ATOM     30  C   UNL     1      -6.289   1.673  24.669  0.00  0.00    +0.011 A 
ATOM     31  C   UNL     1      -5.903   2.570  26.825  0.00  0.00    +0.111 A 
ATOM     32  C   UNL     1      -6.671   1.774  25.999  0.00  0.00    +0.020 A 
ENDBRANCH   1  24
ENDBRANCH   8   1
ENDBRANCH  13   8
BRANCH  14   4
ATOM      4  O   UNL     1       0.523  -0.820  24.131  0.00  0.00    -0.442 OA
BRANCH   4  23
ATOM      7  O   UNL     1       0.056  -2.364  25.764  0.00  0.00    -0.226 OA
ATOM      9  N   UNL     1      -1.616  -1.048  24.838  0.00  0.00    -0.278 N 
ATOM     23  C   UNL     1      -0.318  -1.493  24.987  0.00  0.00    +0.401 C 
ATOM     34  H   UNL     1      -1.791  -0.352  24.122  0.00  0.00    +0.152 HD
BRANCH   9  17
ATOM     17  C   UNL     1      -2.733  -1.563  25.599  0.00  0.00    +0.076 C 
ATOM     18  C   UNL     1      -4.001  -0.745  25.337  0.00  0.00    +0.022 C 
ATOM     19  C   UNL     1      -2.959  -3.051  25.307  0.00  0.00    +0.022 C 
ATOM     20  C   UNL     1      -4.577  -0.990  23.941  0.00  0.00    +0.002 C 
ATOM     21  C   UNL     1      -3.536  -3.290  23.912  0.00  0.00    +0.002 C 
ATOM     22  C   UNL     1      -4.804  -2.474  23.678  0.00  0.00    +0.000 C 
ENDBRANCH   9  17
ENDBRANCH   4  23
ENDBRANCH  14   4
TORSDOF 6
ENDMDL
MODEL 3
REMARK VINA RESULT:       0.9      1.041      2.038
REMARK  Name = 11883362
REMARK  6 active torsions:
REMARK  status: ('A' for Active; 'I' for Inactive)
REMARK    1  A    between atoms: S_1  and  N_8
REMARK    2  A    between atoms: S_1  and  C_24
REMARK    3  A    between atoms: O_4  and  C_14
REMARK    4  A    between atoms: O_4  and  C_23
REMARK    5  A    between atoms: N_8  and  C_13
REMARK    6  A    between atoms: N_9  and  C_17
REMARK                            x       y       z     vdW  Elec       q    Type
REMARK                         _______ _______ _______ _____ _____    ______ ____
ROOT
ATOM      2  O   UNL     1      -1.944   2.435  25.824  0.00  0.00    -0.369 OA
ATOM      3  O   UNL     1      -1.022   5.313  25.249  0.00  0.00    -0.368 OA
ATOM     11  C   UNL     1      -2.100   4.522  24.705  0.00  0.00    +0.171 C 
ATOM     12  C   UNL     1      -1.590   3.098  24.599  0.00  0.00    +0.191 C 
ATOM     13  C   UNL     1      -3.227   4.432  25.704  0.00  0.00    +0.133 C 
ATOM     14  C   UNL     1      -0.097   3.292  24.478  0.00  0.00    +0.235 C 
ATOM     15  C   UNL     1      -2.787   3.295  26.606  0.00  0.00    +0.183 C 
ATOM     16  C   UNL     1       0.142   4.484  25.376  0.00  0.00    +0.207 C 
ENDROOT
BRANCH  13   8
ATOM      8  N   UNL     1      -4.487   4.067  25.016  0.00  0.00    -0.182 NA
ATOM     33  H   UNL     1      -4.884   4.746  24.356  0.00  0.00    +0.148 HD
BRANCH   8   1
ATOM      1  S   UNL     1      -5.427   2.780  25.602  0.00  0.00    +0.061 S 
ATOM      5  O   UNL     1      -6.741   2.822  24.990  0.00  0.00    -0.153 OA
ATOM      6  O   UNL     1      -5.296   2.728  27.046  0.00  0.00    -0.153 OA
BRANCH   1  24
ATOM     10  N   UNL     1      -3.907   2.614  23.043  0.00  0.00    -0.253 NA
ATOM     24  C   UNL     1      -4.568   1.377  24.956  0.00  0.00    +0.131 A 
ATOM     25  C   UNL     1      -3.905   1.464  23.743  0.00  0.00    +0.097 A 
ATOM     26  C   UNL     1      -4.593   0.209  25.713  0.00  0.00    +0.031 A 
ATOM     27  C   UNL     1      -3.237   0.311  23.278  0.00  0.00    +0.002 A 
ATOM     28  C   UNL     1      -3.934  -0.922  25.249  0.00  0.00    +0.003 A 
ATOM     29  C   UNL     1      -3.256  -0.873  24.034  0.00  0.00    +0.010 A 
ATOM     30  C   UNL     1      -2.564   0.388  22.051  0.00  0.00    +0.011 A 
ATOM     31  C   UNL     1      -3.244   2.648  21.864  0.00  0.00    +0.111 A 
ATOM     32  C   UNL     1      -2.564   1.573  21.328  0.00  0.00    +0.020 A 
ENDBRANCH   1  24
ENDBRANCH   8   1
ENDBRANCH  13   8
BRANCH  14   4
ATOM      4  O   UNL     1       0.650   2.166  24.879  0.00  0.00    -0.442 OA
BRANCH   4  23
ATOM      7  O   UNL     1       0.239   0.442  23.420  0.00  0.00    -0.226 OA
ATOM      9  N   UNL     1       2.322   1.459  23.526  0.00  0.00    -0.278 N 
ATOM     23  C   UNL     1       1.004   1.275  23.892  0.00  0.00    +0.401 C 
ATOM     34  H   UNL     1       2.855   2.157  24.033  0.00  0.00    +0.152 HD
BRANCH   9  17
ATOM     17  C   UNL     1       2.989   0.674  22.511  0.00  0.00    +0.076 C 
ATOM     18  C   UNL     1       4.467   1.060  22.399  0.00  0.00    +0.022 C 
ATOM     19  C   UNL     1       2.825  -0.827  22.778  0.00  0.00    +0.022 C 
ATOM     20  C   UNL     1       5.288   0.583  23.597  0.00  0.00    +0.002 C 
ATOM     21  C   UNL     1       3.649  -1.300  23.976  0.00  0.00    +0.002 C 
ATOM     22  C   UNL     1       5.118  -0.913  23.837  0.00  0.00    +0.000 C 
ENDBRANCH   9  17
ENDBRANCH   4  23
ENDBRANCH  14   4
TORSDOF 6
ENDMDL
MODEL 4
REMARK VINA RESULT:       1.0      2.110      3.276
REMARK  Name = 11883362
REMARK  6 active torsions:
REMARK  status: ('A' for Active; 'I' for Inactive)
REMARK    1  A    between atoms: S_1  and  N_8
REMARK    2  A    between atoms: S_1  and  C_24
REMARK    3  A    between atoms: O_4  and  C_14
REMARK    4  A    between atoms: O_4  and  C_23
REMARK    5  A    between atoms: N_8  and  C_13
REMARK    6  A    between atoms: N_9  and  C_17
REMARK                            x       y       z     vdW  Elec       q    Type
REMARK                         _______ _______ _______ _____ _____    ______ ____
ROOT
ATOM      2  O   UNL     1       0.394  -0.271  24.264  0.00  0.00    -0.369 OA
ATOM      3  O   UNL     1      -0.970   1.072  26.672  0.00  0.00    -0.368 OA
ATOM     11  C   UNL     1      -1.509   0.427  25.499  0.00  0.00    +0.171 C 
ATOM     12  C   UNL     1      -0.588   0.774  24.345  0.00  0.00    +0.191 C 
ATOM     13  C   UNL     1      -1.379  -1.071  25.630  0.00  0.00    +0.133 C 
ATOM     14  C   UNL     1       0.020   2.082  24.793  0.00  0.00    +0.235 C 
ATOM     15  C   UNL     1       0.044  -1.326  25.172  0.00  0.00    +0.183 C 
ATOM     16  C   UNL     1       0.153   1.877  26.285  0.00  0.00    +0.207 C 
ENDROOT
BRANCH  13   8
ATOM      8  N   UNL     1      -2.329  -1.743  24.712  0.00  0.00    -0.182 NA
ATOM     33  H   UNL     1      -1.938  -2.359  23.989  0.00  0.00    +0.148 HD
BRANCH   8   1
ATOM      1  S   UNL     1      -3.932  -1.195  24.606  0.00  0.00    +0.061 S 
ATOM      5  O   UNL     1      -4.471  -1.017  25.941  0.00  0.00    -0.153 OA
ATOM      6  O   UNL     1      -4.640  -2.007  23.635  0.00  0.00    -0.153 OA
BRANCH   1  24
ATOM     10  N   UNL     1      -5.038   1.391  25.595  0.00  0.00    -0.253 NA
ATOM     24  C   UNL     1      -3.723   0.406  23.885  0.00  0.00    +0.131 A 
ATOM     25  C   UNL     1      -4.307   1.517  24.472  0.00  0.00    +0.097 A 
ATOM     26  C   UNL     1      -2.960   0.488  22.724  0.00  0.00    +0.031 A 
ATOM     27  C   UNL     1      -4.105   2.767  23.851  0.00  0.00    +0.002 A 
ATOM     28  C   UNL     1      -2.765   1.722  22.118  0.00  0.00    +0.003 A 
ATOM     29  C   UNL     1      -3.336   2.861  22.679  0.00  0.00    +0.010 A 
ATOM     30  C   UNL     1      -4.693   3.897  24.436  0.00  0.00    +0.011 A 
ATOM     31  C   UNL     1      -5.588   2.506  26.130  0.00  0.00    +0.111 A 
ATOM     32  C   UNL     1      -5.447   3.771  25.594  0.00  0.00    +0.020 A 
ENDBRANCH   1  24
ENDBRANCH   8   1
ENDBRANCH  13   8
BRANCH  14   4
ATOM      4  O   UNL     1       1.259   2.363  24.183  0.00  0.00    -0.442 OA
BRANCH   4  23
ATOM      7  O   UNL     1       0.992   0.793  22.530  0.00  0.00    -0.226 OA
ATOM      9  N   UNL     1       3.098   1.371  23.311  0.00  0.00    -0.278 N 
ATOM     23  C   UNL     1       1.721   1.445  23.269  0.00  0.00    +0.401 C 
ATOM     34  H   UNL     1       3.575   1.936  24.006  0.00  0.00    +0.152 HD
BRANCH   9  17
ATOM     17  C   UNL     1       3.881   0.495  22.468  0.00  0.00    +0.076 C 
ATOM     18  C   UNL     1       5.376   0.624  22.777  0.00  0.00    +0.022 C 
ATOM     19  C   UNL     1       3.410  -0.959  22.597  0.00  0.00    +0.022 C 
ATOM     20  C   UNL     1       5.752   0.001  24.122  0.00  0.00    +0.002 C 
ATOM     21  C   UNL     1       3.790  -1.578  23.942  0.00  0.00    +0.002 C 
ATOM     22  C   UNL     1       5.283  -1.447  24.223  0.00  0.00    +0.000 C 
ENDBRANCH   9  17
ENDBRANCH   4  23
ENDBRANCH  14   4
TORSDOF 6
ENDMDL
MODEL 5
REMARK VINA RESULT:       1.4      1.954      3.684
REMARK  Name = 11883362
REMARK  6 active torsions:
REMARK  status: ('A' for Active; 'I' for Inactive)
REMARK    1  A    between atoms: S_1  and  N_8
REMARK    2  A    between atoms: S_1  and  C_24
REMARK    3  A    between atoms: O_4  and  C_14
REMARK    4  A    between atoms: O_4  and  C_23
REMARK    5  A    between atoms: N_8  and  C_13
REMARK    6  A    between atoms: N_9  and  C_17
REMARK                            x       y       z     vdW  Elec       q    Type
REMARK                         _______ _______ _______ _____ _____    ______ ____
ROOT
ATOM      2  O   UNL     1      -2.471  -1.567  23.938  0.00  0.00    -0.369 OA
ATOM      3  O   UNL     1      -2.014  -0.430  26.759  0.00  0.00    -0.368 OA
ATOM     11  C   UNL     1      -2.733   0.086  25.620  0.00  0.00    +0.171 C 
ATOM     12  C   UNL     1      -1.944  -0.308  24.386  0.00  0.00    +0.191 C 
ATOM     13  C   UNL     1      -4.043  -0.645  25.463  0.00  0.00    +0.133 C 
ATOM     14  C   UNL     1      -0.540  -0.448  24.926  0.00  0.00    +0.235 C 
ATOM     15  C   UNL     1      -3.642  -1.893  24.701  0.00  0.00    +0.183 C 
ATOM     16  C   UNL     1      -0.785  -1.016  26.306  0.00  0.00    +0.207 C 
ENDROOT
BRANCH  13   8
ATOM      8  N   UNL     1      -4.979   0.162  24.645  0.00  0.00    -0.182 NA
ATOM     33  H   UNL     1      -4.983   0.005  23.631  0.00  0.00    +0.148 HD
BRANCH   8   1
ATOM      1  S   UNL     1      -5.698   1.550  25.308  0.00  0.00    +0.061 S 
ATOM      5  O   UNL     1      -6.130   1.270  26.664  0.00  0.00    -0.153 OA
ATOM      6  O   UNL     1      -6.631   2.098  24.342  0.00  0.00    -0.153 OA
BRANCH   1  24
ATOM     10  N   UNL     1      -3.544   1.921  23.280  0.00  0.00    -0.253 NA
ATOM     24  C   UNL     1      -4.329   2.665  25.392  0.00  0.00    +0.131 A 
ATOM     25  C   UNL     1      -3.408   2.717  24.358  0.00  0.00    +0.097 A 
ATOM     26  C   UNL     1      -4.228   3.468  26.524  0.00  0.00    +0.031 A 
ATOM     27  C   UNL     1      -2.336   3.626  24.481  0.00  0.00    +0.002 A 
ATOM     28  C   UNL     1      -3.170   4.361  26.639  0.00  0.00    +0.003 A 
ATOM     29  C   UNL     1      -2.225   4.441  25.619  0.00  0.00    +0.010 A 
ATOM     30  C   UNL     1      -1.399   3.685  23.440  0.00  0.00    +0.011 A 
ATOM     31  C   UNL     1      -2.618   2.009  22.298  0.00  0.00    +0.111 A 
ATOM     32  C   UNL     1      -1.537   2.867  22.329  0.00  0.00    +0.020 A 
ENDBRANCH   1  24
ENDBRANCH   8   1
ENDBRANCH  13   8
BRANCH  14   4
ATOM      4  O   UNL     1       0.281  -1.287  24.145  0.00  0.00    -0.442 OA
BRANCH   4  23
ATOM      7  O   UNL     1       0.589   0.039  22.297  0.00  0.00    -0.226 OA
ATOM      9  N   UNL     1       2.381  -0.988  23.353  0.00  0.00    -0.278 N 
ATOM     23  C   UNL     1       1.048  -0.676  23.180  0.00  0.00    +0.401 C 
ATOM     34  H   UNL     1       2.617  -1.632  24.101  0.00  0.00    +0.152 HD
BRANCH   9  17
ATOM     17  C   UNL     1       3.438  -0.497  22.497  0.00  0.00    +0.076 C 
ATOM     18  C   UNL     1       3.649   1.008  22.690  0.00  0.00    +0.022 C 
ATOM     19  C   UNL     1       4.739  -1.275  22.726  0.00  0.00    +0.022 C 
ATOM     20  C   UNL     1       4.304   1.340  24.031  0.00  0.00    +0.002 C 
ATOM     21  C   UNL     1       5.392  -0.939  24.067  0.00  0.00    +0.002 C 
ATOM     22  C   UNL     1       5.602   0.563  24.231  0.00  0.00    +0.000 C 
ENDBRANCH   9  17
ENDBRANCH   4  23
ENDBRANCH  14   4
TORSDOF 6
ENDMDL
MODEL 6
REMARK VINA RESULT:       2.0      2.256      7.281
REMARK  Name = 11883362
REMARK  6 active torsions:
REMARK  status: ('A' for Active; 'I' for Inactive)
REMARK    1  A    between atoms: S_1  and  N_8
REMARK    2  A    between atoms: S_1  and  C_24
REMARK    3  A    between atoms: O_4  and  C_14
REMARK    4  A    between atoms: O_4  and  C_23
REMARK    5  A    between atoms: N_8  and  C_13
REMARK    6  A    between atoms: N_9  and  C_17
REMARK                            x       y       z     vdW  Elec       q    Type
REMARK                         _______ _______ _______ _____ _____    ______ ____
ROOT
ATOM      2  O   UNL     1      -2.157  -0.301  26.050  0.00  0.00    -0.369 OA
ATOM      3  O   UNL     1      -2.496  -2.788  24.272  0.00  0.00    -0.368 OA
ATOM     11  C   UNL     1      -1.640  -1.632  24.155  0.00  0.00    +0.171 C 
ATOM     12  C   UNL     1      -2.439  -0.441  24.648  0.00  0.00    +0.191 C 
ATOM     13  C   UNL     1      -0.498  -1.736  25.136  0.00  0.00    +0.133 C 
ATOM     14  C   UNL     1      -3.864  -0.879  24.403  0.00  0.00    +0.235 C 
ATOM     15  C   UNL     1      -1.110  -1.209  26.420  0.00  0.00    +0.183 C 
ATOM     16  C   UNL     1      -3.797  -2.360  24.699  0.00  0.00    +0.207 C 
ENDROOT
BRANCH  13   8
ATOM      8  N   UNL     1       0.615  -0.855  24.713  0.00  0.00    -0.182 NA
ATOM     33  H   UNL     1       1.214  -0.457  25.446  0.00  0.00    +0.148 HD
BRANCH   8   1
ATOM      1  S   UNL     1       0.635  -0.215  23.140  0.00  0.00    +0.061 S 
ATOM      5  O   UNL     1      -0.326   0.868  23.047  0.00  0.00    -0.153 OA
ATOM      6  O   UNL     1       0.594  -1.311  22.191  0.00  0.00    -0.153 OA
BRANCH   1  24
ATOM     10  N   UNL     1       3.223  -1.574  23.723  0.00  0.00    -0.253 NA
ATOM     24  C   UNL     1       2.255   0.485  23.051  0.00  0.00    +0.131 A 
ATOM     25  C   UNL     1       3.365  -0.287  23.355  0.00  0.00    +0.097 A 
ATOM     26  C   UNL     1       2.355   1.819  22.667  0.00  0.00    +0.031 A 
ATOM     27  C   UNL     1       4.633   0.326  23.266  0.00  0.00    +0.002 A 
ATOM     28  C   UNL     1       3.606   2.416  22.581  0.00  0.00    +0.003 A 
ATOM     29  C   UNL     1       4.744   1.672  22.880  0.00  0.00    +0.010 A 
ATOM     30  C   UNL     1       5.762  -0.446  23.573  0.00  0.00    +0.011 A 
ATOM     31  C   UNL     1       4.338  -2.285  24.010  0.00  0.00    +0.111 A 
ATOM     32  C   UNL     1       5.618  -1.773  23.952  0.00  0.00    +0.020 A 
ENDBRANCH   1  24
ENDBRANCH   8   1
ENDBRANCH  13   8
BRANCH  14   4
ATOM      4  O   UNL     1      -4.802  -0.216  25.219  0.00  0.00    -0.442 OA
BRANCH   4  23
ATOM      7  O   UNL     1      -6.258   1.522  24.858  0.00  0.00    -0.226 OA
ATOM      9  N   UNL     1      -3.972   1.785  24.561  0.00  0.00    -0.278 N 
ATOM     23  C   UNL     1      -5.115   1.079  24.876  0.00  0.00    +0.401 C 
ATOM     34  H   UNL     1      -3.093   1.280  24.573  0.00  0.00    +0.152 HD
BRANCH   9  17
ATOM     17  C   UNL     1      -3.972   3.175  24.160  0.00  0.00    +0.076 C 
ATOM     18  C   UNL     1      -4.231   4.094  25.359  0.00  0.00    +0.022 C 
ATOM     19  C   UNL     1      -2.665   3.544  23.449  0.00  0.00    +0.022 C 
ATOM     20  C   UNL     1      -3.039   4.158  26.315  0.00  0.00    +0.002 C 
ATOM     21  C   UNL     1      -1.477   3.609  24.409  0.00  0.00    +0.002 C 
ATOM     22  C   UNL     1      -1.753   4.537  25.587  0.00  0.00    +0.000 C 
ENDBRANCH   9  17
ENDBRANCH   4  23
ENDBRANCH  14   4
TORSDOF 6
ENDMDL
MODEL 7
REMARK VINA RESULT:       2.2      1.718      3.753
REMARK  Name = 11883362
REMARK  6 active torsions:
REMARK  status: ('A' for Active; 'I' for Inactive)
REMARK    1  A    between atoms: S_1  and  N_8
REMARK    2  A    between atoms: S_1  and  C_24
REMARK    3  A    between atoms: O_4  and  C_14
REMARK    4  A    between atoms: O_4  and  C_23
REMARK    5  A    between atoms: N_8  and  C_13
REMARK    6  A    between atoms: N_9  and  C_17
REMARK                            x       y       z     vdW  Elec       q    Type
REMARK                         _______ _______ _______ _____ _____    ______ ____
ROOT
ATOM      2  O   UNL     1      -2.070   0.404  23.600  0.00  0.00    -0.369 OA
ATOM      3  O   UNL     1      -2.478  -2.344  24.920  0.00  0.00    -0.368 OA
ATOM     11  C   UNL     1      -2.509  -1.006  25.458  0.00  0.00    +0.171 C 
ATOM     12  C   UNL     1      -1.437  -0.216  24.732  0.00  0.00    +0.191 C 
ATOM     13  C   UNL     1      -3.795  -0.322  25.065  0.00  0.00    +0.133 C 
ATOM     14  C   UNL     1      -0.464  -1.292  24.312  0.00  0.00    +0.235 C 
ATOM     15  C   UNL     1      -3.488   0.196  23.673  0.00  0.00    +0.183 C 
ATOM     16  C   UNL     1      -1.386  -2.448  23.995  0.00  0.00    +0.207 C 
ENDROOT
BRANCH  13   8
ATOM      8  N   UNL     1      -4.063   0.816  25.975  0.00  0.00    -0.182 NA
ATOM     33  H   UNL     1      -3.764   0.725  26.953  0.00  0.00    +0.148 HD
BRANCH   8   1
ATOM      1  S   UNL     1      -5.170   2.019  25.517  0.00  0.00    +0.061 S 
ATOM      5  O   UNL     1      -5.837   2.536  26.696  0.00  0.00    -0.153 OA
ATOM      6  O   UNL     1      -5.947   1.534  24.392  0.00  0.00    -0.153 OA
BRANCH   1  24
ATOM     10  N   UNL     1      -2.278   2.398  26.132  0.00  0.00    -0.253 NA
ATOM     24  C   UNL     1      -4.100   3.283  24.898  0.00  0.00    +0.131 A 
ATOM     25  C   UNL     1      -2.770   3.320  25.283  0.00  0.00    +0.097 A 
ATOM     26  C   UNL     1      -4.652   4.215  24.024  0.00  0.00    +0.031 A 
ATOM     27  C   UNL     1      -1.965   4.352  24.757  0.00  0.00    +0.002 A 
ATOM     28  C   UNL     1      -3.853   5.228  23.509  0.00  0.00    +0.003 A 
ATOM     29  C   UNL     1      -2.511   5.298  23.874  0.00  0.00    +0.010 A 
ATOM     30  C   UNL     1      -0.617   4.399  25.142  0.00  0.00    +0.011 A 
ATOM     31  C   UNL     1      -0.972   2.478  26.478  0.00  0.00    +0.111 A 
ATOM     32  C   UNL     1      -0.108   3.450  26.016  0.00  0.00    +0.020 A 
ENDBRANCH   1  24
ENDBRANCH   8   1
ENDBRANCH  13   8
BRANCH  14   4
ATOM      4  O   UNL     1       0.331  -0.929  23.207  0.00  0.00    -0.442 OA
BRANCH   4  23
ATOM      7  O   UNL     1       0.629   1.323  23.540  0.00  0.00    -0.226 OA
ATOM      9  N   UNL     1       2.436  -0.095  23.219  0.00  0.00    -0.278 N 
ATOM     23  C   UNL     1       1.096   0.207  23.341  0.00  0.00    +0.401 C 
ATOM     34  H   UNL     1       2.681  -1.057  23.008  0.00  0.00    +0.152 HD
BRANCH   9  17
ATOM     17  C   UNL     1       3.492   0.888  23.313  0.00  0.00    +0.076 C 
ATOM     18  C   UNL     1       4.397   0.611  24.519  0.00  0.00    +0.022 C 
ATOM     19  C   UNL     1       4.303   0.954  22.013  0.00  0.00    +0.022 C 
ATOM     20  C   UNL     1       5.282  -0.619  24.315  0.00  0.00    +0.002 C 
ATOM     21  C   UNL     1       5.188  -0.277  21.815  0.00  0.00    +0.002 C 
ATOM     22  C   UNL     1       6.086  -0.526  23.022  0.00  0.00    +0.000 C 
ENDBRANCH   9  17
ENDBRANCH   4  23
ENDBRANCH  14   4
TORSDOF 6
ENDMDL
