MODEL 1
REMARK VINA RESULT:       0.3      0.000      0.000
REMARK  Name = 45783364
REMARK  11 active torsions:
REMARK  status: ('A' for Active; 'I' for Inactive)
REMARK    1  A    between atoms: O_2  and  C_26
REMARK    2  A    between atoms: O_2  and  C_30
REMARK    3  A    between atoms: O_4  and  C_31
REMARK    4  A    between atoms: O_4  and  C_32
REMARK    5  A    between atoms: N_5  and  C_14
REMARK    6  A    between atoms: N_8  and  C_22
REMARK    7  A    between atoms: C_10  and  C_15
REMARK    8  A    between atoms: C_14  and  C_16
REMARK    9  A    between atoms: C_19  and  C_23
REMARK   10  A    between atoms: C_28  and  C_29
REMARK   11  A    between atoms: C_30  and  C_31
REMARK                            x       y       z     vdW  Elec       q    Type
REMARK                         _______ _______ _______ _____ _____    ______ ____
ROOT
ATOM      5  N   UNL     1      -5.298   2.543  25.349  0.00  0.00    -0.287 NA
ATOM     10  C   UNL     1      -4.442   3.184  24.332  0.00  0.00    +0.146 C 
ATOM     11  C   UNL     1      -4.592   4.695  24.591  0.00  0.00    +0.030 C 
ATOM     12  C   UNL     1      -5.597   4.807  25.728  0.00  0.00    +0.017 C 
ATOM     13  C   UNL     1      -6.361   3.501  25.657  0.00  0.00    +0.085 C 
ENDROOT
BRANCH  10  15
ATOM      1  O   UNL     1      -2.300   3.098  25.506  0.00  0.00    -0.336 OA
ATOM      6  N   UNL     1      -2.318   1.996  23.556  0.00  0.00    -0.190 NA
ATOM      7  N   UNL     1      -1.016   2.559  25.350  0.00  0.00    -0.056 NA
ATOM     15  C   UNL     1      -3.002   2.719  24.406  0.00  0.00    +0.245 A 
ATOM     19  C   UNL     1      -1.106   1.925  24.178  0.00  0.00    +0.202 A 
BRANCH  19  23
ATOM      9  N   UNL     1       2.141  -0.189  22.479  0.00  0.00    -0.221 NA
ATOM     23  C   UNL     1      -0.005   1.208  23.602  0.00  0.00    +0.029 A 
ATOM     24  C   UNL     1       1.287   1.714  23.702  0.00  0.00    +0.079 A 
ATOM     25  C   UNL     1      -0.224   0.005  22.942  0.00  0.00    +0.031 A 
ATOM     26  C   UNL     1       2.315   0.984  23.129  0.00  0.00    +0.215 A 
ATOM     27  C   UNL     1       0.871  -0.649  22.402  0.00  0.00    +0.115 A 
BRANCH  26   2
ATOM      2  O   UNL     1       3.597   1.462  23.214  0.00  0.00    -0.474 OA
BRANCH   2  30
ATOM     30  C   UNL     1       4.633   0.594  22.770  0.00  0.00    +0.258 C 
BRANCH  30  31
ATOM     31  C   UNL     1       5.706   0.516  23.840  0.00  0.00    +0.200 C 
BRANCH  31   4
ATOM      4  O   UNL     1       5.469  -0.629  24.650  0.00  0.00    -0.380 OA
ATOM     32  C   UNL     1       4.820  -1.661  23.917  0.00  0.00    +0.194 C 
ENDBRANCH  31   4
ENDBRANCH  30  31
ENDBRANCH   2  30
ENDBRANCH  26   2
ENDBRANCH  19  23
ENDBRANCH  10  15
BRANCH   5  14
ATOM     14  C   UNL     1      -5.827   1.254  24.924  0.00  0.00    +0.120 C 
BRANCH  14  16
ATOM     16  C   UNL     1      -4.769   0.184  24.931  0.00  0.00    -0.033 A 
ATOM     17  C   UNL     1      -4.572  -0.611  23.802  0.00  0.00    +0.007 A 
ATOM     18  C   UNL     1      -3.985  -0.015  26.068  0.00  0.00    +0.007 A 
ATOM     20  C   UNL     1      -3.592  -1.603  23.808  0.00  0.00    +0.023 A 
ATOM     21  C   UNL     1      -3.005  -1.008  26.075  0.00  0.00    +0.023 A 
ATOM     22  C   UNL     1      -2.808  -1.801  24.945  0.00  0.00    +0.033 A 
BRANCH  22   8
ATOM      3  O   UNL     1       0.093  -1.678  25.741  0.00  0.00    -0.276 OA
ATOM      8  N   UNL     1      -1.827  -2.794  24.952  0.00  0.00    -0.286 N 
ATOM     28  C   UNL     1      -0.484  -2.680  25.333  0.00  0.00    +0.214 C 
ATOM     29  C   UNL     1       0.249  -3.991  25.195  0.00  0.00    +0.109 C 
ATOM     33  H   UNL     1      -2.137  -3.712  24.639  0.00  0.00    +0.155 HD
ENDBRANCH  22   8
ENDBRANCH  14  16
ENDBRANCH   5  14
TORSDOF 9
ENDMDL
MODEL 2
REMARK VINA RESULT:       1.8      1.850      4.441
REMARK  Name = 45783364
REMARK  11 active torsions:
REMARK  status: ('A' for Active; 'I' for Inactive)
REMARK    1  A    between atoms: O_2  and  C_26
REMARK    2  A    between atoms: O_2  and  C_30
REMARK    3  A    between atoms: O_4  and  C_31
REMARK    4  A    between atoms: O_4  and  C_32
REMARK    5  A    between atoms: N_5  and  C_14
REMARK    6  A    between atoms: N_8  and  C_22
REMARK    7  A    between atoms: C_10  and  C_15
REMARK    8  A    between atoms: C_14  and  C_16
REMARK    9  A    between atoms: C_19  and  C_23
REMARK   10  A    between atoms: C_28  and  C_29
REMARK   11  A    between atoms: C_30  and  C_31
REMARK                            x       y       z     vdW  Elec       q    Type
REMARK                         _______ _______ _______ _____ _____    ______ ____
ROOT
ATOM      5  N   UNL     1      -4.343  -1.544  23.981  0.00  0.00    -0.287 NA
ATOM     10  C   UNL     1      -3.282  -1.860  24.958  0.00  0.00    +0.146 C 
ATOM     11  C   UNL     1      -3.095  -3.386  24.852  0.00  0.00    +0.030 C 
ATOM     12  C   UNL     1      -4.134  -3.845  23.840  0.00  0.00    +0.017 C 
ATOM     13  C   UNL     1      -5.174  -2.743  23.872  0.00  0.00    +0.085 C 
ENDROOT
BRANCH  10  15
ATOM      1  O   UNL     1      -1.681  -0.126  25.589  0.00  0.00    -0.336 OA
ATOM      6  N   UNL     1      -1.141  -1.229  23.716  0.00  0.00    -0.190 NA
ATOM      7  N   UNL     1      -0.477   0.434  25.140  0.00  0.00    -0.056 NA
ATOM     15  C   UNL     1      -2.001  -1.096  24.694  0.00  0.00    +0.245 A 
ATOM     19  C   UNL     1      -0.224  -0.269  24.032  0.00  0.00    +0.202 A 
BRANCH  19  23
ATOM      9  N   UNL     1       3.198   0.404  21.639  0.00  0.00    -0.221 NA
ATOM     23  C   UNL     1       0.937  -0.040  23.221  0.00  0.00    +0.029 A 
ATOM     24  C   UNL     1       2.016   0.672  23.731  0.00  0.00    +0.079 A 
ATOM     25  C   UNL     1       0.987  -0.531  21.921  0.00  0.00    +0.031 A 
ATOM     26  C   UNL     1       3.114   0.865  22.907  0.00  0.00    +0.215 A 
ATOM     27  C   UNL     1       2.129  -0.284  21.178  0.00  0.00    +0.115 A 
BRANCH  26   2
ATOM      2  O   UNL     1       4.190   1.564  23.387  0.00  0.00    -0.474 OA
BRANCH   2  30
ATOM     30  C   UNL     1       5.437   0.880  23.410  0.00  0.00    +0.258 C 
BRANCH  30  31
ATOM     31  C   UNL     1       5.467  -0.056  24.603  0.00  0.00    +0.200 C 
BRANCH  31   4
ATOM      4  O   UNL     1       5.647  -1.389  24.142  0.00  0.00    -0.380 OA
ATOM     32  C   UNL     1       4.401  -2.038  23.923  0.00  0.00    +0.194 C 
ENDBRANCH  31   4
ENDBRANCH  30  31
ENDBRANCH   2  30
ENDBRANCH  26   2
ENDBRANCH  19  23
ENDBRANCH  10  15
BRANCH   5  14
ATOM     14  C   UNL     1      -5.122  -0.367  24.342  0.00  0.00    +0.120 C 
BRANCH  14  16
ATOM     16  C   UNL     1      -4.289   0.886  24.319  0.00  0.00    -0.033 A 
ATOM     17  C   UNL     1      -4.254   1.721  25.436  0.00  0.00    +0.007 A 
ATOM     18  C   UNL     1      -3.550   1.213  23.182  0.00  0.00    +0.007 A 
ATOM     20  C   UNL     1      -3.482   2.882  25.416  0.00  0.00    +0.023 A 
ATOM     21  C   UNL     1      -2.779   2.375  23.161  0.00  0.00    +0.023 A 
ATOM     22  C   UNL     1      -2.744   3.208  24.278  0.00  0.00    +0.033 A 
BRANCH  22   8
ATOM      3  O   UNL     1      -0.125   3.840  25.623  0.00  0.00    -0.276 OA
ATOM      8  N   UNL     1      -1.972   4.371  24.258  0.00  0.00    -0.286 N 
ATOM     28  C   UNL     1      -0.754   4.612  24.908  0.00  0.00    +0.214 C 
ATOM     29  C   UNL     1      -0.239   6.002  24.631  0.00  0.00    +0.109 C 
ATOM     33  H   UNL     1      -2.349   5.133  23.699  0.00  0.00    +0.155 HD
ENDBRANCH  22   8
ENDBRANCH  14  16
ENDBRANCH   5  14
TORSDOF 9
ENDMDL
MODEL 3
REMARK VINA RESULT:       2.0      2.310      3.805
REMARK  Name = 45783364
REMARK  11 active torsions:
REMARK  status: ('A' for Active; 'I' for Inactive)
REMARK    1  A    between atoms: O_2  and  C_26
REMARK    2  A    between atoms: O_2  and  C_30
REMARK    3  A    between atoms: O_4  and  C_31
REMARK    4  A    between atoms: O_4  and  C_32
REMARK    5  A    between atoms: N_5  and  C_14
REMARK    6  A    between atoms: N_8  and  C_22
REMARK    7  A    between atoms: C_10  and  C_15
REMARK    8  A    between atoms: C_14  and  C_16
REMARK    9  A    between atoms: C_19  and  C_23
REMARK   10  A    between atoms: C_28  and  C_29
REMARK   11  A    between atoms: C_30  and  C_31
REMARK                            x       y       z     vdW  Elec       q    Type
REMARK                         _______ _______ _______ _____ _____    ______ ____
ROOT
ATOM      5  N   UNL     1      -4.262   2.636  24.521  0.00  0.00    -0.287 NA
ATOM     10  C   UNL     1      -3.916   1.494  25.390  0.00  0.00    +0.146 C 
ATOM     11  C   UNL     1      -5.172   0.602  25.383  0.00  0.00    +0.030 C 
ATOM     12  C   UNL     1      -6.189   1.353  24.537  0.00  0.00    +0.017 C 
ATOM     13  C   UNL     1      -5.715   2.791  24.603  0.00  0.00    +0.085 C 
ENDROOT
BRANCH  10  15
ATOM      1  O   UNL     1      -2.435  -0.447  25.493  0.00  0.00    -0.336 OA
ATOM      6  N   UNL     1      -1.784   1.121  24.033  0.00  0.00    -0.190 NA
ATOM      7  N   UNL     1      -1.253  -0.924  24.910  0.00  0.00    -0.056 NA
ATOM     15  C   UNL     1      -2.676   0.761  24.921  0.00  0.00    +0.245 A 
ATOM     19  C   UNL     1      -0.932   0.056  24.061  0.00  0.00    +0.202 A 
BRANCH  19  23
ATOM      9  N   UNL     1       2.501  -0.106  21.595  0.00  0.00    -0.221 NA
ATOM     23  C   UNL     1       0.232   0.002  23.225  0.00  0.00    +0.029 A 
ATOM     24  C   UNL     1       1.389   0.681  23.593  0.00  0.00    +0.079 A 
ATOM     25  C   UNL     1       0.210  -0.730  22.043  0.00  0.00    +0.031 A 
ATOM     26  C   UNL     1       2.486   0.596  22.751  0.00  0.00    +0.215 A 
ATOM     27  C   UNL     1       1.359  -0.752  21.270  0.00  0.00    +0.115 A 
BRANCH  26   2
ATOM      2  O   UNL     1       3.638   1.256  23.092  0.00  0.00    -0.474 OA
BRANCH   2  30
ATOM     30  C   UNL     1       4.860   0.559  22.882  0.00  0.00    +0.258 C 
BRANCH  30  31
ATOM     31  C   UNL     1       5.623   0.491  24.191  0.00  0.00    +0.200 C 
BRANCH  31   4
ATOM      4  O   UNL     1       5.664  -0.860  24.633  0.00  0.00    -0.380 OA
ATOM     32  C   UNL     1       4.742  -1.671  23.917  0.00  0.00    +0.194 C 
ENDBRANCH  31   4
ENDBRANCH  30  31
ENDBRANCH   2  30
ENDBRANCH  26   2
ENDBRANCH  19  23
ENDBRANCH  10  15
BRANCH   5  14
ATOM     14  C   UNL     1      -3.559   3.861  24.876  0.00  0.00    +0.120 C 
BRANCH  14  16
ATOM     16  C   UNL     1      -2.244   3.578  25.550  0.00  0.00    -0.033 A 
ATOM     17  C   UNL     1      -2.219   3.117  26.867  0.00  0.00    +0.007 A 
ATOM     18  C   UNL     1      -1.048   3.776  24.859  0.00  0.00    +0.007 A 
ATOM     20  C   UNL     1      -1.000   2.854  27.492  0.00  0.00    +0.023 A 
ATOM     21  C   UNL     1       0.171   3.514  25.484  0.00  0.00    +0.023 A 
ATOM     22  C   UNL     1       0.194   3.053  26.800  0.00  0.00    +0.033 A 
BRANCH  22   8
ATOM      3  O   UNL     1       0.860   2.698  29.715  0.00  0.00    -0.276 OA
ATOM      8  N   UNL     1       1.415   2.791  27.426  0.00  0.00    -0.286 N 
ATOM     28  C   UNL     1       1.669   2.636  28.795  0.00  0.00    +0.214 C 
ATOM     29  C   UNL     1       3.127   2.363  29.065  0.00  0.00    +0.109 C 
ATOM     33  H   UNL     1       2.213   2.704  26.801  0.00  0.00    +0.155 HD
ENDBRANCH  22   8
ENDBRANCH  14  16
ENDBRANCH   5  14
TORSDOF 9
ENDMDL
MODEL 4
REMARK VINA RESULT:       2.3      1.368      1.680
REMARK  Name = 45783364
REMARK  11 active torsions:
REMARK  status: ('A' for Active; 'I' for Inactive)
REMARK    1  A    between atoms: O_2  and  C_26
REMARK    2  A    between atoms: O_2  and  C_30
REMARK    3  A    between atoms: O_4  and  C_31
REMARK    4  A    between atoms: O_4  and  C_32
REMARK    5  A    between atoms: N_5  and  C_14
REMARK    6  A    between atoms: N_8  and  C_22
REMARK    7  A    between atoms: C_10  and  C_15
REMARK    8  A    between atoms: C_14  and  C_16
REMARK    9  A    between atoms: C_19  and  C_23
REMARK   10  A    between atoms: C_28  and  C_29
REMARK   11  A    between atoms: C_30  and  C_31
REMARK                            x       y       z     vdW  Elec       q    Type
REMARK                         _______ _______ _______ _____ _____    ______ ____
ROOT
ATOM      5  N   UNL     1      -4.007   3.679  25.774  0.00  0.00    -0.287 NA
ATOM     10  C   UNL     1      -2.887   4.092  24.905  0.00  0.00    +0.146 C 
ATOM     11  C   UNL     1      -2.356   5.389  25.543  0.00  0.00    +0.030 C 
ATOM     12  C   UNL     1      -3.276   5.659  26.724  0.00  0.00    +0.017 C 
ATOM     13  C   UNL     1      -4.541   4.904  26.369  0.00  0.00    +0.085 C 
ENDROOT
BRANCH  10  15
ATOM      1  O   UNL     1      -1.597   2.263  25.885  0.00  0.00    -0.336 OA
ATOM      6  N   UNL     1      -1.068   2.714  23.756  0.00  0.00    -0.190 NA
ATOM      7  N   UNL     1      -0.584   1.360  25.535  0.00  0.00    -0.056 NA
ATOM     15  C   UNL     1      -1.821   3.022  24.782  0.00  0.00    +0.245 A 
ATOM     19  C   UNL     1      -0.326   1.690  24.266  0.00  0.00    +0.202 A 
BRANCH  19  23
ATOM      9  N   UNL     1       2.596  -0.305  21.946  0.00  0.00    -0.221 NA
ATOM     23  C   UNL     1       0.665   1.014  23.479  0.00  0.00    +0.029 A 
ATOM     24  C   UNL     1       1.968   1.497  23.432  0.00  0.00    +0.079 A 
ATOM     25  C   UNL     1       0.326  -0.127  22.761  0.00  0.00    +0.031 A 
ATOM     26  C   UNL     1       2.888   0.807  22.657  0.00  0.00    +0.215 A 
ATOM     27  C   UNL     1       1.319  -0.744  22.016  0.00  0.00    +0.115 A 
BRANCH  26   2
ATOM      2  O   UNL     1       4.179   1.264  22.595  0.00  0.00    -0.474 OA
BRANCH   2  30
ATOM     30  C   UNL     1       5.207   0.296  22.766  0.00  0.00    +0.258 C 
BRANCH  30  31
ATOM     31  C   UNL     1       5.724   0.369  24.191  0.00  0.00    +0.200 C 
BRANCH  31   4
ATOM      4  O   UNL     1       5.628  -0.920  24.784  0.00  0.00    -0.380 OA
ATOM     32  C   UNL     1       4.840  -1.801  23.994  0.00  0.00    +0.194 C 
ENDBRANCH  31   4
ENDBRANCH  30  31
ENDBRANCH   2  30
ENDBRANCH  26   2
ENDBRANCH  19  23
ENDBRANCH  10  15
BRANCH   5  14
ATOM     14  C   UNL     1      -5.031   2.920  25.068  0.00  0.00    +0.120 C 
BRANCH  14  16
ATOM     16  C   UNL     1      -4.558   1.537  24.710  0.00  0.00    -0.033 A 
ATOM     17  C   UNL     1      -4.700   0.492  25.623  0.00  0.00    +0.007 A 
ATOM     18  C   UNL     1      -3.976   1.298  23.465  0.00  0.00    +0.007 A 
ATOM     20  C   UNL     1      -4.262  -0.789  25.292  0.00  0.00    +0.023 A 
ATOM     21  C   UNL     1      -3.536   0.017  23.133  0.00  0.00    +0.023 A 
ATOM     22  C   UNL     1      -3.680  -1.027  24.047  0.00  0.00    +0.033 A 
BRANCH  22   8
ATOM      3  O   UNL     1      -1.122  -2.456  24.741  0.00  0.00    -0.276 OA
ATOM      8  N   UNL     1      -3.240  -2.310  23.715  0.00  0.00    -0.286 N 
ATOM     28  C   UNL     1      -2.032  -2.926  24.066  0.00  0.00    +0.214 C 
ATOM     29  C   UNL     1      -1.936  -4.324  23.508  0.00  0.00    +0.109 C 
ATOM     33  H   UNL     1      -3.883  -2.856  23.147  0.00  0.00    +0.155 HD
ENDBRANCH  22   8
ENDBRANCH  14  16
ENDBRANCH   5  14
TORSDOF 9
ENDMDL
MODEL 5
REMARK VINA RESULT:       3.9      2.132      4.897
REMARK  Name = 45783364
REMARK  11 active torsions:
REMARK  status: ('A' for Active; 'I' for Inactive)
REMARK    1  A    between atoms: O_2  and  C_26
REMARK    2  A    between atoms: O_2  and  C_30
REMARK    3  A    between atoms: O_4  and  C_31
REMARK    4  A    between atoms: O_4  and  C_32
REMARK    5  A    between atoms: N_5  and  C_14
REMARK    6  A    between atoms: N_8  and  C_22
REMARK    7  A    between atoms: C_10  and  C_15
REMARK    8  A    between atoms: C_14  and  C_16
REMARK    9  A    between atoms: C_19  and  C_23
REMARK   10  A    between atoms: C_28  and  C_29
REMARK   11  A    between atoms: C_30  and  C_31
REMARK                            x       y       z     vdW  Elec       q    Type
REMARK                         _______ _______ _______ _____ _____    ______ ____
ROOT
ATOM      5  N   UNL     1      -3.990   4.057  25.667  0.00  0.00    -0.287 NA
ATOM     10  C   UNL     1      -5.182   3.254  26.004  0.00  0.00    +0.146 C 
ATOM     11  C   UNL     1      -6.375   4.113  25.542  0.00  0.00    +0.030 C 
ATOM     12  C   UNL     1      -5.758   5.401  25.018  0.00  0.00    +0.017 C 
ATOM     13  C   UNL     1      -4.410   5.458  25.708  0.00  0.00    +0.085 C 
ENDROOT
BRANCH  10  15
ATOM      1  O   UNL     1      -6.313   1.485  24.755  0.00  0.00    -0.336 OA
ATOM      6  N   UNL     1      -4.190   1.011  25.291  0.00  0.00    -0.190 NA
ATOM      7  N   UNL     1      -6.056   0.207  24.240  0.00  0.00    -0.056 NA
ATOM     15  C   UNL     1      -5.163   1.885  25.358  0.00  0.00    +0.245 A 
ATOM     19  C   UNL     1      -4.786  -0.001  24.596  0.00  0.00    +0.202 A 
BRANCH  19  23
ATOM      9  N   UNL     1      -2.709  -3.562  23.644  0.00  0.00    -0.221 NA
ATOM     23  C   UNL     1      -4.081  -1.208  24.273  0.00  0.00    +0.029 A 
ATOM     24  C   UNL     1      -2.694  -1.253  24.363  0.00  0.00    +0.079 A 
ATOM     25  C   UNL     1      -4.782  -2.339  23.870  0.00  0.00    +0.031 A 
ATOM     26  C   UNL     1      -2.061  -2.443  24.040  0.00  0.00    +0.215 A 
ATOM     27  C   UNL     1      -4.057  -3.480  23.569  0.00  0.00    +0.115 A 
BRANCH  26   2
ATOM      2  O   UNL     1      -0.695  -2.511  24.120  0.00  0.00    -0.474 OA
BRANCH   2  30
ATOM     30  C   UNL     1      -0.104  -2.077  25.339  0.00  0.00    +0.258 C 
BRANCH  30  31
ATOM     31  C   UNL     1      -0.802  -0.813  25.804  0.00  0.00    +0.200 C 
BRANCH  31   4
ATOM      4  O   UNL     1      -1.168  -0.962  27.171  0.00  0.00    -0.380 OA
ATOM     32  C   UNL     1      -2.523  -1.371  27.306  0.00  0.00    +0.194 C 
ENDBRANCH  31   4
ENDBRANCH  30  31
ENDBRANCH   2  30
ENDBRANCH  26   2
ENDBRANCH  19  23
ENDBRANCH  10  15
BRANCH   5  14
ATOM     14  C   UNL     1      -2.857   3.799  26.546  0.00  0.00    +0.120 C 
BRANCH  14  16
ATOM     16  C   UNL     1      -1.688   3.216  25.798  0.00  0.00    -0.033 A 
ATOM     17  C   UNL     1      -1.736   3.101  24.409  0.00  0.00    +0.007 A 
ATOM     18  C   UNL     1      -0.556   2.790  26.493  0.00  0.00    +0.007 A 
ATOM     20  C   UNL     1      -0.653   2.561  23.715  0.00  0.00    +0.023 A 
ATOM     21  C   UNL     1       0.526   2.249  25.800  0.00  0.00    +0.023 A 
ATOM     22  C   UNL     1       0.478   2.136  24.411  0.00  0.00    +0.033 A 
BRANCH  22   8
ATOM      3  O   UNL     1       0.645  -0.287  22.630  0.00  0.00    -0.276 OA
ATOM      8  N   UNL     1       1.562   1.594  23.717  0.00  0.00    -0.286 N 
ATOM     28  C   UNL     1       1.583   0.457  22.899  0.00  0.00    +0.214 C 
ATOM     29  C   UNL     1       2.957   0.204  22.330  0.00  0.00    +0.109 C 
ATOM     33  H   UNL     1       2.441   2.095  23.826  0.00  0.00    +0.155 HD
ENDBRANCH  22   8
ENDBRANCH  14  16
ENDBRANCH   5  14
TORSDOF 9
ENDMDL
