MODEL 1
REMARK VINA RESULT:      -4.5      0.000      0.000
REMARK  Name = 75536057
REMARK  7 active torsions:
REMARK  status: ('A' for Active; 'I' for Inactive)
REMARK    1  A    between atoms: O_1  and  C_8
REMARK    2  A    between atoms: O_2  and  C_10
REMARK    3  A    between atoms: O_4  and  C_21
REMARK    4  A    between atoms: O_4  and  C_24
REMARK    5  A    between atoms: N_5  and  C_7
REMARK    6  A    between atoms: C_6  and  C_11
REMARK    7  A    between atoms: C_14  and  C_17
REMARK                            x       y       z     vdW  Elec       q    Type
REMARK                         _______ _______ _______ _____ _____    ______ ____
ROOT
ATOM      6  C   UNL     1      -3.145   1.358  23.761  0.00  0.00    +0.044 C 
ATOM      7  C   UNL     1      -1.920   2.007  24.443  0.00  0.00    +0.112 C 
ATOM      8  C   UNL     1      -2.255   3.499  24.429  0.00  0.00    +0.164 C 
ATOM      9  C   UNL     1      -4.311   2.364  23.936  0.00  0.00    +0.044 C 
ATOM     10  C   UNL     1      -3.743   3.522  24.757  0.00  0.00    +0.145 C 
ENDROOT
BRANCH   6  11
ATOM     11  C   UNL     1      -3.440  -0.035  24.278  0.00  0.00    -0.042 A 
ATOM     12  C   UNL     1      -3.219  -0.342  25.621  0.00  0.00    +0.004 A 
ATOM     13  C   UNL     1      -3.932  -1.011  23.411  0.00  0.00    +0.004 A 
ATOM     15  C   UNL     1      -3.490  -1.624  26.096  0.00  0.00    +0.000 A 
ATOM     16  C   UNL     1      -4.203  -2.294  23.888  0.00  0.00    +0.000 A 
ATOM     18  C   UNL     1      -3.982  -2.601  25.230  0.00  0.00    +0.000 A 
ENDBRANCH   6  11
BRANCH   7   5
ATOM      3  O   UNL     1      -0.295  -0.347  24.704  0.00  0.00    -0.270 OA
ATOM      5  N   UNL     1      -0.696   1.724  23.739  0.00  0.00    -0.305 N 
ATOM     14  C   UNL     1       0.025   0.553  23.931  0.00  0.00    +0.244 C 
ATOM     25  H   UNL     1      -0.310   2.469  23.167  0.00  0.00    +0.149 HD
BRANCH  14  17
ATOM     17  C   UNL     1       1.280   0.424  23.148  0.00  0.00    +0.040 A 
ATOM     19  C   UNL     1       2.484   0.890  23.677  0.00  0.00    +0.058 A 
ATOM     20  C   UNL     1       1.256  -0.163  21.883  0.00  0.00    +0.013 A 
ATOM     21  C   UNL     1       3.663   0.770  22.942  0.00  0.00    +0.121 A 
ATOM     22  C   UNL     1       2.435  -0.283  21.148  0.00  0.00    +0.004 A 
ATOM     23  C   UNL     1       3.639   0.182  21.678  0.00  0.00    +0.045 A 
BRANCH  21   4
ATOM      4  O   UNL     1       4.837   1.224  23.459  0.00  0.00    -0.495 OA
ATOM     24  C   UNL     1       5.752   0.246  23.950  0.00  0.00    +0.277 C 
ENDBRANCH  21   4
ENDBRANCH  14  17
ENDBRANCH   7   5
BRANCH   8   1
ATOM      1  O   UNL     1      -1.509   4.225  25.387  0.00  0.00    -0.387 OA
ATOM     26  H   UNL     1      -2.143   4.720  25.935  0.00  0.00    +0.210 HD
ENDBRANCH   8   1
BRANCH  10   2
ATOM      2  O   UNL     1      -3.966   3.255  26.138  0.00  0.00    -0.389 OA
ATOM     27  H   UNL     1      -4.686   3.838  26.435  0.00  0.00    +0.210 HD
ENDBRANCH  10   2
TORSDOF 6
ENDMDL
MODEL 2
REMARK VINA RESULT:      -3.0      2.101      3.860
REMARK  Name = 75536057
REMARK  7 active torsions:
REMARK  status: ('A' for Active; 'I' for Inactive)
REMARK    1  A    between atoms: O_1  and  C_8
REMARK    2  A    between atoms: O_2  and  C_10
REMARK    3  A    between atoms: O_4  and  C_21
REMARK    4  A    between atoms: O_4  and  C_24
REMARK    5  A    between atoms: N_5  and  C_7
REMARK    6  A    between atoms: C_6  and  C_11
REMARK    7  A    between atoms: C_14  and  C_17
REMARK                            x       y       z     vdW  Elec       q    Type
REMARK                         _______ _______ _______ _____ _____    ______ ____
ROOT
ATOM      6  C   UNL     1      -2.181  -0.201  25.509  0.00  0.00    +0.044 C 
ATOM      7  C   UNL     1      -1.578  -0.988  24.322  0.00  0.00    +0.112 C 
ATOM      8  C   UNL     1      -1.871  -2.446  24.677  0.00  0.00    +0.164 C 
ATOM      9  C   UNL     1      -3.254  -1.131  26.132  0.00  0.00    +0.044 C 
ATOM     10  C   UNL     1      -3.278  -2.385  25.258  0.00  0.00    +0.145 C 
ENDROOT
BRANCH   6  11
ATOM     11  C   UNL     1      -2.695   1.166  25.112  0.00  0.00    -0.042 A 
ATOM     12  C   UNL     1      -1.878   2.288  25.256  0.00  0.00    +0.004 A 
ATOM     13  C   UNL     1      -3.986   1.306  24.603  0.00  0.00    +0.004 A 
ATOM     15  C   UNL     1      -2.351   3.547  24.891  0.00  0.00    +0.000 A 
ATOM     16  C   UNL     1      -4.460   2.566  24.237  0.00  0.00    +0.000 A 
ATOM     18  C   UNL     1      -3.643   3.687  24.382  0.00  0.00    +0.000 A 
ENDBRANCH   6  11
BRANCH   7   5
ATOM      3  O   UNL     1      -0.339   0.831  22.478  0.00  0.00    -0.270 OA
ATOM      5  N   UNL     1      -0.166  -0.743  24.173  0.00  0.00    -0.305 N 
ATOM     14  C   UNL     1       0.343   0.160  23.249  0.00  0.00    +0.244 C 
ATOM     25  H   UNL     1       0.463  -1.341  24.697  0.00  0.00    +0.149 HD
BRANCH  14  17
ATOM     17  C   UNL     1       1.822   0.278  23.201  0.00  0.00    +0.040 A 
ATOM     19  C   UNL     1       2.621  -0.807  23.564  0.00  0.00    +0.058 A 
ATOM     20  C   UNL     1       2.414   1.473  22.792  0.00  0.00    +0.013 A 
ATOM     21  C   UNL     1       4.011  -0.697  23.519  0.00  0.00    +0.121 A 
ATOM     22  C   UNL     1       3.804   1.583  22.747  0.00  0.00    +0.004 A 
ATOM     23  C   UNL     1       4.602   0.498  23.110  0.00  0.00    +0.045 A 
BRANCH  21   4
ATOM      4  O   UNL     1       4.790  -1.755  23.873  0.00  0.00    -0.495 OA
ATOM     24  C   UNL     1       6.102  -1.464  24.350  0.00  0.00    +0.277 C 
ENDBRANCH  21   4
ENDBRANCH  14  17
ENDBRANCH   7   5
BRANCH   8   1
ATOM      1  O   UNL     1      -1.821  -3.293  23.546  0.00  0.00    -0.387 OA
ATOM     26  H   UNL     1      -2.688  -3.727  23.468  0.00  0.00    +0.210 HD
ENDBRANCH   8   1
BRANCH  10   2
ATOM      2  O   UNL     1      -4.247  -2.206  24.230  0.00  0.00    -0.389 OA
ATOM     27  H   UNL     1      -3.867  -2.559  23.407  0.00  0.00    +0.210 HD
ENDBRANCH  10   2
TORSDOF 6
ENDMDL
