MODEL 1
REMARK VINA RESULT:      -4.6      0.000      0.000
REMARK  Name = 45361026
REMARK  9 active torsions:
REMARK  status: ('A' for Active; 'I' for Inactive)
REMARK    1  A    between atoms: N_4  and  C_15
REMARK    2  A    between atoms: N_5  and  C_17
REMARK    3  A    between atoms: N_7  and  C_26
REMARK    4  A    between atoms: C_12  and  C_16
REMARK    5  A    between atoms: C_15  and  C_19
REMARK    6  A    between atoms: C_16  and  C_18
REMARK    7  A    between atoms: C_18  and  C_20
REMARK    8  A    between atoms: C_25  and  C_27
REMARK    9  A    between atoms: C_26  and  C_28
REMARK                            x       y       z     vdW  Elec       q    Type
REMARK                         _______ _______ _______ _____ _____    ______ ____
ROOT
ATOM      2  O   UNL     1      -5.144  -8.211  12.264  0.00  0.00    -0.274 OA
ATOM      4  N   UNL     1      -3.286  -9.938  11.338  0.00  0.00    -0.286 NA
ATOM      5  N   UNL     1      -3.250 -10.207  14.988  0.00  0.00    -0.296 NA
ATOM      6  N   UNL     1      -5.869  -9.577  13.951  0.00  0.00    -0.312 N 
ATOM      8  C   UNL     1      -3.023 -10.723  13.620  0.00  0.00    +0.084 C 
ATOM      9  C   UNL     1      -4.062 -10.376  12.514  0.00  0.00    +0.161 C 
ATOM     10  C   UNL     1      -1.705 -10.244  12.983  0.00  0.00    +0.036 C 
ATOM     11  C   UNL     1      -1.933 -10.456  11.502  0.00  0.00    +0.087 C 
ATOM     12  C   UNL     1      -4.480 -10.729  15.648  0.00  0.00    +0.074 C 
ATOM     13  C   UNL     1      -5.050  -9.272  12.880  0.00  0.00    +0.232 C 
ATOM     14  C   UNL     1      -5.728 -10.781  14.746  0.00  0.00    +0.123 C 
ATOM     17  C   UNL     1      -2.073 -10.444  15.840  0.00  0.00    +0.105 C 
ATOM     32  H   UNL     1      -6.565  -8.893  14.232  0.00  0.00    +0.149 HD
ENDROOT
BRANCH   4  15
ATOM     15  C   UNL     1      -3.881 -10.344  10.071  0.00  0.00    +0.120 C 
BRANCH  15  19
ATOM     19  C   UNL     1      -5.233  -9.717   9.861  0.00  0.00    -0.033 A 
ATOM     21  C   UNL     1      -5.330  -8.406   9.392  0.00  0.00    +0.005 A 
ATOM     22  C   UNL     1      -6.390 -10.446  10.138  0.00  0.00    +0.005 A 
ATOM     23  C   UNL     1      -6.584  -7.825   9.200  0.00  0.00    +0.003 A 
ATOM     24  C   UNL     1      -7.644  -9.865   9.946  0.00  0.00    +0.003 A 
ATOM     25  C   UNL     1      -7.740  -8.554   9.476  0.00  0.00    -0.050 A 
ATOM     27  C   UNL     1      -9.080  -7.932   9.271  0.00  0.00    +0.044 C 
ENDBRANCH  15  19
ENDBRANCH   4  15
BRANCH  12  16
ATOM     16  C   UNL     1      -4.834  -9.874  16.883  0.00  0.00    +0.029 C 
BRANCH  16  18
ATOM     18  C   UNL     1      -5.035 -10.754  18.104  0.00  0.00    +0.097 C 
BRANCH  18  20
ATOM      3  O   UNL     1      -6.610 -10.581  19.935  0.00  0.00    -0.276 OA
ATOM      7  N   UNL     1      -7.372 -10.307  17.760  0.00  0.00    -0.311 N 
ATOM     20  C   UNL     1      -6.404 -10.543  18.725  0.00  0.00    +0.213 C 
ATOM     33  H   UNL     1      -7.106 -10.277  16.780  0.00  0.00    +0.149 HD
BRANCH   7  26
ATOM     26  C   UNL     1      -8.757 -10.076  18.098  0.00  0.00    +0.146 C 
BRANCH  26  28
ATOM      1  S   UNL     1      -9.857  -7.825  16.890  0.00  0.00    -0.100 S 
ATOM     28  C   UNL     1      -9.530  -9.506  16.939  0.00  0.00    +0.007 A 
ATOM     29  C   UNL     1     -10.046 -10.165  15.845  0.00  0.00    +0.013 A 
ATOM     30  C   UNL     1     -10.720  -9.279  14.955  0.00  0.00    +0.008 A 
ATOM     31  C   UNL     1     -10.692  -7.977  15.403  0.00  0.00    +0.045 A 
ENDBRANCH  26  28
ENDBRANCH   7  26
ENDBRANCH  18  20
ENDBRANCH  16  18
ENDBRANCH  12  16
TORSDOF 7
ENDMDL
MODEL 2
REMARK VINA RESULT:      -2.9      1.567      2.120
REMARK  Name = 45361026
REMARK  9 active torsions:
REMARK  status: ('A' for Active; 'I' for Inactive)
REMARK    1  A    between atoms: N_4  and  C_15
REMARK    2  A    between atoms: N_5  and  C_17
REMARK    3  A    between atoms: N_7  and  C_26
REMARK    4  A    between atoms: C_12  and  C_16
REMARK    5  A    between atoms: C_15  and  C_19
REMARK    6  A    between atoms: C_16  and  C_18
REMARK    7  A    between atoms: C_18  and  C_20
REMARK    8  A    between atoms: C_25  and  C_27
REMARK    9  A    between atoms: C_26  and  C_28
REMARK                            x       y       z     vdW  Elec       q    Type
REMARK                         _______ _______ _______ _____ _____    ______ ____
ROOT
ATOM      2  O   UNL     1      -6.133  -8.466  13.149  0.00  0.00    -0.274 OA
ATOM      4  N   UNL     1      -4.161 -10.229  12.604  0.00  0.00    -0.286 NA
ATOM      5  N   UNL     1      -4.495 -10.114  16.246  0.00  0.00    -0.296 NA
ATOM      6  N   UNL     1      -7.003  -9.668  14.891  0.00  0.00    -0.312 N 
ATOM      8  C   UNL     1      -4.120 -10.764  14.971  0.00  0.00    +0.084 C 
ATOM      9  C   UNL     1      -5.046 -10.563  13.736  0.00  0.00    +0.161 C 
ATOM     10  C   UNL     1      -2.752 -10.318  14.421  0.00  0.00    +0.036 C 
ATOM     11  C   UNL     1      -2.823 -10.690  12.956  0.00  0.00    +0.087 C 
ATOM     12  C   UNL     1      -5.776 -10.598  16.831  0.00  0.00    +0.074 C 
ATOM     13  C   UNL     1      -6.084  -9.454  13.881  0.00  0.00    +0.232 C 
ATOM     14  C   UNL     1      -6.925 -10.778  15.820  0.00  0.00    +0.123 C 
ATOM     17  C   UNL     1      -3.407 -10.229  17.232  0.00  0.00    +0.105 C 
ATOM     32  H   UNL     1      -7.736  -8.978  15.026  0.00  0.00    +0.149 HD
ENDROOT
BRANCH   4  15
ATOM     15  C   UNL     1      -4.616 -10.781  11.334  0.00  0.00    +0.120 C 
BRANCH  15  19
ATOM     19  C   UNL     1      -5.383  -9.769  10.526  0.00  0.00    -0.033 A 
ATOM     21  C   UNL     1      -6.725  -9.993  10.219  0.00  0.00    +0.005 A 
ATOM     22  C   UNL     1      -4.750  -8.608  10.080  0.00  0.00    +0.005 A 
ATOM     23  C   UNL     1      -7.435  -9.056   9.468  0.00  0.00    +0.003 A 
ATOM     24  C   UNL     1      -5.459  -7.670   9.329  0.00  0.00    +0.003 A 
ATOM     25  C   UNL     1      -6.803  -7.895   9.024  0.00  0.00    -0.050 A 
ATOM     27  C   UNL     1      -7.561  -6.893   8.220  0.00  0.00    +0.044 C 
ENDBRANCH  15  19
ENDBRANCH   4  15
BRANCH  12  16
ATOM     16  C   UNL     1      -6.269  -9.629  17.927  0.00  0.00    +0.029 C 
BRANCH  16  18
ATOM     18  C   UNL     1      -7.569 -10.124  18.535  0.00  0.00    +0.097 C 
BRANCH  18  20
ATOM      3  O   UNL     1      -9.056  -8.351  17.820  0.00  0.00    -0.276 OA
ATOM      7  N   UNL     1      -9.510 -10.534  17.176  0.00  0.00    -0.311 N 
ATOM     20  C   UNL     1      -8.777  -9.547  17.818  0.00  0.00    +0.213 C 
ATOM     33  H   UNL     1      -9.194 -11.499  17.215  0.00  0.00    +0.149 HD
BRANCH   7  26
ATOM     26  C   UNL     1     -10.706 -10.240  16.423  0.00  0.00    +0.146 C 
BRANCH  26  28
ATOM      1  S   UNL     1     -10.588  -8.323  14.412  0.00  0.00    -0.100 S 
ATOM     28  C   UNL     1     -10.401  -9.926  14.983  0.00  0.00    +0.007 A 
ATOM     29  C   UNL     1      -9.967 -10.781  13.993  0.00  0.00    +0.013 A 
ATOM     30  C   UNL     1      -9.787 -10.109  12.749  0.00  0.00    +0.008 A 
ATOM     31  C   UNL     1     -10.089  -8.769  12.836  0.00  0.00    +0.045 A 
ENDBRANCH  26  28
ENDBRANCH   7  26
ENDBRANCH  18  20
ENDBRANCH  16  18
ENDBRANCH  12  16
TORSDOF 7
ENDMDL
MODEL 3
REMARK VINA RESULT:      -1.4     14.768     16.965
REMARK  Name = 45361026
REMARK  9 active torsions:
REMARK  status: ('A' for Active; 'I' for Inactive)
REMARK    1  A    between atoms: N_4  and  C_15
REMARK    2  A    between atoms: N_5  and  C_17
REMARK    3  A    between atoms: N_7  and  C_26
REMARK    4  A    between atoms: C_12  and  C_16
REMARK    5  A    between atoms: C_15  and  C_19
REMARK    6  A    between atoms: C_16  and  C_18
REMARK    7  A    between atoms: C_18  and  C_20
REMARK    8  A    between atoms: C_25  and  C_27
REMARK    9  A    between atoms: C_26  and  C_28
REMARK                            x       y       z     vdW  Elec       q    Type
REMARK                         _______ _______ _______ _____ _____    ______ ____
ROOT
ATOM      2  O   UNL     1      -0.696   2.032  23.702  0.00  0.00    -0.274 OA
ATOM      4  N   UNL     1       0.309  -0.470  23.844  0.00  0.00    -0.286 NA
ATOM      5  N   UNL     1      -2.997  -0.572  25.411  0.00  0.00    -0.296 NA
ATOM      6  N   UNL     1      -2.843   1.364  23.276  0.00  0.00    -0.312 N 
ATOM      8  C   UNL     1      -1.845  -1.180  24.709  0.00  0.00    +0.084 C 
ATOM      9  C   UNL     1      -1.140  -0.358  23.590  0.00  0.00    +0.161 C 
ATOM     10  C   UNL     1      -0.667  -1.538  25.635  0.00  0.00    +0.036 C 
ATOM     11  C   UNL     1       0.507  -1.645  24.685  0.00  0.00    +0.087 C 
ATOM     12  C   UNL     1      -4.175  -0.299  24.540  0.00  0.00    +0.074 C 
ATOM     13  C   UNL     1      -1.509   1.122  23.546  0.00  0.00    +0.232 C 
ATOM     14  C   UNL     1      -3.839   0.316  23.168  0.00  0.00    +0.123 C 
ATOM     17  C   UNL     1      -3.396  -1.389  26.569  0.00  0.00    +0.105 C 
ATOM     32  H   UNL     1      -3.151   2.329  23.210  0.00  0.00    +0.149 HD
ENDROOT
BRANCH   4  15
ATOM     15  C   UNL     1       1.106  -0.527  22.625  0.00  0.00    +0.120 C 
BRANCH  15  19
ATOM     19  C   UNL     1       2.574  -0.348  22.907  0.00  0.00    -0.033 A 
ATOM     21  C   UNL     1       3.301  -1.381  23.499  0.00  0.00    +0.005 A 
ATOM     22  C   UNL     1       3.206   0.851  22.578  0.00  0.00    +0.005 A 
ATOM     23  C   UNL     1       4.661  -1.213  23.763  0.00  0.00    +0.003 A 
ATOM     24  C   UNL     1       4.566   1.019  22.841  0.00  0.00    +0.003 A 
ATOM     25  C   UNL     1       5.293  -0.015  23.433  0.00  0.00    -0.050 A 
ATOM     27  C   UNL     1       6.747   0.163  23.715  0.00  0.00    +0.044 C 
ENDBRANCH  15  19
ENDBRANCH   4  15
BRANCH  12  16
ATOM     16  C   UNL     1      -5.159   0.657  25.249  0.00  0.00    +0.029 C 
BRANCH  16  18
ATOM     18  C   UNL     1      -5.543   1.805  24.334  0.00  0.00    +0.097 C 
BRANCH  18  20
ATOM      3  O   UNL     1      -4.420   3.884  23.804  0.00  0.00    -0.276 OA
ATOM      7  N   UNL     1      -4.461   3.152  26.007  0.00  0.00    -0.311 N 
ATOM     20  C   UNL     1      -4.753   3.062  24.653  0.00  0.00    +0.213 C 
ATOM     33  H   UNL     1      -4.792   2.430  26.640  0.00  0.00    +0.149 HD
BRANCH   7  26
ATOM     26  C   UNL     1      -3.717   4.257  26.562  0.00  0.00    +0.146 C 
BRANCH  26  28
ATOM      1  S   UNL     1      -1.181   3.141  26.320  0.00  0.00    -0.100 S 
ATOM     28  C   UNL     1      -2.336   4.357  25.972  0.00  0.00    +0.007 A 
ATOM     29  C   UNL     1      -1.825   5.333  25.144  0.00  0.00    +0.013 A 
ATOM     30  C   UNL     1      -0.468   5.080  24.792  0.00  0.00    +0.008 A 
ATOM     31  C   UNL     1       0.006   3.920  25.363  0.00  0.00    +0.045 A 
ENDBRANCH  26  28
ENDBRANCH   7  26
ENDBRANCH  18  20
ENDBRANCH  16  18
ENDBRANCH  12  16
TORSDOF 7
ENDMDL
