MODEL 1
REMARK VINA RESULT:      -2.9      0.000      0.000
REMARK  Name = 45783953
REMARK  3 active torsions:
REMARK  status: ('A' for Active; 'I' for Inactive)
REMARK    1  A    between atoms: C_5  and  C_9
REMARK    2  A    between atoms: C_8  and  C_13
REMARK    3  A    between atoms: C_18  and  C_20
REMARK                            x       y       z     vdW  Elec       q    Type
REMARK                         _______ _______ _______ _____ _____    ______ ____
ROOT
ATOM      1  O   UNL     1      -0.942  -8.584  15.310  0.00  0.00    -0.275 OA
ATOM      3  N   UNL     1      -1.339  -9.645  13.292  0.00  0.00    -0.300 N 
ATOM      8  C   UNL     1      -1.924 -10.236  11.062  0.00  0.00    +0.094 C 
ATOM      9  C   UNL     1      -1.309  -9.568  14.673  0.00  0.00    +0.219 C 
ATOM     10  C   UNL     1      -1.790 -10.781  12.491  0.00  0.00    +0.120 C 
ATOM     11  C   UNL     1      -0.925  -8.536  12.447  0.00  0.00    +0.108 C 
ATOM     12  C   UNL     1      -0.866  -9.122  11.043  0.00  0.00    +0.033 C 
ENDROOT
BRANCH   8  13
ATOM      2  O   UNL     1      -4.343 -10.169  11.401  0.00  0.00    -0.439 OA
ATOM      4  N   UNL     1      -3.598  -8.878   9.692  0.00  0.00    -0.213 NA
ATOM     13  C   UNL     1      -3.293  -9.714  10.661  0.00  0.00    +0.201 A 
ATOM     14  C   UNL     1      -4.964  -8.765   9.792  0.00  0.00    +0.110 A 
ATOM     15  C   UNL     1      -5.423  -9.554  10.837  0.00  0.00    +0.155 A 
ATOM     16  C   UNL     1      -5.890  -8.023   9.044  0.00  0.00    +0.035 A 
ATOM     17  C   UNL     1      -6.756  -9.671  11.213  0.00  0.00    +0.049 A 
ATOM     18  C   UNL     1      -7.245  -8.116   9.395  0.00  0.00    -0.048 A 
ATOM     19  C   UNL     1      -7.666  -8.924  10.458  0.00  0.00    +0.007 A 
ATOM     20  C   UNL     1      -8.256  -7.338   8.618  0.00  0.00    +0.044 C 
ENDBRANCH   8  13
BRANCH   9   5
ATOM      5  C   UNL     1      -1.787 -10.771  15.421  0.00  0.00    +0.075 C 
ATOM      6  C   UNL     1      -2.007 -10.669  16.901  0.00  0.00    +0.013 C 
ATOM      7  C   UNL     1      -3.181 -10.781  15.975  0.00  0.00    +0.013 C 
ENDBRANCH   9   5
TORSDOF 2
ENDMDL
MODEL 2
REMARK VINA RESULT:      -2.5     14.438     16.659
REMARK  Name = 45783953
REMARK  3 active torsions:
REMARK  status: ('A' for Active; 'I' for Inactive)
REMARK    1  A    between atoms: C_5  and  C_9
REMARK    2  A    between atoms: C_8  and  C_13
REMARK    3  A    between atoms: C_18  and  C_20
REMARK                            x       y       z     vdW  Elec       q    Type
REMARK                         _______ _______ _______ _____ _____    ______ ____
ROOT
ATOM      1  O   UNL     1       1.329  -0.484  21.335  0.00  0.00    -0.275 OA
ATOM      3  N   UNL     1       0.385  -0.672  23.441  0.00  0.00    -0.300 N 
ATOM      8  C   UNL     1      -1.059  -0.815  25.326  0.00  0.00    +0.094 C 
ATOM      9  C   UNL     1       1.341  -0.238  22.539  0.00  0.00    +0.219 C 
ATOM     10  C   UNL     1       0.343  -0.385  24.873  0.00  0.00    +0.120 C 
ATOM     11  C   UNL     1      -0.751  -1.483  23.032  0.00  0.00    +0.108 C 
ATOM     12  C   UNL     1      -1.385  -1.944  24.336  0.00  0.00    +0.033 C 
ENDROOT
BRANCH   8  13
ATOM      2  O   UNL     1      -3.418  -0.183  25.212  0.00  0.00    -0.439 OA
ATOM      4  N   UNL     1      -1.986   1.564  25.407  0.00  0.00    -0.213 NA
ATOM     13  C   UNL     1      -2.134   0.260  25.320  0.00  0.00    +0.201 A 
ATOM     14  C   UNL     1      -3.277   2.032  25.351  0.00  0.00    +0.110 A 
ATOM     15  C   UNL     1      -4.156   0.964  25.231  0.00  0.00    +0.155 A 
ATOM     16  C   UNL     1      -3.794   3.334  25.394  0.00  0.00    +0.035 A 
ATOM     17  C   UNL     1      -5.538   1.083  25.150  0.00  0.00    +0.049 A 
ATOM     18  C   UNL     1      -5.185   3.494  25.314  0.00  0.00    -0.048 A 
ATOM     19  C   UNL     1      -6.037   2.389  25.194  0.00  0.00    +0.007 A 
ATOM     20  C   UNL     1      -5.767   4.869  25.356  0.00  0.00    +0.044 C 
ENDBRANCH   8  13
BRANCH   9   5
ATOM      5  C   UNL     1       2.442   0.611  23.088  0.00  0.00    +0.075 C 
ATOM      6  C   UNL     1       3.776  -0.016  23.366  0.00  0.00    +0.013 C 
ATOM      7  C   UNL     1       3.620   0.935  22.216  0.00  0.00    +0.013 C 
ENDBRANCH   9   5
TORSDOF 2
ENDMDL
MODEL 3
REMARK VINA RESULT:      -1.9     14.548     16.947
REMARK  Name = 45783953
REMARK  3 active torsions:
REMARK  status: ('A' for Active; 'I' for Inactive)
REMARK    1  A    between atoms: C_5  and  C_9
REMARK    2  A    between atoms: C_8  and  C_13
REMARK    3  A    between atoms: C_18  and  C_20
REMARK                            x       y       z     vdW  Elec       q    Type
REMARK                         _______ _______ _______ _____ _____    ______ ____
ROOT
ATOM      1  O   UNL     1       3.937   0.900  21.445  0.00  0.00    -0.275 OA
ATOM      3  N   UNL     1       2.275  -0.102  22.707  0.00  0.00    -0.300 N 
ATOM      8  C   UNL     1       0.235  -0.797  23.716  0.00  0.00    +0.094 C 
ATOM      9  C   UNL     1       3.534   0.437  22.509  0.00  0.00    +0.219 C 
ATOM     10  C   UNL     1       1.743  -0.640  23.957  0.00  0.00    +0.120 C 
ATOM     11  C   UNL     1       1.287  -0.169  21.641  0.00  0.00    +0.108 C 
ATOM     12  C   UNL     1       0.175  -1.045  22.201  0.00  0.00    +0.033 C 
ENDROOT
BRANCH   8  13
ATOM      2  O   UNL     1       0.016   1.506  24.507  0.00  0.00    -0.439 OA
ATOM      4  N   UNL     1      -1.955   0.442  24.156  0.00  0.00    -0.213 NA
ATOM     13  C   UNL     1      -0.642   0.375  24.125  0.00  0.00    +0.201 A 
ATOM     14  C   UNL     1      -2.195   1.722  24.597  0.00  0.00    +0.110 A 
ATOM     15  C   UNL     1      -0.990   2.375  24.813  0.00  0.00    +0.155 A 
ATOM     16  C   UNL     1      -3.393   2.409  24.842  0.00  0.00    +0.035 A 
ATOM     17  C   UNL     1      -0.870   3.685  25.261  0.00  0.00    +0.049 A 
ATOM     18  C   UNL     1      -3.311   3.733  25.295  0.00  0.00    -0.048 A 
ATOM     19  C   UNL     1      -2.074   4.356  25.499  0.00  0.00    +0.007 A 
ATOM     20  C   UNL     1      -4.569   4.492  25.565  0.00  0.00    +0.044 C 
ENDBRANCH   8  13
BRANCH   9   5
ATOM      5  C   UNL     1       4.442   0.469  23.696  0.00  0.00    +0.075 C 
ATOM      6  C   UNL     1       5.104  -0.801  24.142  0.00  0.00    +0.013 C 
ATOM      7  C   UNL     1       5.917   0.280  23.494  0.00  0.00    +0.013 C 
ENDBRANCH   9   5
TORSDOF 2
ENDMDL
MODEL 4
REMARK VINA RESULT:      -0.6     15.700     18.084
REMARK  Name = 45783953
REMARK  3 active torsions:
REMARK  status: ('A' for Active; 'I' for Inactive)
REMARK    1  A    between atoms: C_5  and  C_9
REMARK    2  A    between atoms: C_8  and  C_13
REMARK    3  A    between atoms: C_18  and  C_20
REMARK                            x       y       z     vdW  Elec       q    Type
REMARK                         _______ _______ _______ _____ _____    ______ ____
ROOT
ATOM      1  O   UNL     1      -5.464   4.006  24.073  0.00  0.00    -0.275 OA
ATOM      3  N   UNL     1      -3.523   3.745  25.308  0.00  0.00    -0.300 N 
ATOM      8  C   UNL     1      -1.283   3.565  26.091  0.00  0.00    +0.094 C 
ATOM      9  C   UNL     1      -4.831   3.447  24.965  0.00  0.00    +0.219 C 
ATOM     10  C   UNL     1      -2.722   3.092  26.341  0.00  0.00    +0.120 C 
ATOM     11  C   UNL     1      -2.761   4.777  24.623  0.00  0.00    +0.108 C 
ATOM     12  C   UNL     1      -1.504   4.951  25.465  0.00  0.00    +0.033 C 
ENDROOT
BRANCH   8  13
ATOM      2  O   UNL     1      -0.947   1.460  24.894  0.00  0.00    -0.439 OA
ATOM      4  N   UNL     1       0.757   2.941  24.687  0.00  0.00    -0.213 NA
ATOM     13  C   UNL     1      -0.424   2.681  25.201  0.00  0.00    +0.201 A 
ATOM     14  C   UNL     1       1.052   1.800  23.979  0.00  0.00    +0.110 A 
ATOM     15  C   UNL     1       0.010   0.892  24.104  0.00  0.00    +0.155 A 
ATOM     16  C   UNL     1       2.168   1.450  23.207  0.00  0.00    +0.035 A 
ATOM     17  C   UNL     1      -0.018  -0.365  23.513  0.00  0.00    +0.049 A 
ATOM     18  C   UNL     1       2.176   0.188  22.595  0.00  0.00    -0.048 A 
ATOM     19  C   UNL     1       1.103  -0.699  22.746  0.00  0.00    +0.007 A 
ATOM     20  C   UNL     1       3.351  -0.215  21.766  0.00  0.00    +0.044 C 
ENDBRANCH   8  13
BRANCH   9   5
ATOM      5  C   UNL     1      -5.489   2.345  25.731  0.00  0.00    +0.075 C 
ATOM      6  C   UNL     1      -6.589   1.561  25.080  0.00  0.00    +0.013 C 
ATOM      7  C   UNL     1      -5.252   0.923  25.317  0.00  0.00    +0.013 C 
ENDBRANCH   9   5
TORSDOF 2
ENDMDL
MODEL 5
REMARK VINA RESULT:      -0.4     14.937     17.633
REMARK  Name = 45783953
REMARK  3 active torsions:
REMARK  status: ('A' for Active; 'I' for Inactive)
REMARK    1  A    between atoms: C_5  and  C_9
REMARK    2  A    between atoms: C_8  and  C_13
REMARK    3  A    between atoms: C_18  and  C_20
REMARK                            x       y       z     vdW  Elec       q    Type
REMARK                         _______ _______ _______ _____ _____    ______ ____
ROOT
ATOM      1  O   UNL     1      -3.092   5.352  26.807  0.00  0.00    -0.275 OA
ATOM      3  N   UNL     1      -3.906   3.900  25.198  0.00  0.00    -0.300 N 
ATOM      8  C   UNL     1      -4.732   2.044  23.958  0.00  0.00    +0.094 C 
ATOM      9  C   UNL     1      -3.108   4.936  25.651  0.00  0.00    +0.219 C 
ATOM     10  C   UNL     1      -3.942   3.356  23.843  0.00  0.00    +0.120 C 
ATOM     11  C   UNL     1      -4.824   3.191  26.075  0.00  0.00    +0.108 C 
ATOM     12  C   UNL     1      -5.669   2.337  25.141  0.00  0.00    +0.033 C 
ENDROOT
BRANCH   8  13
ATOM      2  O   UNL     1      -4.596  -0.395  24.059  0.00  0.00    -0.439 OA
ATOM      4  N   UNL     1      -2.645   0.674  24.499  0.00  0.00    -0.213 NA
ATOM     13  C   UNL     1      -3.918   0.781  24.190  0.00  0.00    +0.201 A 
ATOM     14  C   UNL     1      -2.454  -0.685  24.583  0.00  0.00    +0.110 A 
ATOM     15  C   UNL     1      -3.647  -1.341  24.314  0.00  0.00    +0.155 A 
ATOM     16  C   UNL     1      -1.313  -1.444  24.879  0.00  0.00    +0.035 A 
ATOM     17  C   UNL     1      -3.807  -2.722  24.314  0.00  0.00    +0.049 A 
ATOM     18  C   UNL     1      -1.437  -2.841  24.889  0.00  0.00    -0.048 A 
ATOM     19  C   UNL     1      -2.660  -3.465  24.611  0.00  0.00    +0.007 A 
ATOM     20  C   UNL     1      -0.240  -3.679  25.201  0.00  0.00    +0.044 C 
ENDBRANCH   8  13
BRANCH   9   5
ATOM      5  C   UNL     1      -2.190   5.560  24.650  0.00  0.00    +0.075 C 
ATOM      6  C   UNL     1      -0.836   6.027  25.095  0.00  0.00    +0.013 C 
ATOM      7  C   UNL     1      -0.961   4.815  24.220  0.00  0.00    +0.013 C 
ENDBRANCH   9   5
TORSDOF 2
ENDMDL
MODEL 6
REMARK VINA RESULT:      -0.2     14.787     17.391
REMARK  Name = 45783953
REMARK  3 active torsions:
REMARK  status: ('A' for Active; 'I' for Inactive)
REMARK    1  A    between atoms: C_5  and  C_9
REMARK    2  A    between atoms: C_8  and  C_13
REMARK    3  A    between atoms: C_18  and  C_20
REMARK                            x       y       z     vdW  Elec       q    Type
REMARK                         _______ _______ _______ _____ _____    ______ ____
ROOT
ATOM      1  O   UNL     1      -1.881   5.480  23.894  0.00  0.00    -0.275 OA
ATOM      3  N   UNL     1      -1.031   3.677  25.070  0.00  0.00    -0.300 N 
ATOM      8  C   UNL     1      -0.205   1.566  25.794  0.00  0.00    +0.094 C 
ATOM      9  C   UNL     1      -1.817   4.807  24.919  0.00  0.00    +0.219 C 
ATOM     10  C   UNL     1      -0.941   2.831  26.258  0.00  0.00    +0.120 C 
ATOM     11  C   UNL     1      -0.189   3.172  23.998  0.00  0.00    +0.108 C 
ATOM     12  C   UNL     1       0.675   2.105  24.655  0.00  0.00    +0.033 C 
ENDROOT
BRANCH   8  13
ATOM      2  O   UNL     1      -2.363   0.723  25.014  0.00  0.00    -0.439 OA
ATOM      4  N   UNL     1      -0.744  -0.855  25.185  0.00  0.00    -0.213 NA
ATOM     13  C   UNL     1      -1.074   0.409  25.327  0.00  0.00    +0.201 A 
ATOM     14  C   UNL     1      -1.908  -1.437  24.741  0.00  0.00    +0.110 A 
ATOM     15  C   UNL     1      -2.901  -0.473  24.635  0.00  0.00    +0.155 A 
ATOM     16  C   UNL     1      -2.212  -2.764  24.406  0.00  0.00    +0.035 A 
ATOM     17  C   UNL     1      -4.201  -0.721  24.214  0.00  0.00    +0.049 A 
ATOM     18  C   UNL     1      -3.516  -3.053  23.976  0.00  0.00    -0.048 A 
ATOM     19  C   UNL     1      -4.488  -2.049  23.883  0.00  0.00    +0.007 A 
ATOM     20  C   UNL     1      -3.872  -4.457  23.611  0.00  0.00    +0.044 C 
ENDBRANCH   8  13
BRANCH   9   5
ATOM      5  C   UNL     1      -2.655   5.201  26.091  0.00  0.00    +0.075 C 
ATOM      6  C   UNL     1      -4.141   5.012  26.021  0.00  0.00    +0.013 C 
ATOM      7  C   UNL     1      -3.315   4.132  26.911  0.00  0.00    +0.013 C 
ENDBRANCH   9   5
TORSDOF 2
ENDMDL
MODEL 7
REMARK VINA RESULT:      -0.1     15.584     17.791
REMARK  Name = 45783953
REMARK  3 active torsions:
REMARK  status: ('A' for Active; 'I' for Inactive)
REMARK    1  A    between atoms: C_5  and  C_9
REMARK    2  A    between atoms: C_8  and  C_13
REMARK    3  A    between atoms: C_18  and  C_20
REMARK                            x       y       z     vdW  Elec       q    Type
REMARK                         _______ _______ _______ _____ _____    ______ ____
ROOT
ATOM      1  O   UNL     1      -2.054   3.126  26.730  0.00  0.00    -0.275 OA
ATOM      3  N   UNL     1      -1.639   1.785  24.890  0.00  0.00    -0.300 N 
ATOM      8  C   UNL     1      -0.871   0.145  23.345  0.00  0.00    +0.094 C 
ATOM      9  C   UNL     1      -1.887   2.992  25.521  0.00  0.00    +0.219 C 
ATOM     10  C   UNL     1      -1.410   1.578  23.462  0.00  0.00    +0.120 C 
ATOM     11  C   UNL     1      -1.551   0.533  25.625  0.00  0.00    +0.108 C 
ATOM     12  C   UNL     1      -1.531  -0.545  24.550  0.00  0.00    +0.033 C 
ENDROOT
BRANCH   8  13
ATOM      2  O   UNL     1       1.359   1.075  22.979  0.00  0.00    -0.439 OA
ATOM      4  N   UNL     1       1.345  -1.069  23.718  0.00  0.00    -0.213 NA
ATOM     13  C   UNL     1       0.640  -0.015  23.369  0.00  0.00    +0.201 A 
ATOM     14  C   UNL     1       2.643  -0.651  23.547  0.00  0.00    +0.110 A 
ATOM     15  C   UNL     1       2.655   0.661  23.094  0.00  0.00    +0.155 A 
ATOM     16  C   UNL     1       3.864  -1.310  23.748  0.00  0.00    +0.035 A 
ATOM     17  C   UNL     1       3.804   1.392  22.819  0.00  0.00    +0.049 A 
ATOM     18  C   UNL     1       5.046  -0.604  23.480  0.00  0.00    -0.048 A 
ATOM     19  C   UNL     1       5.013   0.720  23.026  0.00  0.00    +0.007 A 
ATOM     20  C   UNL     1       6.363  -1.278  23.685  0.00  0.00    +0.044 C 
ENDBRANCH   8  13
BRANCH   9   5
ATOM      5  C   UNL     1      -1.926   4.206  24.650  0.00  0.00    +0.075 C 
ATOM      6  C   UNL     1      -1.964   5.562  25.291  0.00  0.00    +0.013 C 
ATOM      7  C   UNL     1      -0.723   5.099  24.587  0.00  0.00    +0.013 C 
ENDBRANCH   9   5
TORSDOF 2
ENDMDL
MODEL 8
REMARK VINA RESULT:       0.6     14.713     16.570
REMARK  Name = 45783953
REMARK  3 active torsions:
REMARK  status: ('A' for Active; 'I' for Inactive)
REMARK    1  A    between atoms: C_5  and  C_9
REMARK    2  A    between atoms: C_8  and  C_13
REMARK    3  A    between atoms: C_18  and  C_20
REMARK                            x       y       z     vdW  Elec       q    Type
REMARK                         _______ _______ _______ _____ _____    ______ ____
ROOT
ATOM      1  O   UNL     1      -4.724  -1.188  23.148  0.00  0.00    -0.275 OA
ATOM      3  N   UNL     1      -3.281   0.272  24.219  0.00  0.00    -0.300 N 
ATOM      8  C   UNL     1      -1.584   1.830  24.814  0.00  0.00    +0.094 C 
ATOM      9  C   UNL     1      -4.040  -0.882  24.121  0.00  0.00    +0.219 C 
ATOM     10  C   UNL     1      -2.434   0.666  25.342  0.00  0.00    +0.120 C 
ATOM     11  C   UNL     1      -3.225   1.253  23.146  0.00  0.00    +0.108 C 
ATOM     12  C   UNL     1      -2.511   2.450  23.756  0.00  0.00    +0.033 C 
ENDROOT
BRANCH   8  13
ATOM      2  O   UNL     1      -0.249   0.595  23.181  0.00  0.00    -0.439 OA
ATOM      4  N   UNL     1       0.960   1.891  24.595  0.00  0.00    -0.213 NA
ATOM     13  C   UNL     1      -0.229   1.469  24.227  0.00  0.00    +0.201 A 
ATOM     14  C   UNL     1       1.807   1.246  23.726  0.00  0.00    +0.110 A 
ATOM     15  C   UNL     1       1.070   0.452  22.859  0.00  0.00    +0.155 A 
ATOM     16  C   UNL     1       3.203   1.274  23.600  0.00  0.00    +0.035 A 
ATOM     17  C   UNL     1       1.614  -0.336  21.853  0.00  0.00    +0.049 A 
ATOM     18  C   UNL     1       3.789   0.491  22.595  0.00  0.00    -0.048 A 
ATOM     19  C   UNL     1       3.008  -0.297  21.740  0.00  0.00    +0.007 A 
ATOM     20  C   UNL     1       5.274   0.498  22.435  0.00  0.00    +0.044 C 
ENDBRANCH   8  13
BRANCH   9   5
ATOM      5  C   UNL     1      -3.987  -1.818  25.285  0.00  0.00    +0.075 C 
ATOM      6  C   UNL     1      -3.612  -3.251  25.052  0.00  0.00    +0.013 C 
ATOM      7  C   UNL     1      -2.657  -2.330  25.752  0.00  0.00    +0.013 C 
ENDBRANCH   9   5
TORSDOF 2
ENDMDL
