MODEL 1
REMARK VINA RESULT:      -4.1      0.000      0.000
REMARK  Name = 11884093
REMARK  9 active torsions:
REMARK  status: ('A' for Active; 'I' for Inactive)
REMARK    1  A    between atoms: O_3  and  C_11
REMARK    2  A    between atoms: O_3  and  C_15
REMARK    3  A    between atoms: N_6  and  C_10
REMARK    4  A    between atoms: N_7  and  C_19
REMARK    5  A    between atoms: C_14  and  C_16
REMARK    6  A    between atoms: C_22  and  C_31
REMARK    7  A    between atoms: C_25  and  C_26
REMARK    8  A    between atoms: C_26  and  C_29
REMARK    9  A    between atoms: C_26  and  C_30
REMARK                            x       y       z     vdW  Elec       q    Type
REMARK                         _______ _______ _______ _____ _____    ______ ____
ROOT
ATOM      1  O   UNL     1      14.435  -9.960  29.651  0.00  0.00    -0.368 OA
ATOM      2  O   UNL     1      16.087  -8.708  31.910  0.00  0.00    -0.368 OA
ATOM      8  C   UNL     1      14.699  -8.562  31.547  0.00  0.00    +0.173 C 
ATOM      9  C   UNL     1      14.635  -8.589  30.033  0.00  0.00    +0.192 C 
ATOM     10  C   UNL     1      13.922  -9.787  31.965  0.00  0.00    +0.130 C 
ATOM     11  C   UNL     1      16.005  -8.092  29.640  0.00  0.00    +0.235 C 
ATOM     12  C   UNL     1      14.203 -10.752  30.826  0.00  0.00    +0.185 C 
ATOM     13  C   UNL     1      16.883  -8.692  30.715  0.00  0.00    +0.207 C 
ENDROOT
BRANCH  10   6
ATOM      4  O   UNL     1      12.726  -7.233  32.509  0.00  0.00    -0.270 OA
ATOM      6  N   UNL     1      12.512  -9.501  32.073  0.00  0.00    -0.304 N 
ATOM     14  C   UNL     1      12.027  -8.228  32.341  0.00  0.00    +0.244 C 
ATOM     32  H   UNL     1      11.880 -10.294  32.060  0.00  0.00    +0.149 HD
BRANCH  14  16
ATOM     16  C   UNL     1      10.550  -8.102  32.448  0.00  0.00    +0.037 A 
ATOM     17  C   UNL     1      10.009  -6.875  32.771  0.00  0.00    +0.013 A 
ATOM     18  C   UNL     1       9.768  -9.216  32.221  0.00  0.00    +0.013 A 
ATOM     20  C   UNL     1       8.622  -6.757  32.873  0.00  0.00    +0.004 A 
ATOM     21  C   UNL     1       8.382  -9.098  32.323  0.00  0.00    +0.004 A 
ATOM     22  C   UNL     1       7.809  -7.868  32.649  0.00  0.00    -0.050 A 
ATOM     31  C   UNL     1       6.327  -7.742  32.756  0.00  0.00    +0.044 C 
ENDBRANCH  14  16
ENDBRANCH  10   6
BRANCH  11   3
ATOM      3  O   UNL     1      16.400  -8.495  28.348  0.00  0.00    -0.442 OA
BRANCH   3  15
ATOM      5  O   UNL     1      15.259  -7.834  26.479  0.00  0.00    -0.226 OA
ATOM      7  N   UNL     1      16.980  -6.535  27.392  0.00  0.00    -0.251 N 
ATOM     15  C   UNL     1      16.131  -7.623  27.313  0.00  0.00    +0.405 C 
ATOM     33  H   UNL     1      17.644  -6.540  28.164  0.00  0.00    +0.158 HD
BRANCH   7  19
ATOM     19  C   UNL     1      17.042  -5.415  26.533  0.00  0.00    +0.036 A 
ATOM     23  C   UNL     1      16.802  -5.583  25.179  0.00  0.00    +0.024 A 
ATOM     24  C   UNL     1      17.343  -4.169  27.063  0.00  0.00    +0.024 A 
ATOM     25  C   UNL     1      17.165  -3.217  24.850  0.00  0.00    -0.045 A 
ATOM     27  C   UNL     1      16.864  -4.477  24.332  0.00  0.00    +0.006 A 
ATOM     28  C   UNL     1      17.405  -3.064  26.215  0.00  0.00    +0.006 A 
BRANCH  25  26
ATOM     26  C   UNL     1      17.232  -2.035  23.944  0.00  0.00    +0.013 C 
ATOM     29  C   UNL     1      16.209  -2.114  22.795  0.00  0.00    +0.012 C 
ATOM     30  C   UNL     1      17.065  -0.702  24.699  0.00  0.00    +0.012 C 
ENDBRANCH  25  26
ENDBRANCH   7  19
ENDBRANCH   3  15
ENDBRANCH  11   3
TORSDOF 6
ENDMDL
