MODEL 1
REMARK VINA RESULT:      -6.5      0.000      0.000
REMARK  Name = 56775542
REMARK  8 active torsions:
REMARK  status: ('A' for Active; 'I' for Inactive)
REMARK    1  A    between atoms: O_4  and  C_18
REMARK    2  A    between atoms: O_4  and  C_22
REMARK    3  A    between atoms: N_5  and  C_7
REMARK    4  A    between atoms: N_5  and  C_11
REMARK    5  A    between atoms: C_7  and  C_10
REMARK    6  A    between atoms: C_10  and  C_12
REMARK    7  A    between atoms: C_11  and  C_13
REMARK    8  A    between atoms: C_15  and  C_18
REMARK                            x       y       z     vdW  Elec       q    Type
REMARK                         _______ _______ _______ _____ _____    ______ ____
ROOT
ATOM      2  O   UNL     1      -2.030   4.799  25.125  0.00  0.00    -0.376 OA
ATOM      7  C   UNL     1      -1.721   2.687  25.114  0.00  0.00    +0.072 C 
ATOM      8  C   UNL     1      -1.246   3.895  24.314  0.00  0.00    +0.184 C 
ATOM      9  C   UNL     1      -2.443   3.711  25.982  0.00  0.00    +0.184 C 
ENDROOT
BRANCH   7   5
ATOM      5  N   UNL     1      -2.713   1.956  24.321  0.00  0.00    -0.302 NA
ATOM     23  H   UNL     1      -2.326   1.310  23.634  0.00  0.00    +0.123 HD
BRANCH   5  11
ATOM     11  C   UNL     1      -3.613   1.238  25.224  0.00  0.00    +0.120 C 
BRANCH  11  13
ATOM      1  F   UNL     1      -2.382  -0.706  26.861  0.00  0.00    -0.205 F 
ATOM     13  C   UNL     1      -3.668  -0.223  24.927  0.00  0.00    +0.002 A 
ATOM     16  C   UNL     1      -3.040  -1.133  25.775  0.00  0.00    +0.128 A 
ATOM     17  C   UNL     1      -4.352  -0.677  23.798  0.00  0.00    +0.008 A 
ATOM     19  C   UNL     1      -3.093  -2.498  25.495  0.00  0.00    +0.038 A 
ATOM     20  C   UNL     1      -4.405  -2.042  23.518  0.00  0.00    +0.000 A 
ATOM     21  C   UNL     1      -3.776  -2.953  24.366  0.00  0.00    +0.003 A 
ENDBRANCH  11  13
ENDBRANCH   5  11
ENDBRANCH   7   5
BRANCH   7  10
ATOM     10  C   UNL     1      -0.702   1.789  25.748  0.00  0.00    +0.085 C 
BRANCH  10  12
ATOM      3  O   UNL     1       0.552  -0.615  23.360  0.00  0.00    -0.357 OA
ATOM      6  N   UNL     1      -0.356  -0.198  24.326  0.00  0.00    -0.083 NA
ATOM     12  C   UNL     1       0.063   1.016  24.694  0.00  0.00    +0.086 A 
ATOM     14  C   UNL     1       1.218   1.414  24.001  0.00  0.00    +0.073 A 
ATOM     15  C   UNL     1       1.485   0.355  23.176  0.00  0.00    +0.163 A 
BRANCH  15  18
ATOM     18  C   UNL     1       2.529   0.078  22.182  0.00  0.00    +0.236 C 
BRANCH  18   4
ATOM      4  O   UNL     1       3.652   0.941  22.388  0.00  0.00    -0.375 OA
ATOM     22  C   UNL     1       4.656   0.301  23.158  0.00  0.00    +0.194 C 
ENDBRANCH  18   4
ENDBRANCH  15  18
ENDBRANCH  10  12
ENDBRANCH   7  10
TORSDOF 7
ENDMDL
MODEL 2
REMARK VINA RESULT:      -6.2      2.589      4.986
REMARK  Name = 56775542
REMARK  8 active torsions:
REMARK  status: ('A' for Active; 'I' for Inactive)
REMARK    1  A    between atoms: O_4  and  C_18
REMARK    2  A    between atoms: O_4  and  C_22
REMARK    3  A    between atoms: N_5  and  C_7
REMARK    4  A    between atoms: N_5  and  C_11
REMARK    5  A    between atoms: C_7  and  C_10
REMARK    6  A    between atoms: C_10  and  C_12
REMARK    7  A    between atoms: C_11  and  C_13
REMARK    8  A    between atoms: C_15  and  C_18
REMARK                            x       y       z     vdW  Elec       q    Type
REMARK                         _______ _______ _______ _____ _____    ______ ____
ROOT
ATOM      2  O   UNL     1      -3.132  -3.349  24.713  0.00  0.00    -0.376 OA
ATOM      7  C   UNL     1      -2.345  -1.373  24.901  0.00  0.00    +0.072 C 
ATOM      8  C   UNL     1      -3.553  -2.154  25.409  0.00  0.00    +0.184 C 
ATOM      9  C   UNL     1      -1.919  -2.696  24.275  0.00  0.00    +0.184 C 
ENDROOT
BRANCH   7   5
ATOM      5  N   UNL     1      -2.784  -0.467  23.836  0.00  0.00    -0.302 NA
ATOM     23  H   UNL     1      -2.623  -0.805  22.887  0.00  0.00    +0.123 HD
BRANCH   5  11
ATOM     11  C   UNL     1      -4.203  -0.163  24.019  0.00  0.00    +0.120 C 
BRANCH  11  13
ATOM      1  F   UNL     1      -3.051   2.045  22.686  0.00  0.00    -0.205 F 
ATOM     13  C   UNL     1      -4.430   1.248  24.445  0.00  0.00    +0.002 A 
ATOM     16  C   UNL     1      -3.833   2.295  23.745  0.00  0.00    +0.128 A 
ATOM     17  C   UNL     1      -5.243   1.520  25.546  0.00  0.00    +0.008 A 
ATOM     19  C   UNL     1      -4.048   3.614  24.145  0.00  0.00    +0.038 A 
ATOM     20  C   UNL     1      -5.458   2.839  25.947  0.00  0.00    +0.000 A 
ATOM     21  C   UNL     1      -4.860   3.886  25.246  0.00  0.00    +0.003 A 
ENDBRANCH  11  13
ENDBRANCH   5  11
ENDBRANCH   7   5
BRANCH   7  10
ATOM     10  C   UNL     1      -1.436  -0.714  25.892  0.00  0.00    +0.085 C 
BRANCH  10  12
ATOM      3  O   UNL     1       0.201   1.915  24.030  0.00  0.00    -0.357 OA
ATOM      6  N   UNL     1      -0.106   0.580  24.264  0.00  0.00    -0.083 NA
ATOM     12  C   UNL     1      -0.896   0.590  25.341  0.00  0.00    +0.086 A 
ATOM     14  C   UNL     1      -1.121   1.890  25.825  0.00  0.00    +0.073 A 
ATOM     15  C   UNL     1      -0.410   2.685  24.967  0.00  0.00    +0.163 A 
BRANCH  15  18
ATOM     18  C   UNL     1      -0.191   4.133  24.868  0.00  0.00    +0.236 C 
BRANCH  18   4
ATOM      4  O   UNL     1      -1.254   4.841  25.512  0.00  0.00    -0.375 OA
ATOM     22  C   UNL     1      -1.609   6.005  24.785  0.00  0.00    +0.194 C 
ENDBRANCH  18   4
ENDBRANCH  15  18
ENDBRANCH  10  12
ENDBRANCH   7  10
TORSDOF 7
ENDMDL
MODEL 3
REMARK VINA RESULT:      -6.2      2.076      2.772
REMARK  Name = 56775542
REMARK  8 active torsions:
REMARK  status: ('A' for Active; 'I' for Inactive)
REMARK    1  A    between atoms: O_4  and  C_18
REMARK    2  A    between atoms: O_4  and  C_22
REMARK    3  A    between atoms: N_5  and  C_7
REMARK    4  A    between atoms: N_5  and  C_11
REMARK    5  A    between atoms: C_7  and  C_10
REMARK    6  A    between atoms: C_10  and  C_12
REMARK    7  A    between atoms: C_11  and  C_13
REMARK    8  A    between atoms: C_15  and  C_18
REMARK                            x       y       z     vdW  Elec       q    Type
REMARK                         _______ _______ _______ _____ _____    ______ ____
ROOT
ATOM      2  O   UNL     1      -5.919   3.619  25.736  0.00  0.00    -0.376 OA
ATOM      7  C   UNL     1      -4.255   2.615  24.851  0.00  0.00    +0.072 C 
ATOM      8  C   UNL     1      -5.775   2.491  24.843  0.00  0.00    +0.184 C 
ATOM      9  C   UNL     1      -4.493   3.851  25.712  0.00  0.00    +0.184 C 
ENDROOT
BRANCH   7   5
ATOM      5  N   UNL     1      -3.699   1.553  25.694  0.00  0.00    -0.302 NA
ATOM     23  H   UNL     1      -3.778   1.712  26.698  0.00  0.00    +0.123 HD
BRANCH   5  11
ATOM     11  C   UNL     1      -4.334   0.282  25.343  0.00  0.00    +0.120 C 
BRANCH  11  13
ATOM      1  F   UNL     1      -4.889  -1.988  23.756  0.00  0.00    -0.205 F 
ATOM     13  C   UNL     1      -3.337  -0.802  25.104  0.00  0.00    +0.002 A 
ATOM     16  C   UNL     1      -3.673  -1.898  24.310  0.00  0.00    +0.128 A 
ATOM     17  C   UNL     1      -2.068  -0.717  25.676  0.00  0.00    +0.008 A 
ATOM     19  C   UNL     1      -2.738  -2.910  24.088  0.00  0.00    +0.038 A 
ATOM     20  C   UNL     1      -1.133  -1.729  25.455  0.00  0.00    +0.000 A 
ATOM     21  C   UNL     1      -1.469  -2.826  24.660  0.00  0.00    +0.003 A 
ENDBRANCH  11  13
ENDBRANCH   5  11
ENDBRANCH   7   5
BRANCH   7  10
ATOM     10  C   UNL     1      -3.531   2.768  23.549  0.00  0.00    +0.085 C 
BRANCH  10  12
ATOM      3  O   UNL     1      -0.062   2.241  24.412  0.00  0.00    -0.357 OA
ATOM      6  N   UNL     1      -1.278   2.900  24.549  0.00  0.00    -0.083 NA
ATOM     12  C   UNL     1      -2.095   2.304  23.675  0.00  0.00    +0.086 A 
ATOM     14  C   UNL     1      -1.456   1.273  22.966  0.00  0.00    +0.073 A 
ATOM     15  C   UNL     1      -0.181   1.274  23.466  0.00  0.00    +0.163 A 
BRANCH  15  18
ATOM     18  C   UNL     1       1.019   0.475  23.193  0.00  0.00    +0.236 C 
BRANCH  18   4
ATOM      4  O   UNL     1       2.197   1.262  23.392  0.00  0.00    -0.375 OA
ATOM     22  C   UNL     1       3.321   0.672  22.761  0.00  0.00    +0.194 C 
ENDBRANCH  18   4
ENDBRANCH  15  18
ENDBRANCH  10  12
ENDBRANCH   7  10
TORSDOF 7
ENDMDL
MODEL 4
REMARK VINA RESULT:      -6.1      2.183      3.980
REMARK  Name = 56775542
REMARK  8 active torsions:
REMARK  status: ('A' for Active; 'I' for Inactive)
REMARK    1  A    between atoms: O_4  and  C_18
REMARK    2  A    between atoms: O_4  and  C_22
REMARK    3  A    between atoms: N_5  and  C_7
REMARK    4  A    between atoms: N_5  and  C_11
REMARK    5  A    between atoms: C_7  and  C_10
REMARK    6  A    between atoms: C_10  and  C_12
REMARK    7  A    between atoms: C_11  and  C_13
REMARK    8  A    between atoms: C_15  and  C_18
REMARK                            x       y       z     vdW  Elec       q    Type
REMARK                         _______ _______ _______ _____ _____    ______ ____
ROOT
ATOM      2  O   UNL     1      -3.029  -2.921  24.995  0.00  0.00    -0.376 OA
ATOM      7  C   UNL     1      -2.506  -0.869  24.729  0.00  0.00    +0.072 C 
ATOM      8  C   UNL     1      -3.547  -1.670  25.503  0.00  0.00    +0.184 C 
ATOM      9  C   UNL     1      -1.959  -2.230  24.313  0.00  0.00    +0.184 C 
ENDROOT
BRANCH   7   5
ATOM      5  N   UNL     1      -3.154  -0.246  23.572  0.00  0.00    -0.302 NA
ATOM     23  H   UNL     1      -4.160  -0.399  23.506  0.00  0.00    +0.123 HD
BRANCH   5  11
ATOM     11  C   UNL     1      -2.870   1.189  23.577  0.00  0.00    +0.120 C 
BRANCH  11  13
ATOM      1  F   UNL     1      -2.404   3.811  24.520  0.00  0.00    -0.205 F 
ATOM     13  C   UNL     1      -3.886   1.965  24.346  0.00  0.00    +0.002 A 
ATOM     16  C   UNL     1      -3.595   3.256  24.784  0.00  0.00    +0.128 A 
ATOM     17  C   UNL     1      -5.129   1.397  24.624  0.00  0.00    +0.008 A 
ATOM     19  C   UNL     1      -4.547   3.980  25.502  0.00  0.00    +0.038 A 
ATOM     20  C   UNL     1      -6.081   2.121  25.343  0.00  0.00    +0.000 A 
ATOM     21  C   UNL     1      -5.790   3.412  25.782  0.00  0.00    +0.003 A 
ENDBRANCH  11  13
ENDBRANCH   5  11
ENDBRANCH   7   5
BRANCH   7  10
ATOM     10  C   UNL     1      -1.612   0.074  25.475  0.00  0.00    +0.085 C 
BRANCH  10  12
ATOM      3  O   UNL     1       1.251   1.584  23.869  0.00  0.00    -0.357 OA
ATOM      6  N   UNL     1       0.148   1.628  24.713  0.00  0.00    -0.083 NA
ATOM     12  C   UNL     1      -0.376   0.400  24.662  0.00  0.00    +0.086 A 
ATOM     14  C   UNL     1       0.346  -0.454  23.811  0.00  0.00    +0.073 A 
ATOM     15  C   UNL     1       1.358   0.338  23.337  0.00  0.00    +0.163 A 
BRANCH  15  18
ATOM     18  C   UNL     1       2.478   0.114  22.415  0.00  0.00    +0.236 C 
BRANCH  18   4
ATOM      4  O   UNL     1       3.545   1.023  22.700  0.00  0.00    -0.375 OA
ATOM     22  C   UNL     1       4.714   0.330  23.104  0.00  0.00    +0.194 C 
ENDBRANCH  18   4
ENDBRANCH  15  18
ENDBRANCH  10  12
ENDBRANCH   7  10
TORSDOF 7
ENDMDL
MODEL 5
REMARK VINA RESULT:      -6.0      2.449      3.974
REMARK  Name = 56775542
REMARK  8 active torsions:
REMARK  status: ('A' for Active; 'I' for Inactive)
REMARK    1  A    between atoms: O_4  and  C_18
REMARK    2  A    between atoms: O_4  and  C_22
REMARK    3  A    between atoms: N_5  and  C_7
REMARK    4  A    between atoms: N_5  and  C_11
REMARK    5  A    between atoms: C_7  and  C_10
REMARK    6  A    between atoms: C_10  and  C_12
REMARK    7  A    between atoms: C_11  and  C_13
REMARK    8  A    between atoms: C_15  and  C_18
REMARK                            x       y       z     vdW  Elec       q    Type
REMARK                         _______ _______ _______ _____ _____    ______ ____
ROOT
ATOM      2  O   UNL     1      -0.977   5.537  24.973  0.00  0.00    -0.376 OA
ATOM      7  C   UNL     1      -1.100   3.406  24.991  0.00  0.00    +0.072 C 
ATOM      8  C   UNL     1      -0.133   4.470  24.483  0.00  0.00    +0.184 C 
ATOM      9  C   UNL     1      -1.886   4.581  25.562  0.00  0.00    +0.184 C 
ENDROOT
BRANCH   7   5
ATOM      5  N   UNL     1      -1.837   2.854  23.851  0.00  0.00    -0.302 NA
ATOM     23  H   UNL     1      -1.938   1.840  23.852  0.00  0.00    +0.123 HD
BRANCH   5  11
ATOM     11  C   UNL     1      -3.156   3.484  23.783  0.00  0.00    +0.120 C 
BRANCH  11  13
ATOM      1  F   UNL     1      -3.579   0.721  23.377  0.00  0.00    -0.205 F 
ATOM     13  C   UNL     1      -4.194   2.707  24.521  0.00  0.00    +0.002 A 
ATOM     16  C   UNL     1      -4.354   1.344  24.275  0.00  0.00    +0.128 A 
ATOM     17  C   UNL     1      -5.005   3.347  25.459  0.00  0.00    +0.008 A 
ATOM     19  C   UNL     1      -5.325   0.620  24.966  0.00  0.00    +0.038 A 
ATOM     20  C   UNL     1      -5.977   2.623  26.150  0.00  0.00    +0.000 A 
ATOM     21  C   UNL     1      -6.136   1.259  25.904  0.00  0.00    +0.003 A 
ENDBRANCH  11  13
ENDBRANCH   5  11
ENDBRANCH   7   5
BRANCH   7  10
ATOM     10  C   UNL     1      -0.593   2.350  25.926  0.00  0.00    +0.085 C 
BRANCH  10  12
ATOM      3  O   UNL     1      -0.355  -0.637  23.907  0.00  0.00    -0.357 OA
ATOM      6  N   UNL     1      -0.014   0.677  24.206  0.00  0.00    -0.083 NA
ATOM     12  C   UNL     1      -0.718   0.976  25.302  0.00  0.00    +0.086 A 
ATOM     14  C   UNL     1      -1.511  -0.100  25.736  0.00  0.00    +0.073 A 
ATOM     15  C   UNL     1      -1.248  -1.088  24.825  0.00  0.00    +0.163 A 
BRANCH  15  18
ATOM     18  C   UNL     1      -1.717  -2.468  24.659  0.00  0.00    +0.236 C 
BRANCH  18   4
ATOM      4  O   UNL     1      -3.080  -2.583  25.078  0.00  0.00    -0.375 OA
ATOM     22  C   UNL     1      -3.964  -2.515  23.972  0.00  0.00    +0.194 C 
ENDBRANCH  18   4
ENDBRANCH  15  18
ENDBRANCH  10  12
ENDBRANCH   7  10
TORSDOF 7
ENDMDL
MODEL 6
REMARK VINA RESULT:      -5.9      2.345      3.935
REMARK  Name = 56775542
REMARK  8 active torsions:
REMARK  status: ('A' for Active; 'I' for Inactive)
REMARK    1  A    between atoms: O_4  and  C_18
REMARK    2  A    between atoms: O_4  and  C_22
REMARK    3  A    between atoms: N_5  and  C_7
REMARK    4  A    between atoms: N_5  and  C_11
REMARK    5  A    between atoms: C_7  and  C_10
REMARK    6  A    between atoms: C_10  and  C_12
REMARK    7  A    between atoms: C_11  and  C_13
REMARK    8  A    between atoms: C_15  and  C_18
REMARK                            x       y       z     vdW  Elec       q    Type
REMARK                         _______ _______ _______ _____ _____    ______ ____
ROOT
ATOM      2  O   UNL     1      -1.343  -2.452  25.244  0.00  0.00    -0.376 OA
ATOM      7  C   UNL     1      -1.135  -0.487  24.435  0.00  0.00    +0.072 C 
ATOM      8  C   UNL     1      -0.252  -1.507  25.146  0.00  0.00    +0.184 C 
ATOM      9  C   UNL     1      -2.207  -1.570  24.492  0.00  0.00    +0.184 C 
ENDROOT
BRANCH   7   5
ATOM      5  N   UNL     1      -1.486   0.574  25.383  0.00  0.00    -0.302 NA
ATOM     23  H   UNL     1      -0.759   0.809  26.057  0.00  0.00    +0.123 HD
BRANCH   5  11
ATOM     11  C   UNL     1      -1.878   1.772  24.639  0.00  0.00    +0.120 C 
BRANCH  11  13
ATOM      1  F   UNL     1      -2.491   4.331  25.665  0.00  0.00    -0.205 F 
ATOM     13  C   UNL     1      -3.270   2.205  24.953  0.00  0.00    +0.002 A 
ATOM     16  C   UNL     1      -3.508   3.483  25.458  0.00  0.00    +0.128 A 
ATOM     17  C   UNL     1      -4.335   1.329  24.741  0.00  0.00    +0.008 A 
ATOM     19  C   UNL     1      -4.810   3.885  25.750  0.00  0.00    +0.038 A 
ATOM     20  C   UNL     1      -5.638   1.732  25.034  0.00  0.00    +0.000 A 
ATOM     21  C   UNL     1      -5.876   3.010  25.539  0.00  0.00    +0.003 A 
ENDBRANCH  11  13
ENDBRANCH   5  11
ENDBRANCH   7   5
BRANCH   7  10
ATOM     10  C   UNL     1      -0.708   0.040  23.100  0.00  0.00    +0.085 C 
BRANCH  10  12
ATOM      3  O   UNL     1       2.519   1.568  23.656  0.00  0.00    -0.357 OA
ATOM      6  N   UNL     1       1.146   1.485  23.855  0.00  0.00    -0.083 NA
ATOM     12  C   UNL     1       0.754   0.438  23.122  0.00  0.00    +0.086 A 
ATOM     14  C   UNL     1       1.824  -0.171  22.446  0.00  0.00    +0.073 A 
ATOM     15  C   UNL     1       2.911   0.577  22.814  0.00  0.00    +0.163 A 
BRANCH  15  18
ATOM     18  C   UNL     1       4.342   0.518  22.493  0.00  0.00    +0.236 C 
BRANCH  18   4
ATOM      4  O   UNL     1       5.124   0.706  23.676  0.00  0.00    -0.375 OA
ATOM     22  C   UNL     1       5.481  -0.536  24.258  0.00  0.00    +0.194 C 
ENDBRANCH  18   4
ENDBRANCH  15  18
ENDBRANCH  10  12
ENDBRANCH   7  10
TORSDOF 7
ENDMDL
MODEL 7
REMARK VINA RESULT:      -5.5      1.947      5.174
REMARK  Name = 56775542
REMARK  8 active torsions:
REMARK  status: ('A' for Active; 'I' for Inactive)
REMARK    1  A    between atoms: O_4  and  C_18
REMARK    2  A    between atoms: O_4  and  C_22
REMARK    3  A    between atoms: N_5  and  C_7
REMARK    4  A    between atoms: N_5  and  C_11
REMARK    5  A    between atoms: C_7  and  C_10
REMARK    6  A    between atoms: C_10  and  C_12
REMARK    7  A    between atoms: C_11  and  C_13
REMARK    8  A    between atoms: C_15  and  C_18
REMARK                            x       y       z     vdW  Elec       q    Type
REMARK                         _______ _______ _______ _____ _____    ______ ____
ROOT
ATOM      2  O   UNL     1       1.990   0.489  23.224  0.00  0.00    -0.376 OA
ATOM      7  C   UNL     1      -0.035   0.922  23.741  0.00  0.00    +0.072 C 
ATOM      8  C   UNL     1       1.301   1.656  23.728  0.00  0.00    +0.184 C 
ATOM      9  C   UNL     1       0.743  -0.233  23.122  0.00  0.00    +0.184 C 
ENDROOT
BRANCH   7   5
ATOM      5  N   UNL     1      -0.371   0.578  25.125  0.00  0.00    -0.302 NA
ATOM     23  H   UNL     1      -1.186   1.058  25.504  0.00  0.00    +0.123 HD
BRANCH   5  11
ATOM     11  C   UNL     1      -0.558  -0.870  25.226  0.00  0.00    +0.120 C 
BRANCH  11  13
ATOM      1  F   UNL     1      -1.149  -3.197  23.738  0.00  0.00    -0.205 F 
ATOM     13  C   UNL     1      -1.951  -1.287  24.896  0.00  0.00    +0.002 A 
ATOM     16  C   UNL     1      -2.177  -2.447  24.157  0.00  0.00    +0.128 A 
ATOM     17  C   UNL     1      -3.029  -0.514  25.328  0.00  0.00    +0.008 A 
ATOM     19  C   UNL     1      -3.481  -2.835  23.850  0.00  0.00    +0.038 A 
ATOM     20  C   UNL     1      -4.333  -0.901  25.020  0.00  0.00    +0.000 A 
ATOM     21  C   UNL     1      -4.559  -2.062  24.281  0.00  0.00    +0.003 A 
ENDBRANCH  11  13
ENDBRANCH   5  11
ENDBRANCH   7   5
BRANCH   7  10
ATOM     10  C   UNL     1      -1.192   1.504  22.986  0.00  0.00    +0.085 C 
BRANCH  10  12
ATOM      3  O   UNL     1      -2.505   3.819  25.431  0.00  0.00    -0.357 OA
ATOM      6  N   UNL     1      -1.456   3.178  24.781  0.00  0.00    -0.083 NA
ATOM     12  C   UNL     1      -2.042   2.371  23.891  0.00  0.00    +0.086 A 
ATOM     14  C   UNL     1      -3.444   2.460  23.933  0.00  0.00    +0.073 A 
ATOM     15  C   UNL     1      -3.684   3.382  24.917  0.00  0.00    +0.163 A 
BRANCH  15  18
ATOM     18  C   UNL     1      -4.903   3.960  25.493  0.00  0.00    +0.236 C 
BRANCH  18   4
ATOM      4  O   UNL     1      -5.549   3.011  26.345  0.00  0.00    -0.375 OA
ATOM     22  C   UNL     1      -6.247   2.036  25.590  0.00  0.00    +0.194 C 
ENDBRANCH  18   4
ENDBRANCH  15  18
ENDBRANCH  10  12
ENDBRANCH   7  10
TORSDOF 7
ENDMDL
MODEL 8
REMARK VINA RESULT:      -4.7      1.579      4.938
REMARK  Name = 56775542
REMARK  8 active torsions:
REMARK  status: ('A' for Active; 'I' for Inactive)
REMARK    1  A    between atoms: O_4  and  C_18
REMARK    2  A    between atoms: O_4  and  C_22
REMARK    3  A    between atoms: N_5  and  C_7
REMARK    4  A    between atoms: N_5  and  C_11
REMARK    5  A    between atoms: C_7  and  C_10
REMARK    6  A    between atoms: C_10  and  C_12
REMARK    7  A    between atoms: C_11  and  C_13
REMARK    8  A    between atoms: C_15  and  C_18
REMARK                            x       y       z     vdW  Elec       q    Type
REMARK                         _______ _______ _______ _____ _____    ______ ____
ROOT
ATOM      2  O   UNL     1       0.759  -0.262  22.106  0.00  0.00    -0.376 OA
ATOM      7  C   UNL     1       0.442   0.651  24.010  0.00  0.00    +0.072 C 
ATOM      8  C   UNL     1       1.611   0.062  23.229  0.00  0.00    +0.184 C 
ATOM      9  C   UNL     1      -0.371   0.366  22.752  0.00  0.00    +0.184 C 
ENDROOT
BRANCH   7   5
ATOM      5  N   UNL     1       0.046  -0.297  25.053  0.00  0.00    -0.302 NA
ATOM     23  H   UNL     1       0.661  -0.328  25.866  0.00  0.00    +0.123 HD
BRANCH   5  11
ATOM     11  C   UNL     1      -1.322   0.002  25.480  0.00  0.00    +0.120 C 
BRANCH  11  13
ATOM      1  F   UNL     1      -3.866   0.771  24.524  0.00  0.00    -0.205 F 
ATOM     13  C   UNL     1      -2.312  -0.973  24.939  0.00  0.00    +0.002 A 
ATOM     16  C   UNL     1      -3.552  -0.531  24.482  0.00  0.00    +0.128 A 
ATOM     17  C   UNL     1      -1.994  -2.331  24.890  0.00  0.00    +0.008 A 
ATOM     19  C   UNL     1      -4.475  -1.445  23.976  0.00  0.00    +0.038 A 
ATOM     20  C   UNL     1      -2.917  -3.246  24.385  0.00  0.00    +0.000 A 
ATOM     21  C   UNL     1      -4.159  -2.803  23.927  0.00  0.00    +0.003 A 
ENDBRANCH  11  13
ENDBRANCH   5  11
ENDBRANCH   7   5
BRANCH   7  10
ATOM     10  C   UNL     1       0.536   2.062  24.507  0.00  0.00    +0.085 C 
BRANCH  10  12
ATOM      3  O   UNL     1      -2.802   3.384  24.103  0.00  0.00    -0.357 OA
ATOM      6  N   UNL     1      -1.635   2.814  23.607  0.00  0.00    -0.083 NA
ATOM     12  C   UNL     1      -0.842   2.666  24.672  0.00  0.00    +0.086 A 
ATOM     14  C   UNL     1      -1.449   3.120  25.855  0.00  0.00    +0.073 A 
ATOM     15  C   UNL     1      -2.679   3.561  25.443  0.00  0.00    +0.163 A 
BRANCH  15  18
ATOM     18  C   UNL     1      -3.829   4.157  26.134  0.00  0.00    +0.236 C 
BRANCH  18   4
ATOM      4  O   UNL     1      -5.031   3.910  25.400  0.00  0.00    -0.375 OA
ATOM     22  C   UNL     1      -5.732   2.794  25.923  0.00  0.00    +0.194 C 
ENDBRANCH  18   4
ENDBRANCH  15  18
ENDBRANCH  10  12
ENDBRANCH   7  10
TORSDOF 7
ENDMDL
MODEL 9
REMARK VINA RESULT:      -4.5      2.421      5.159
REMARK  Name = 56775542
REMARK  8 active torsions:
REMARK  status: ('A' for Active; 'I' for Inactive)
REMARK    1  A    between atoms: O_4  and  C_18
REMARK    2  A    between atoms: O_4  and  C_22
REMARK    3  A    between atoms: N_5  and  C_7
REMARK    4  A    between atoms: N_5  and  C_11
REMARK    5  A    between atoms: C_7  and  C_10
REMARK    6  A    between atoms: C_10  and  C_12
REMARK    7  A    between atoms: C_11  and  C_13
REMARK    8  A    between atoms: C_15  and  C_18
REMARK                            x       y       z     vdW  Elec       q    Type
REMARK                         _______ _______ _______ _____ _____    ______ ____
ROOT
ATOM      2  O   UNL     1       1.736   0.652  22.879  0.00  0.00    -0.376 OA
ATOM      7  C   UNL     1      -0.042   0.872  24.040  0.00  0.00    +0.072 C 
ATOM      8  C   UNL     1       0.596  -0.194  23.155  0.00  0.00    +0.184 C 
ATOM      9  C   UNL     1       1.233   1.666  23.778  0.00  0.00    +0.184 C 
ENDROOT
BRANCH   7   5
ATOM      5  N   UNL     1      -1.145   1.496  23.305  0.00  0.00    -0.302 NA
ATOM     23  H   UNL     1      -1.992   0.932  23.234  0.00  0.00    +0.123 HD
BRANCH   5  11
ATOM     11  C   UNL     1      -1.461   2.787  23.920  0.00  0.00    +0.120 C 
BRANCH  11  13
ATOM      1  F   UNL     1      -2.248   4.618  25.921  0.00  0.00    -0.205 F 
ATOM     13  C   UNL     1      -2.840   2.822  24.487  0.00  0.00    +0.002 A 
ATOM     16  C   UNL     1      -3.166   3.751  25.475  0.00  0.00    +0.128 A 
ATOM     17  C   UNL     1      -3.804   1.924  24.028  0.00  0.00    +0.008 A 
ATOM     19  C   UNL     1      -4.457   3.782  26.003  0.00  0.00    +0.038 A 
ATOM     20  C   UNL     1      -5.094   1.954  24.557  0.00  0.00    +0.000 A 
ATOM     21  C   UNL     1      -5.421   2.884  25.545  0.00  0.00    +0.003 A 
ENDBRANCH  11  13
ENDBRANCH   5  11
ENDBRANCH   7   5
BRANCH   7  10
ATOM     10  C   UNL     1      -0.403   0.524  25.452  0.00  0.00    +0.085 C 
BRANCH  10  12
ATOM      3  O   UNL     1      -3.393  -1.403  26.084  0.00  0.00    -0.357 OA
ATOM      6  N   UNL     1      -2.564  -0.309  26.303  0.00  0.00    -0.083 NA
ATOM     12  C   UNL     1      -1.524  -0.493  25.485  0.00  0.00    +0.086 A 
ATOM     14  C   UNL     1      -1.640  -1.674  24.732  0.00  0.00    +0.073 A 
ATOM     15  C   UNL     1      -2.831  -2.209  25.146  0.00  0.00    +0.163 A 
BRANCH  15  18
ATOM     18  C   UNL     1      -3.579  -3.421  24.791  0.00  0.00    +0.236 C 
BRANCH  18   4
ATOM      4  O   UNL     1      -4.443  -3.164  23.681  0.00  0.00    -0.375 OA
ATOM     22  C   UNL     1      -4.612  -1.771  23.475  0.00  0.00    +0.194 C 
ENDBRANCH  18   4
ENDBRANCH  15  18
ENDBRANCH  10  12
ENDBRANCH   7  10
TORSDOF 7
ENDMDL
MODEL 10
REMARK VINA RESULT:      -4.4      2.890      6.518
REMARK  Name = 56775542
REMARK  8 active torsions:
REMARK  status: ('A' for Active; 'I' for Inactive)
REMARK    1  A    between atoms: O_4  and  C_18
REMARK    2  A    between atoms: O_4  and  C_22
REMARK    3  A    between atoms: N_5  and  C_7
REMARK    4  A    between atoms: N_5  and  C_11
REMARK    5  A    between atoms: C_7  and  C_10
REMARK    6  A    between atoms: C_10  and  C_12
REMARK    7  A    between atoms: C_11  and  C_13
REMARK    8  A    between atoms: C_15  and  C_18
REMARK                            x       y       z     vdW  Elec       q    Type
REMARK                         _______ _______ _______ _____ _____    ______ ____
ROOT
ATOM      2  O   UNL     1       0.228  -2.177  25.113  0.00  0.00    -0.376 OA
ATOM      7  C   UNL     1      -0.747  -0.327  24.678  0.00  0.00    +0.072 C 
ATOM      8  C   UNL     1       0.514  -1.063  24.237  0.00  0.00    +0.184 C 
ATOM      9  C   UNL     1      -1.029  -1.578  25.503  0.00  0.00    +0.184 C 
ENDROOT
BRANCH   7   5
ATOM      5  N   UNL     1      -0.366   0.760  25.583  0.00  0.00    -0.302 NA
ATOM     23  H   UNL     1       0.358   0.524  26.262  0.00  0.00    +0.123 HD
BRANCH   5  11
ATOM     11  C   UNL     1       0.055   1.917  24.793  0.00  0.00    +0.120 C 
BRANCH  11  13
ATOM      1  F   UNL     1       0.390   4.357  23.409  0.00  0.00    -0.205 F 
ATOM     13  C   UNL     1      -0.770   3.127  25.074  0.00  0.00    +0.002 A 
ATOM     16  C   UNL     1      -0.556   4.303  24.356  0.00  0.00    +0.128 A 
ATOM     17  C   UNL     1      -1.759   3.080  26.058  0.00  0.00    +0.008 A 
ATOM     19  C   UNL     1      -1.330   5.432  24.621  0.00  0.00    +0.038 A 
ATOM     20  C   UNL     1      -2.533   4.210  26.323  0.00  0.00    +0.000 A 
ATOM     21  C   UNL     1      -2.318   5.387  25.605  0.00  0.00    +0.003 A 
ENDBRANCH  11  13
ENDBRANCH   5  11
ENDBRANCH   7   5
BRANCH   7  10
ATOM     10  C   UNL     1      -1.742   0.096  23.641  0.00  0.00    +0.085 C 
BRANCH  10  12
ATOM      3  O   UNL     1      -4.777   0.237  25.597  0.00  0.00    -0.357 OA
ATOM      6  N   UNL     1      -3.573  -0.355  25.233  0.00  0.00    -0.083 NA
ATOM     12  C   UNL     1      -3.072   0.437  24.281  0.00  0.00    +0.086 A 
ATOM     14  C   UNL     1      -3.907   1.533  24.005  0.00  0.00    +0.073 A 
ATOM     15  C   UNL     1      -4.964   1.360  24.858  0.00  0.00    +0.163 A 
BRANCH  15  18
ATOM     18  C   UNL     1      -6.196   2.115  25.115  0.00  0.00    +0.236 C 
BRANCH  18   4
ATOM      4  O   UNL     1      -5.974   3.098  26.130  0.00  0.00    -0.375 OA
ATOM     22  C   UNL     1      -5.954   4.405  25.582  0.00  0.00    +0.194 C 
ENDBRANCH  18   4
ENDBRANCH  15  18
ENDBRANCH  10  12
ENDBRANCH   7  10
TORSDOF 7
ENDMDL
