MODEL 1
REMARK VINA RESULT:      -0.1      0.000      0.000
REMARK  Name = 75368427
REMARK  3 active torsions:
REMARK  status: ('A' for Active; 'I' for Inactive)
REMARK    1  A    between atoms: N_4  and  C_13
REMARK    2  A    between atoms: C_13  and  C_15
REMARK    3  A    between atoms: C_14  and  C_16
REMARK                            x       y       z     vdW  Elec       q    Type
REMARK                         _______ _______ _______ _____ _____    ______ ____
ROOT
ATOM      1  O   UNL     1       1.005  -2.091  23.887  0.00  0.00    -0.252 OA
ATOM      2  O   UNL     1      -5.100   0.319  26.282  0.00  0.00    -0.270 OA
ATOM      3  N   UNL     1      -0.733  -0.584  24.365  0.00  0.00    -0.278 N 
ATOM      4  N   UNL     1       0.879   0.064  22.939  0.00  0.00    -0.279 N 
ATOM      5  N   UNL     1      -3.346   0.287  24.739  0.00  0.00    -0.294 N 
ATOM      7  C   UNL     1      -1.043   0.804  24.069  0.00  0.00    +0.112 C 
ATOM      8  C   UNL     1      -0.074   1.161  22.944  0.00  0.00    +0.133 C 
ATOM      9  C   UNL     1      -2.518   0.950  23.711  0.00  0.00    +0.132 C 
ATOM     10  C   UNL     1      -1.566  -1.328  25.293  0.00  0.00    +0.128 C 
ATOM     11  C   UNL     1      -3.040  -1.136  24.945  0.00  0.00    +0.127 C 
ATOM     12  C   UNL     1       0.455  -1.007  23.751  0.00  0.00    +0.306 C 
ATOM     14  C   UNL     1      -4.382   0.884  25.457  0.00  0.00    +0.247 C 
ENDROOT
BRANCH  14  16
ATOM     16  C   UNL     1      -4.647   2.311  25.233  0.00  0.00    +0.037 A 
ATOM     19  C   UNL     1      -5.774   2.908  25.798  0.00  0.00    +0.013 A 
ATOM     20  C   UNL     1      -3.771   3.069  24.457  0.00  0.00    +0.013 A 
ATOM     22  C   UNL     1      -6.025   4.265  25.586  0.00  0.00    +0.001 A 
ATOM     23  C   UNL     1      -4.021   4.425  24.245  0.00  0.00    +0.001 A 
ATOM     25  C   UNL     1      -5.148   5.023  24.809  0.00  0.00    +0.000 A 
ENDBRANCH  14  16
BRANCH   4  13
ATOM     13  C   UNL     1       2.042   0.064  22.081  0.00  0.00    +0.146 C 
BRANCH  13  15
ATOM      6  N   UNL     1       4.775  -1.526  24.157  0.00  0.00    -0.263 NA
ATOM     15  C   UNL     1       3.315  -0.099  22.861  0.00  0.00    -0.012 A 
ATOM     17  C   UNL     1       4.198   0.963  23.020  0.00  0.00    +0.008 A 
ATOM     18  C   UNL     1       3.646  -1.312  23.443  0.00  0.00    +0.115 A 
ATOM     21  C   UNL     1       5.370   0.782  23.748  0.00  0.00    +0.020 A 
ATOM     24  C   UNL     1       5.608  -0.470  24.291  0.00  0.00    +0.111 A 
ENDBRANCH  13  15
ENDBRANCH   4  13
TORSDOF 3
ENDMDL
MODEL 2
REMARK VINA RESULT:       0.2      1.435      1.991
REMARK  Name = 75368427
REMARK  3 active torsions:
REMARK  status: ('A' for Active; 'I' for Inactive)
REMARK    1  A    between atoms: N_4  and  C_13
REMARK    2  A    between atoms: C_13  and  C_15
REMARK    3  A    between atoms: C_14  and  C_16
REMARK                            x       y       z     vdW  Elec       q    Type
REMARK                         _______ _______ _______ _____ _____    ______ ____
ROOT
ATOM      1  O   UNL     1      -0.243  -2.630  24.629  0.00  0.00    -0.252 OA
ATOM      2  O   UNL     1      -4.811   2.490  25.950  0.00  0.00    -0.270 OA
ATOM      3  N   UNL     1      -1.155  -0.467  24.745  0.00  0.00    -0.278 N 
ATOM      4  N   UNL     1       0.704  -0.776  23.521  0.00  0.00    -0.279 N 
ATOM      5  N   UNL     1      -3.120   1.498  24.679  0.00  0.00    -0.294 N 
ATOM      7  C   UNL     1      -0.778   0.866  24.309  0.00  0.00    +0.112 C 
ATOM      8  C   UNL     1       0.351   0.617  23.312  0.00  0.00    +0.133 C 
ATOM      9  C   UNL     1      -1.989   1.595  23.736  0.00  0.00    +0.132 C 
ATOM     10  C   UNL     1      -2.319  -0.647  25.596  0.00  0.00    +0.128 C 
ATOM     11  C   UNL     1      -3.508   0.124  25.028  0.00  0.00    +0.127 C 
ATOM     12  C   UNL     1      -0.232  -1.441  24.339  0.00  0.00    +0.306 C 
ATOM     14  C   UNL     1      -3.840   2.574  25.199  0.00  0.00    +0.247 C 
ENDROOT
BRANCH  14  16
ATOM     16  C   UNL     1      -3.413   3.932  24.837  0.00  0.00    +0.037 A 
ATOM     19  C   UNL     1      -2.299   4.500  25.455  0.00  0.00    +0.013 A 
ATOM     20  C   UNL     1      -4.119   4.652  23.875  0.00  0.00    +0.013 A 
ATOM     22  C   UNL     1      -1.892   5.790  25.111  0.00  0.00    +0.001 A 
ATOM     23  C   UNL     1      -3.714   5.941  23.530  0.00  0.00    +0.001 A 
ATOM     25  C   UNL     1      -2.599   6.510  24.148  0.00  0.00    +0.000 A 
ENDBRANCH  14  16
BRANCH   4  13
ATOM     13  C   UNL     1       1.819  -1.394  22.839  0.00  0.00    +0.146 C 
BRANCH  13  15
ATOM      6  N   UNL     1       4.507   1.259  23.049  0.00  0.00    -0.263 NA
ATOM     15  C   UNL     1       3.120  -0.718  23.166  0.00  0.00    -0.012 A 
ATOM     17  C   UNL     1       4.122  -1.390  23.857  0.00  0.00    +0.008 A 
ATOM     18  C   UNL     1       3.359   0.593  22.787  0.00  0.00    +0.115 A 
ATOM     21  C   UNL     1       5.317  -0.738  24.144  0.00  0.00    +0.020 A 
ATOM     24  C   UNL     1       5.458   0.573  23.722  0.00  0.00    +0.111 A 
ENDBRANCH  13  15
ENDBRANCH   4  13
TORSDOF 3
ENDMDL
MODEL 3
REMARK VINA RESULT:       0.2      2.017      2.787
REMARK  Name = 75368427
REMARK  3 active torsions:
REMARK  status: ('A' for Active; 'I' for Inactive)
REMARK    1  A    between atoms: N_4  and  C_13
REMARK    2  A    between atoms: C_13  and  C_15
REMARK    3  A    between atoms: C_14  and  C_16
REMARK                            x       y       z     vdW  Elec       q    Type
REMARK                         _______ _______ _______ _____ _____    ______ ____
ROOT
ATOM      1  O   UNL     1       2.491   2.027  23.470  0.00  0.00    -0.252 OA
ATOM      2  O   UNL     1      -3.306   4.692  26.319  0.00  0.00    -0.270 OA
ATOM      3  N   UNL     1       0.221   2.267  24.029  0.00  0.00    -0.278 N 
ATOM      4  N   UNL     1       0.890   0.339  23.088  0.00  0.00    -0.279 N 
ATOM      5  N   UNL     1      -1.983   2.906  25.597  0.00  0.00    -0.294 N 
ATOM      7  C   UNL     1      -1.004   1.514  23.830  0.00  0.00    +0.112 C 
ATOM      8  C   UNL     1      -0.516   0.134  23.394  0.00  0.00    +0.133 C 
ATOM      9  C   UNL     1      -1.841   1.522  25.106  0.00  0.00    +0.132 C 
ATOM     10  C   UNL     1       0.165   3.601  24.602  0.00  0.00    +0.128 C 
ATOM     11  C   UNL     1      -0.711   3.597  25.853  0.00  0.00    +0.127 C 
ATOM     12  C   UNL     1       1.345   1.601  23.520  0.00  0.00    +0.306 C 
ATOM     14  C   UNL     1      -3.189   3.553  25.867  0.00  0.00    +0.247 C 
ENDROOT
BRANCH  14  16
ATOM     16  C   UNL     1      -4.438   2.834  25.585  0.00  0.00    +0.037 A 
ATOM     19  C   UNL     1      -4.664   2.299  24.317  0.00  0.00    +0.013 A 
ATOM     20  C   UNL     1      -5.398   2.686  26.586  0.00  0.00    +0.013 A 
ATOM     22  C   UNL     1      -5.850   1.615  24.050  0.00  0.00    +0.001 A 
ATOM     23  C   UNL     1      -6.584   2.002  26.320  0.00  0.00    +0.001 A 
ATOM     25  C   UNL     1      -6.810   1.466  25.051  0.00  0.00    +0.000 A 
ENDBRANCH  14  16
BRANCH   4  13
ATOM     13  C   UNL     1       1.712  -0.710  22.530  0.00  0.00    +0.146 C 
BRANCH  13  15
ATOM      6  N   UNL     1       4.998  -1.469  24.243  0.00  0.00    -0.263 NA
ATOM     15  C   UNL     1       3.145  -0.589  22.962  0.00  0.00    -0.012 A 
ATOM     17  C   UNL     1       3.942   0.459  22.517  0.00  0.00    +0.008 A 
ATOM     18  C   UNL     1       3.716  -1.520  23.816  0.00  0.00    +0.115 A 
ATOM     21  C   UNL     1       5.266   0.545  22.934  0.00  0.00    +0.020 A 
ATOM     24  C   UNL     1       5.740  -0.435  23.789  0.00  0.00    +0.111 A 
ENDBRANCH  13  15
ENDBRANCH   4  13
TORSDOF 3
ENDMDL
MODEL 4
REMARK VINA RESULT:       1.9      2.238      3.948
REMARK  Name = 75368427
REMARK  3 active torsions:
REMARK  status: ('A' for Active; 'I' for Inactive)
REMARK    1  A    between atoms: N_4  and  C_13
REMARK    2  A    between atoms: C_13  and  C_15
REMARK    3  A    between atoms: C_14  and  C_16
REMARK                            x       y       z     vdW  Elec       q    Type
REMARK                         _______ _______ _______ _____ _____    ______ ____
ROOT
ATOM      1  O   UNL     1       0.948   4.241  23.510  0.00  0.00    -0.252 OA
ATOM      2  O   UNL     1      -4.898   0.949  25.464  0.00  0.00    -0.270 OA
ATOM      3  N   UNL     1      -0.594   2.498  23.839  0.00  0.00    -0.278 N 
ATOM      4  N   UNL     1       1.506   1.966  23.238  0.00  0.00    -0.279 N 
ATOM      5  N   UNL     1      -2.589   1.042  25.113  0.00  0.00    -0.294 N 
ATOM      7  C   UNL     1      -0.622   1.059  23.648  0.00  0.00    +0.112 C 
ATOM      8  C   UNL     1       0.847   0.690  23.452  0.00  0.00    +0.133 C 
ATOM      9  C   UNL     1      -1.299   0.382  24.835  0.00  0.00    +0.132 C 
ATOM     10  C   UNL     1      -1.809   3.202  24.212  0.00  0.00    +0.128 C 
ATOM     11  C   UNL     1      -2.493   2.485  25.374  0.00  0.00    +0.127 C 
ATOM     12  C   UNL     1       0.655   3.053  23.524  0.00  0.00    +0.306 C 
ATOM     14  C   UNL     1      -3.828   0.406  25.188  0.00  0.00    +0.247 C 
ENDROOT
BRANCH  14  16
ATOM     16  C   UNL     1      -3.885  -1.035  24.908  0.00  0.00    +0.037 A 
ATOM     19  C   UNL     1      -4.518  -1.497  23.754  0.00  0.00    +0.013 A 
ATOM     20  C   UNL     1      -3.303  -1.940  25.794  0.00  0.00    +0.013 A 
ATOM     22  C   UNL     1      -4.569  -2.865  23.486  0.00  0.00    +0.001 A 
ATOM     23  C   UNL     1      -3.354  -3.309  25.528  0.00  0.00    +0.001 A 
ATOM     25  C   UNL     1      -3.988  -3.771  24.373  0.00  0.00    +0.000 A 
ENDBRANCH  14  16
BRANCH   4  13
ATOM     13  C   UNL     1       2.909   2.057  22.904  0.00  0.00    +0.146 C 
BRANCH  13  15
ATOM      6  N   UNL     1       3.627  -1.606  23.512  0.00  0.00    -0.263 NA
ATOM     15  C   UNL     1       3.650   0.797  23.248  0.00  0.00    -0.012 A 
ATOM     17  C   UNL     1       4.992   0.831  23.609  0.00  0.00    +0.008 A 
ATOM     18  C   UNL     1       3.018  -0.436  23.214  0.00  0.00    +0.115 A 
ATOM     21  C   UNL     1       5.652  -0.352  23.923  0.00  0.00    +0.020 A 
ATOM     24  C   UNL     1       4.931  -1.533  23.860  0.00  0.00    +0.111 A 
ENDBRANCH  13  15
ENDBRANCH   4  13
TORSDOF 3
ENDMDL
MODEL 5
REMARK VINA RESULT:       2.1      2.135      8.315
REMARK  Name = 75368427
REMARK  3 active torsions:
REMARK  status: ('A' for Active; 'I' for Inactive)
REMARK    1  A    between atoms: N_4  and  C_13
REMARK    2  A    between atoms: C_13  and  C_15
REMARK    3  A    between atoms: C_14  and  C_16
REMARK                            x       y       z     vdW  Elec       q    Type
REMARK                         _______ _______ _______ _____ _____    ______ ____
ROOT
ATOM      1  O   UNL     1      -3.425   2.831  23.481  0.00  0.00    -0.252 OA
ATOM      2  O   UNL     1       1.955  -0.912  21.059  0.00  0.00    -0.270 OA
ATOM      3  N   UNL     1      -1.242   1.985  23.284  0.00  0.00    -0.278 N 
ATOM      4  N   UNL     1      -1.768   3.161  25.126  0.00  0.00    -0.279 N 
ATOM      5  N   UNL     1       0.751   0.114  22.779  0.00  0.00    -0.294 N 
ATOM      7  C   UNL     1       0.008   2.099  24.015  0.00  0.00    +0.112 C 
ATOM      8  C   UNL     1      -0.407   2.707  25.353  0.00  0.00    +0.133 C 
ATOM      9  C   UNL     1       0.686   0.736  24.116  0.00  0.00    +0.132 C 
ATOM     10  C   UNL     1      -1.271   1.297  22.005  0.00  0.00    +0.128 C 
ATOM     11  C   UNL     1      -0.551  -0.045  22.116  0.00  0.00    +0.127 C 
ATOM     12  C   UNL     1      -2.288   2.681  23.907  0.00  0.00    +0.306 C 
ATOM     14  C   UNL     1       1.907  -0.353  22.155  0.00  0.00    +0.247 C 
ENDROOT
BRANCH  14  16
ATOM     16  C   UNL     1       3.191  -0.163  22.844  0.00  0.00    +0.037 A 
ATOM     19  C   UNL     1       3.770  -1.221  23.544  0.00  0.00    +0.013 A 
ATOM     20  C   UNL     1       3.830   1.075  22.795  0.00  0.00    +0.013 A 
ATOM     22  C   UNL     1       4.990  -1.040  24.197  0.00  0.00    +0.001 A 
ATOM     23  C   UNL     1       5.050   1.257  23.447  0.00  0.00    +0.001 A 
ATOM     25  C   UNL     1       5.630   0.199  24.149  0.00  0.00    +0.000 A 
ENDBRANCH  14  16
BRANCH   4  13
ATOM     13  C   UNL     1      -2.504   3.902  26.125  0.00  0.00    +0.146 C 
BRANCH  13  15
ATOM      6  N   UNL     1      -6.204   4.570  25.705  0.00  0.00    -0.263 NA
ATOM     15  C   UNL     1      -3.984   3.665  26.022  0.00  0.00    -0.012 A 
ATOM     17  C   UNL     1      -4.514   2.385  26.141  0.00  0.00    +0.008 A 
ATOM     18  C   UNL     1      -4.863   4.714  25.806  0.00  0.00    +0.115 A 
ATOM     21  C   UNL     1      -5.888   2.197  26.042  0.00  0.00    +0.020 A 
ATOM     24  C   UNL     1      -6.682   3.311  25.826  0.00  0.00    +0.111 A 
ENDBRANCH  13  15
ENDBRANCH   4  13
TORSDOF 3
ENDMDL
MODEL 6
REMARK VINA RESULT:       3.5      1.588      2.041
REMARK  Name = 75368427
REMARK  3 active torsions:
REMARK  status: ('A' for Active; 'I' for Inactive)
REMARK    1  A    between atoms: N_4  and  C_13
REMARK    2  A    between atoms: C_13  and  C_15
REMARK    3  A    between atoms: C_14  and  C_16
REMARK                            x       y       z     vdW  Elec       q    Type
REMARK                         _______ _______ _______ _____ _____    ______ ____
ROOT
ATOM      1  O   UNL     1      -1.063  -3.463  24.401  0.00  0.00    -0.252 OA
ATOM      2  O   UNL     1      -6.159   1.295  24.861  0.00  0.00    -0.270 OA
ATOM      3  N   UNL     1      -2.124  -1.401  24.785  0.00  0.00    -0.278 N 
ATOM      4  N   UNL     1       0.122  -1.445  24.698  0.00  0.00    -0.279 N 
ATOM      5  N   UNL     1      -3.960   0.651  24.407  0.00  0.00    -0.294 N 
ATOM      7  C   UNL     1      -1.718  -0.048  25.119  0.00  0.00    +0.112 C 
ATOM      8  C   UNL     1      -0.216  -0.041  24.847  0.00  0.00    +0.133 C 
ATOM      9  C   UNL     1      -2.520   0.960  24.302  0.00  0.00    +0.132 C 
ATOM     10  C   UNL     1      -3.534  -1.751  24.772  0.00  0.00    +0.128 C 
ATOM     11  C   UNL     1      -4.325  -0.709  23.985  0.00  0.00    +0.127 C 
ATOM     12  C   UNL     1      -1.027  -2.257  24.606  0.00  0.00    +0.306 C 
ATOM     14  C   UNL     1      -4.954   1.539  24.816  0.00  0.00    +0.247 C 
ENDROOT
BRANCH  14  16
ATOM     16  C   UNL     1      -4.547   2.885  25.243  0.00  0.00    +0.037 A 
ATOM     19  C   UNL     1      -5.508   3.880  25.424  0.00  0.00    +0.013 A 
ATOM     20  C   UNL     1      -3.201   3.166  25.470  0.00  0.00    +0.013 A 
ATOM     22  C   UNL     1      -5.121   5.157  25.831  0.00  0.00    +0.001 A 
ATOM     23  C   UNL     1      -2.813   4.442  25.878  0.00  0.00    +0.001 A 
ATOM     25  C   UNL     1      -3.774   5.438  26.058  0.00  0.00    +0.000 A 
ENDBRANCH  14  16
BRANCH   4  13
ATOM     13  C   UNL     1       1.486  -1.891  24.532  0.00  0.00    +0.146 C 
BRANCH  13  15
ATOM      6  N   UNL     1       2.303   0.333  21.584  0.00  0.00    -0.263 NA
ATOM     15  C   UNL     1       2.258  -1.003  23.599  0.00  0.00    -0.012 A 
ATOM     17  C   UNL     1       3.589  -0.687  23.847  0.00  0.00    +0.008 A 
ATOM     18  C   UNL     1       1.665  -0.472  22.464  0.00  0.00    +0.115 A 
ATOM     21  C   UNL     1       4.278   0.138  22.964  0.00  0.00    +0.020 A 
ATOM     24  C   UNL     1       3.595   0.617  21.858  0.00  0.00    +0.111 A 
ENDBRANCH  13  15
ENDBRANCH   4  13
TORSDOF 3
ENDMDL
