MODEL 1
REMARK VINA RESULT:      -6.4      0.000      0.000
REMARK  Name = 75537036
REMARK  4 active torsions:
REMARK  status: ('A' for Active; 'I' for Inactive)
REMARK    1  A    between atoms: O_2  and  C_16
REMARK    2  A    between atoms: O_2  and  C_19
REMARK    3  A    between atoms: N_4  and  C_12
REMARK    4  A    between atoms: C_12  and  C_13
REMARK                            x       y       z     vdW  Elec       q    Type
REMARK                         _______ _______ _______ _____ _____    ______ ____
ROOT
ATOM      1  O   UNL     1      -1.741   6.071  25.424  0.00  0.00    -0.253 OA
ATOM      3  N   UNL     1      -2.586   4.029  24.613  0.00  0.00    -0.279 N 
ATOM      4  N   UNL     1      -4.178   1.716  24.463  0.00  0.00    -0.295 NA
ATOM      5  N   UNL     1      -0.361   4.314  24.704  0.00  0.00    -0.297 N 
ATOM      6  C   UNL     1      -2.040   2.841  23.992  0.00  0.00    +0.109 C 
ATOM      7  C   UNL     1      -2.710   1.590  24.560  0.00  0.00    +0.109 C 
ATOM      8  C   UNL     1      -4.023   4.185  24.705  0.00  0.00    +0.125 C 
ATOM      9  C   UNL     1      -0.542   2.949  24.266  0.00  0.00    +0.129 C 
ATOM     10  C   UNL     1      -4.657   2.890  25.219  0.00  0.00    +0.104 C 
ATOM     11  C   UNL     1      -1.591   4.946  24.966  0.00  0.00    +0.303 C 
ATOM     20  H   UNL     1       0.543   4.743  24.884  0.00  0.00    +0.150 HD
ENDROOT
BRANCH   4  12
ATOM     12  C   UNL     1      -4.827   0.498  24.948  0.00  0.00    +0.119 C 
BRANCH  12  13
ATOM     13  C   UNL     1      -3.974  -0.721  24.721  0.00  0.00    -0.030 A 
ATOM     14  C   UNL     1      -2.614  -0.688  25.032  0.00  0.00    +0.050 A 
ATOM     15  C   UNL     1      -4.542  -1.883  24.198  0.00  0.00    +0.005 A 
ATOM     16  C   UNL     1      -1.824  -1.818  24.821  0.00  0.00    +0.120 A 
ATOM     17  C   UNL     1      -3.751  -3.012  23.987  0.00  0.00    +0.004 A 
ATOM     18  C   UNL     1      -2.391  -2.980  24.299  0.00  0.00    +0.045 A 
BRANCH  16   2
ATOM      2  O   UNL     1      -0.496  -1.785  25.122  0.00  0.00    -0.495 OA
ATOM     19  C   UNL     1       0.313  -0.866  24.391  0.00  0.00    +0.277 C 
ENDBRANCH  16   2
ENDBRANCH  12  13
ENDBRANCH   4  12
TORSDOF 3
ENDMDL
MODEL 2
REMARK VINA RESULT:      -6.0      2.065      6.315
REMARK  Name = 75537036
REMARK  4 active torsions:
REMARK  status: ('A' for Active; 'I' for Inactive)
REMARK    1  A    between atoms: O_2  and  C_16
REMARK    2  A    between atoms: O_2  and  C_19
REMARK    3  A    between atoms: N_4  and  C_12
REMARK    4  A    between atoms: C_12  and  C_13
REMARK                            x       y       z     vdW  Elec       q    Type
REMARK                         _______ _______ _______ _____ _____    ______ ____
ROOT
ATOM      1  O   UNL     1      -3.562  -3.420  24.972  0.00  0.00    -0.253 OA
ATOM      3  N   UNL     1      -2.427  -1.460  24.335  0.00  0.00    -0.279 N 
ATOM      4  N   UNL     1      -0.578   0.657  24.427  0.00  0.00    -0.295 NA
ATOM      5  N   UNL     1      -4.671  -1.487  24.236  0.00  0.00    -0.297 N 
ATOM      6  C   UNL     1      -2.782  -0.191  23.734  0.00  0.00    +0.109 C 
ATOM      7  C   UNL     1      -2.026   0.949  24.415  0.00  0.00    +0.109 C 
ATOM      8  C   UNL     1      -1.030  -1.785  24.531  0.00  0.00    +0.125 C 
ATOM      9  C   UNL     1      -4.300  -0.135  23.883  0.00  0.00    +0.129 C 
ATOM     10  C   UNL     1      -0.299  -0.595  25.158  0.00  0.00    +0.104 C 
ATOM     11  C   UNL     1      -3.545  -2.268  24.562  0.00  0.00    +0.303 C 
ATOM     20  H   UNL     1      -5.628  -1.815  24.322  0.00  0.00    +0.150 HD
ENDROOT
BRANCH   4  12
ATOM     12  C   UNL     1       0.161   1.770  25.023  0.00  0.00    +0.119 C 
BRANCH  12  13
ATOM     13  C   UNL     1      -0.689   3.007  25.144  0.00  0.00    -0.030 A 
ATOM     14  C   UNL     1      -1.954   2.929  25.727  0.00  0.00    +0.050 A 
ATOM     15  C   UNL     1      -0.213   4.230  24.672  0.00  0.00    +0.005 A 
ATOM     16  C   UNL     1      -2.741   4.075  25.839  0.00  0.00    +0.120 A 
ATOM     17  C   UNL     1      -1.000   5.375  24.783  0.00  0.00    +0.004 A 
ATOM     18  C   UNL     1      -2.265   5.299  25.367  0.00  0.00    +0.045 A 
BRANCH  16   2
ATOM      2  O   UNL     1      -3.977   3.999  26.406  0.00  0.00    -0.495 OA
ATOM     19  C   UNL     1      -4.989   3.317  25.668  0.00  0.00    +0.277 C 
ENDBRANCH  16   2
ENDBRANCH  12  13
ENDBRANCH   4  12
TORSDOF 3
ENDMDL
MODEL 3
REMARK VINA RESULT:      -5.9     14.333     16.415
REMARK  Name = 75537036
REMARK  4 active torsions:
REMARK  status: ('A' for Active; 'I' for Inactive)
REMARK    1  A    between atoms: O_2  and  C_16
REMARK    2  A    between atoms: O_2  and  C_19
REMARK    3  A    between atoms: N_4  and  C_12
REMARK    4  A    between atoms: C_12  and  C_13
REMARK                            x       y       z     vdW  Elec       q    Type
REMARK                         _______ _______ _______ _____ _____    ______ ____
ROOT
ATOM      1  O   UNL     1     -10.066  -9.291  18.087  0.00  0.00    -0.253 OA
ATOM      3  N   UNL     1      -8.493  -9.353  16.339  0.00  0.00    -0.279 N 
ATOM      4  N   UNL     1      -7.388  -9.907  13.813  0.00  0.00    -0.295 NA
ATOM      5  N   UNL     1      -7.815  -9.869  18.417  0.00  0.00    -0.297 N 
ATOM      6  C   UNL     1      -7.060  -9.531  16.223  0.00  0.00    +0.109 C 
ATOM      7  C   UNL     1      -6.732 -10.427  15.029  0.00  0.00    +0.109 C 
ATOM      8  C   UNL     1      -9.259  -8.987  15.166  0.00  0.00    +0.125 C 
ATOM      9  C   UNL     1      -6.657 -10.097  17.582  0.00  0.00    +0.129 C 
ATOM     10  C   UNL     1      -8.855  -9.868  13.981  0.00  0.00    +0.104 C 
ATOM     11  C   UNL     1      -8.934  -9.475  17.659  0.00  0.00    +0.303 C 
ATOM     20  H   UNL     1      -7.846 -10.051  19.416  0.00  0.00    +0.150 HD
ENDROOT
BRANCH   4  12
ATOM     12  C   UNL     1      -7.032 -10.724  12.653  0.00  0.00    +0.119 C 
BRANCH  12  13
ATOM     13  C   UNL     1      -5.988 -10.057  11.797  0.00  0.00    -0.030 A 
ATOM     14  C   UNL     1      -4.656 -10.463  11.877  0.00  0.00    +0.050 A 
ATOM     15  C   UNL     1      -6.352  -9.031  10.924  0.00  0.00    +0.005 A 
ATOM     16  C   UNL     1      -3.689  -9.845  11.084  0.00  0.00    +0.120 A 
ATOM     17  C   UNL     1      -5.386  -8.412  10.132  0.00  0.00    +0.004 A 
ATOM     18  C   UNL     1      -4.054  -8.819  10.212  0.00  0.00    +0.045 A 
BRANCH  16   2
ATOM      2  O   UNL     1      -2.389 -10.241  11.164  0.00  0.00    -0.495 OA
ATOM     19  C   UNL     1      -1.840 -10.408  12.470  0.00  0.00    +0.277 C 
ENDBRANCH  16   2
ENDBRANCH  12  13
ENDBRANCH   4  12
TORSDOF 3
ENDMDL
MODEL 4
REMARK VINA RESULT:      -5.6     14.130     16.836
REMARK  Name = 75537036
REMARK  4 active torsions:
REMARK  status: ('A' for Active; 'I' for Inactive)
REMARK    1  A    between atoms: O_2  and  C_16
REMARK    2  A    between atoms: O_2  and  C_19
REMARK    3  A    between atoms: N_4  and  C_12
REMARK    4  A    between atoms: C_12  and  C_13
REMARK                            x       y       z     vdW  Elec       q    Type
REMARK                         _______ _______ _______ _____ _____    ______ ____
ROOT
ATOM      1  O   UNL     1      -6.719 -10.402  18.975  0.00  0.00    -0.253 OA
ATOM      3  N   UNL     1      -6.229 -10.041  16.702  0.00  0.00    -0.279 N 
ATOM      4  N   UNL     1      -6.525 -10.099  13.906  0.00  0.00    -0.295 NA
ATOM      5  N   UNL     1      -4.595 -10.781  18.052  0.00  0.00    -0.297 N 
ATOM      6  C   UNL     1      -5.044 -10.048  15.871  0.00  0.00    +0.109 C 
ATOM      7  C   UNL     1      -5.339 -10.720  14.530  0.00  0.00    +0.109 C 
ATOM      8  C   UNL     1      -7.486  -9.590  16.141  0.00  0.00    +0.125 C 
ATOM      9  C   UNL     1      -4.005 -10.761  16.732  0.00  0.00    +0.129 C 
ATOM     10  C   UNL     1      -7.712 -10.239  14.774  0.00  0.00    +0.104 C 
ATOM     11  C   UNL     1      -5.950 -10.401  18.023  0.00  0.00    +0.303 C 
ATOM     20  H   UNL     1      -4.119 -11.110  18.887  0.00  0.00    +0.150 HD
ENDROOT
BRANCH   4  12
ATOM     12  C   UNL     1      -6.781 -10.694  12.595  0.00  0.00    +0.119 C 
BRANCH  12  13
ATOM     13  C   UNL     1      -6.459  -9.742  11.474  0.00  0.00    -0.030 A 
ATOM     14  C   UNL     1      -7.418  -9.459  10.502  0.00  0.00    +0.050 A 
ATOM     15  C   UNL     1      -5.200  -9.144  11.406  0.00  0.00    +0.005 A 
ATOM     16  C   UNL     1      -7.120  -8.576   9.464  0.00  0.00    +0.120 A 
ATOM     17  C   UNL     1      -4.901  -8.262  10.369  0.00  0.00    +0.004 A 
ATOM     18  C   UNL     1      -5.861  -7.978   9.396  0.00  0.00    +0.045 A 
BRANCH  16   2
ATOM      2  O   UNL     1      -8.056  -8.301   8.514  0.00  0.00    -0.495 OA
ATOM     19  C   UNL     1      -8.388  -6.929   8.309  0.00  0.00    +0.277 C 
ENDBRANCH  16   2
ENDBRANCH  12  13
ENDBRANCH   4  12
TORSDOF 3
ENDMDL
MODEL 5
REMARK VINA RESULT:      -5.4      1.820      3.896
REMARK  Name = 75537036
REMARK  4 active torsions:
REMARK  status: ('A' for Active; 'I' for Inactive)
REMARK    1  A    between atoms: O_2  and  C_16
REMARK    2  A    between atoms: O_2  and  C_19
REMARK    3  A    between atoms: N_4  and  C_12
REMARK    4  A    between atoms: C_12  and  C_13
REMARK                            x       y       z     vdW  Elec       q    Type
REMARK                         _______ _______ _______ _____ _____    ______ ____
ROOT
ATOM      1  O   UNL     1      -6.381   4.672  25.787  0.00  0.00    -0.253 OA
ATOM      3  N   UNL     1      -4.366   3.456  25.834  0.00  0.00    -0.279 N 
ATOM      4  N   UNL     1      -1.630   2.887  25.525  0.00  0.00    -0.295 NA
ATOM      5  N   UNL     1      -6.207   2.462  25.017  0.00  0.00    -0.297 N 
ATOM      6  C   UNL     1      -3.959   2.092  25.573  0.00  0.00    +0.109 C 
ATOM      7  C   UNL     1      -2.633   2.071  24.812  0.00  0.00    +0.109 C 
ATOM      8  C   UNL     1      -3.410   4.386  26.397  0.00  0.00    +0.125 C 
ATOM      9  C   UNL     1      -5.145   1.502  24.815  0.00  0.00    +0.129 C 
ATOM     10  C   UNL     1      -2.080   4.288  25.646  0.00  0.00    +0.104 C 
ATOM     11  C   UNL     1      -5.726   3.659  25.580  0.00  0.00    +0.303 C 
ATOM     20  H   UNL     1      -7.167   2.326  24.714  0.00  0.00    +0.150 HD
ENDROOT
BRANCH   4  12
ATOM     12  C   UNL     1      -0.341   2.825  24.837  0.00  0.00    +0.119 C 
BRANCH  12  13
ATOM     13  C   UNL     1      -0.021   1.430  24.370  0.00  0.00    -0.030 A 
ATOM     14  C   UNL     1      -0.700   0.340  24.915  0.00  0.00    +0.050 A 
ATOM     15  C   UNL     1       0.955   1.226  23.395  0.00  0.00    +0.005 A 
ATOM     16  C   UNL     1      -0.404  -0.953  24.483  0.00  0.00    +0.120 A 
ATOM     17  C   UNL     1       1.252  -0.066  22.963  0.00  0.00    +0.004 A 
ATOM     18  C   UNL     1       0.573  -1.157  23.507  0.00  0.00    +0.045 A 
BRANCH  16   2
ATOM      2  O   UNL     1      -1.065  -2.017  25.015  0.00  0.00    -0.495 OA
ATOM     19  C   UNL     1      -2.453  -2.140  24.705  0.00  0.00    +0.277 C 
ENDBRANCH  16   2
ENDBRANCH  12  13
ENDBRANCH   4  12
TORSDOF 3
ENDMDL
MODEL 6
REMARK VINA RESULT:      -5.3      2.055      3.393
REMARK  Name = 75537036
REMARK  4 active torsions:
REMARK  status: ('A' for Active; 'I' for Inactive)
REMARK    1  A    between atoms: O_2  and  C_16
REMARK    2  A    between atoms: O_2  and  C_19
REMARK    3  A    between atoms: N_4  and  C_12
REMARK    4  A    between atoms: C_12  and  C_13
REMARK                            x       y       z     vdW  Elec       q    Type
REMARK                         _______ _______ _______ _____ _____    ______ ____
ROOT
ATOM      1  O   UNL     1      -0.212   4.843  23.396  0.00  0.00    -0.253 OA
ATOM      3  N   UNL     1      -0.119   2.839  24.627  0.00  0.00    -0.279 N 
ATOM      4  N   UNL     1      -0.135   0.079  25.163  0.00  0.00    -0.295 NA
ATOM      5  N   UNL     1      -1.382   4.525  25.406  0.00  0.00    -0.297 N 
ATOM      6  C   UNL     1      -0.591   2.377  25.916  0.00  0.00    +0.109 C 
ATOM      7  C   UNL     1      -1.138   0.955  25.802  0.00  0.00    +0.109 C 
ATOM      8  C   UNL     1       0.754   1.989  23.846  0.00  0.00    +0.125 C 
ATOM      9  C   UNL     1      -1.618   3.430  26.321  0.00  0.00    +0.129 C 
ATOM     10  C   UNL     1       0.201   0.562  23.809  0.00  0.00    +0.104 C 
ATOM     11  C   UNL     1      -0.523   4.149  24.356  0.00  0.00    +0.303 C 
ATOM     20  H   UNL     1      -1.843   5.428  25.462  0.00  0.00    +0.150 HD
ENDROOT
BRANCH   4  12
ATOM     12  C   UNL     1      -0.625  -1.298  25.104  0.00  0.00    +0.119 C 
BRANCH  12  13
ATOM     13  C   UNL     1      -2.085  -1.359  24.741  0.00  0.00    -0.030 A 
ATOM     14  C   UNL     1      -2.888  -0.227  24.889  0.00  0.00    +0.050 A 
ATOM     15  C   UNL     1      -2.637  -2.546  24.259  0.00  0.00    +0.005 A 
ATOM     16  C   UNL     1      -4.240  -0.283  24.553  0.00  0.00    +0.120 A 
ATOM     17  C   UNL     1      -3.988  -2.602  23.924  0.00  0.00    +0.004 A 
ATOM     18  C   UNL     1      -4.791  -1.471  24.071  0.00  0.00    +0.045 A 
BRANCH  16   2
ATOM      2  O   UNL     1      -5.024   0.821  24.698  0.00  0.00    -0.495 OA
ATOM     19  C   UNL     1      -4.434   2.081  24.384  0.00  0.00    +0.277 C 
ENDBRANCH  16   2
ENDBRANCH  12  13
ENDBRANCH   4  12
TORSDOF 3
ENDMDL
MODEL 7
REMARK VINA RESULT:      -5.2      2.504      4.096
REMARK  Name = 75537036
REMARK  4 active torsions:
REMARK  status: ('A' for Active; 'I' for Inactive)
REMARK    1  A    between atoms: O_2  and  C_16
REMARK    2  A    between atoms: O_2  and  C_19
REMARK    3  A    between atoms: N_4  and  C_12
REMARK    4  A    between atoms: C_12  and  C_13
REMARK                            x       y       z     vdW  Elec       q    Type
REMARK                         _______ _______ _______ _____ _____    ______ ____
ROOT
ATOM      1  O   UNL     1      -6.394   4.561  25.840  0.00  0.00    -0.253 OA
ATOM      3  N   UNL     1      -4.333   3.426  25.808  0.00  0.00    -0.279 N 
ATOM      4  N   UNL     1      -1.583   2.977  25.425  0.00  0.00    -0.295 NA
ATOM      5  N   UNL     1      -6.149   2.383  24.999  0.00  0.00    -0.297 N 
ATOM      6  C   UNL     1      -3.877   2.088  25.497  0.00  0.00    +0.109 C 
ATOM      7  C   UNL     1      -2.569   2.142  24.709  0.00  0.00    +0.109 C 
ATOM      8  C   UNL     1      -3.402   4.377  26.379  0.00  0.00    +0.125 C 
ATOM      9  C   UNL     1      -5.055   1.473  24.746  0.00  0.00    +0.129 C 
ATOM     10  C   UNL     1      -2.086   4.355  25.597  0.00  0.00    +0.104 C 
ATOM     11  C   UNL     1      -5.704   3.582  25.588  0.00  0.00    +0.303 C 
ATOM     20  H   UNL     1      -7.110   2.218  24.712  0.00  0.00    +0.150 HD
ENDROOT
BRANCH   4  12
ATOM     12  C   UNL     1      -0.308   2.987  24.709  0.00  0.00    +0.119 C 
BRANCH  12  13
ATOM     13  C   UNL     1       0.100   1.605  24.271  0.00  0.00    -0.030 A 
ATOM     14  C   UNL     1       1.226   1.433  23.466  0.00  0.00    +0.050 A 
ATOM     15  C   UNL     1      -0.649   0.497  24.670  0.00  0.00    +0.005 A 
ATOM     16  C   UNL     1       1.604   0.153  23.061  0.00  0.00    +0.120 A 
ATOM     17  C   UNL     1      -0.271  -0.782  24.264  0.00  0.00    +0.004 A 
ATOM     18  C   UNL     1       0.855  -0.955  23.459  0.00  0.00    +0.045 A 
BRANCH  16   2
ATOM      2  O   UNL     1       2.702  -0.015  22.274  0.00  0.00    -0.495 OA
ATOM     19  C   UNL     1       3.871   0.724  22.624  0.00  0.00    +0.277 C 
ENDBRANCH  16   2
ENDBRANCH  12  13
ENDBRANCH   4  12
TORSDOF 3
ENDMDL
MODEL 8
REMARK VINA RESULT:      -5.2      3.010      4.672
REMARK  Name = 75537036
REMARK  4 active torsions:
REMARK  status: ('A' for Active; 'I' for Inactive)
REMARK    1  A    between atoms: O_2  and  C_16
REMARK    2  A    between atoms: O_2  and  C_19
REMARK    3  A    between atoms: N_4  and  C_12
REMARK    4  A    between atoms: C_12  and  C_13
REMARK                            x       y       z     vdW  Elec       q    Type
REMARK                         _______ _______ _______ _____ _____    ______ ____
ROOT
ATOM      1  O   UNL     1      -6.599   1.578  25.113  0.00  0.00    -0.253 OA
ATOM      3  N   UNL     1      -4.339   1.995  24.608  0.00  0.00    -0.279 N 
ATOM      4  N   UNL     1      -1.561   1.587  24.447  0.00  0.00    -0.295 NA
ATOM      5  N   UNL     1      -5.562   3.645  25.516  0.00  0.00    -0.297 N 
ATOM      6  C   UNL     1      -3.460   3.145  24.605  0.00  0.00    +0.109 C 
ATOM      7  C   UNL     1      -2.088   2.766  25.163  0.00  0.00    +0.109 C 
ATOM      8  C   UNL     1      -3.866   0.740  24.062  0.00  0.00    +0.125 C 
ATOM      9  C   UNL     1      -4.223   4.182  25.424  0.00  0.00    +0.129 C 
ATOM     10  C   UNL     1      -2.466   0.430  24.599  0.00  0.00    +0.104 C 
ATOM     11  C   UNL     1      -5.618   2.309  25.076  0.00  0.00    +0.303 C 
ATOM     20  H   UNL     1      -6.350   4.138  25.925  0.00  0.00    +0.150 HD
ENDROOT
BRANCH   4  12
ATOM     12  C   UNL     1      -0.223   1.252  24.933  0.00  0.00    +0.119 C 
BRANCH  12  13
ATOM     13  C   UNL     1       0.664   0.743  23.828  0.00  0.00    -0.030 A 
ATOM     14  C   UNL     1       1.995   1.152  23.757  0.00  0.00    +0.050 A 
ATOM     15  C   UNL     1       0.153  -0.137  22.873  0.00  0.00    +0.005 A 
ATOM     16  C   UNL     1       2.817   0.679  22.733  0.00  0.00    +0.120 A 
ATOM     17  C   UNL     1       0.974  -0.609  21.849  0.00  0.00    +0.004 A 
ATOM     18  C   UNL     1       2.306  -0.201  21.779  0.00  0.00    +0.045 A 
BRANCH  16   2
ATOM      2  O   UNL     1       4.116   1.080  22.664  0.00  0.00    -0.495 OA
ATOM     19  C   UNL     1       5.074   0.302  23.379  0.00  0.00    +0.277 C 
ENDBRANCH  16   2
ENDBRANCH  12  13
ENDBRANCH   4  12
TORSDOF 3
ENDMDL
MODEL 9
REMARK VINA RESULT:      -5.1      2.323      5.965
REMARK  Name = 75537036
REMARK  4 active torsions:
REMARK  status: ('A' for Active; 'I' for Inactive)
REMARK    1  A    between atoms: O_2  and  C_16
REMARK    2  A    between atoms: O_2  and  C_19
REMARK    3  A    between atoms: N_4  and  C_12
REMARK    4  A    between atoms: C_12  and  C_13
REMARK                            x       y       z     vdW  Elec       q    Type
REMARK                         _______ _______ _______ _____ _____    ______ ____
ROOT
ATOM      1  O   UNL     1       0.168  -2.406  25.772  0.00  0.00    -0.253 OA
ATOM      3  N   UNL     1      -1.062  -1.080  24.267  0.00  0.00    -0.279 N 
ATOM      4  N   UNL     1      -1.951   1.211  22.901  0.00  0.00    -0.295 NA
ATOM      5  N   UNL     1      -2.153  -2.612  25.494  0.00  0.00    -0.297 N 
ATOM      6  C   UNL     1      -2.422  -1.041  23.774  0.00  0.00    +0.109 C 
ATOM      7  C   UNL     1      -2.912   0.404  23.680  0.00  0.00    +0.109 C 
ATOM      8  C   UNL     1      -0.066  -0.215  23.670  0.00  0.00    +0.125 C 
ATOM      9  C   UNL     1      -3.188  -1.915  24.764  0.00  0.00    +0.129 C 
ATOM     10  C   UNL     1      -0.619   1.206  23.538  0.00  0.00    +0.104 C 
ATOM     11  C   UNL     1      -0.879  -2.071  25.236  0.00  0.00    +0.303 C 
ATOM     20  H   UNL     1      -2.327  -3.346  26.175  0.00  0.00    +0.150 HD
ENDROOT
BRANCH   4  12
ATOM     12  C   UNL     1      -2.439   2.582  22.753  0.00  0.00    +0.119 C 
BRANCH  12  13
ATOM     13  C   UNL     1      -2.880   3.164  24.070  0.00  0.00    -0.030 A 
ATOM     14  C   UNL     1      -4.179   2.945  24.529  0.00  0.00    +0.050 A 
ATOM     15  C   UNL     1      -1.991   3.925  24.830  0.00  0.00    +0.005 A 
ATOM     16  C   UNL     1      -4.587   3.485  25.749  0.00  0.00    +0.120 A 
ATOM     17  C   UNL     1      -2.399   4.465  26.048  0.00  0.00    +0.004 A 
ATOM     18  C   UNL     1      -3.698   4.246  26.509  0.00  0.00    +0.045 A 
BRANCH  16   2
ATOM      2  O   UNL     1      -5.855   3.273  26.197  0.00  0.00    -0.495 OA
ATOM     19  C   UNL     1      -6.342   1.932  26.155  0.00  0.00    +0.277 C 
ENDBRANCH  16   2
ENDBRANCH  12  13
ENDBRANCH   4  12
TORSDOF 3
ENDMDL
MODEL 10
REMARK VINA RESULT:      -4.8     14.503     17.190
REMARK  Name = 75537036
REMARK  4 active torsions:
REMARK  status: ('A' for Active; 'I' for Inactive)
REMARK    1  A    between atoms: O_2  and  C_16
REMARK    2  A    between atoms: O_2  and  C_19
REMARK    3  A    between atoms: N_4  and  C_12
REMARK    4  A    between atoms: C_12  and  C_13
REMARK                            x       y       z     vdW  Elec       q    Type
REMARK                         _______ _______ _______ _____ _____    ______ ____
ROOT
ATOM      1  O   UNL     1      -6.896 -10.110  18.641  0.00  0.00    -0.253 OA
ATOM      3  N   UNL     1      -7.013  -9.861  16.304  0.00  0.00    -0.279 N 
ATOM      4  N   UNL     1      -7.995 -10.098  13.679  0.00  0.00    -0.295 NA
ATOM      5  N   UNL     1      -5.051 -10.442  17.229  0.00  0.00    -0.297 N 
ATOM      6  C   UNL     1      -6.075  -9.861  15.201  0.00  0.00    +0.109 C 
ATOM      7  C   UNL     1      -6.655 -10.624  14.011  0.00  0.00    +0.109 C 
ATOM      8  C   UNL     1      -8.395  -9.503  16.059  0.00  0.00    +0.125 C 
ATOM      9  C   UNL     1      -4.813 -10.472  15.803  0.00  0.00    +0.129 C 
ATOM     10  C   UNL     1      -8.915 -10.242  14.824  0.00  0.00    +0.104 C 
ATOM     11  C   UNL     1      -6.391 -10.129  17.527  0.00  0.00    +0.303 C 
ATOM     20  H   UNL     1      -4.363 -10.698  17.930  0.00  0.00    +0.150 HD
ENDROOT
BRANCH   4  12
ATOM     12  C   UNL     1      -8.534 -10.781  12.504  0.00  0.00    +0.119 C 
BRANCH  12  13
ATOM     13  C   UNL     1      -8.958  -9.809  11.436  0.00  0.00    -0.030 A 
ATOM     14  C   UNL     1      -8.009  -9.266  10.570  0.00  0.00    +0.050 A 
ATOM     15  C   UNL     1     -10.301  -9.450  11.312  0.00  0.00    +0.005 A 
ATOM     16  C   UNL     1      -8.403  -8.365   9.580  0.00  0.00    +0.120 A 
ATOM     17  C   UNL     1     -10.694  -8.549  10.324  0.00  0.00    +0.004 A 
ATOM     18  C   UNL     1      -9.745  -8.006   9.457  0.00  0.00    +0.045 A 
BRANCH  16   2
ATOM      2  O   UNL     1      -7.476  -7.833   8.736  0.00  0.00    -0.495 OA
ATOM     19  C   UNL     1      -7.767  -6.554   8.175  0.00  0.00    +0.277 C 
ENDBRANCH  16   2
ENDBRANCH  12  13
ENDBRANCH   4  12
TORSDOF 3
ENDMDL
