MODEL 1
REMARK VINA RESULT:      -5.9      0.000      0.000
REMARK  Name = 11865678
REMARK  8 active torsions:
REMARK  status: ('A' for Active; 'I' for Inactive)
REMARK    1  A    between atoms: O_2  and  C_10
REMARK    2  A    between atoms: O_3  and  C_12
REMARK    3  A    between atoms: N_7  and  C_11
REMARK    4  A    between atoms: N_8  and  C_18
REMARK    5  A    between atoms: C_14  and  C_16
REMARK    6  A    between atoms: C_17  and  C_19
REMARK    7  A    between atoms: C_18  and  C_20
REMARK    8  A    between atoms: C_20  and  C_22
REMARK                            x       y       z     vdW  Elec       q    Type
REMARK                         _______ _______ _______ _____ _____    ______ ____
ROOT
ATOM     10  C   UNL     1      -1.064  -1.693  24.983  0.00  0.00    +0.167 C 
ATOM     11  C   UNL     1      -0.545  -0.855  23.798  0.00  0.00    +0.128 C 
ATOM     12  C   UNL     1      -2.596  -1.683  25.051  0.00  0.00    +0.149 C 
ATOM     13  C   UNL     1      -3.163  -0.254  25.119  0.00  0.00    +0.074 C 
ATOM     14  C   UNL     1      -2.420   0.724  24.253  0.00  0.00    +0.015 C 
ATOM     15  C   UNL     1      -1.251   0.465  23.648  0.00  0.00    +0.006 C 
ENDROOT
BRANCH  14  16
ATOM      4  O   UNL     1      -3.129   2.508  22.900  0.00  0.00    -0.271 OA
ATOM      8  N   UNL     1      -3.416   2.659  25.208  0.00  0.00    -0.311 N 
ATOM     16  C   UNL     1      -3.018   2.044  24.034  0.00  0.00    +0.240 C 
ATOM     28  H   UNL     1      -3.262   2.217  26.107  0.00  0.00    +0.149 HD
BRANCH   8  18
ATOM     18  C   UNL     1      -4.029   3.967  25.245  0.00  0.00    +0.113 C 
BRANCH  18  20
ATOM     20  C   UNL     1      -5.529   3.892  25.495  0.00  0.00    +0.114 C 
BRANCH  20  22
ATOM      6  O   UNL     1      -6.176   1.699  24.677  0.00  0.00    -0.276 OA
ATOM      9  N   UNL     1      -6.378   2.150  26.921  0.00  0.00    -0.329 N 
ATOM     22  C   UNL     1      -6.050   2.473  25.622  0.00  0.00    +0.212 C 
ATOM     29  H   UNL     1      -6.268   2.807  27.688  0.00  0.00    +0.145 HD
ATOM     30  H   UNL     1      -6.743   1.233  27.156  0.00  0.00    +0.145 HD
ENDBRANCH  20  22
ENDBRANCH  18  20
ENDBRANCH   8  18
ENDBRANCH  14  16
BRANCH  11   7
ATOM      5  O   UNL     1       1.198  -0.376  21.634  0.00  0.00    -0.270 OA
ATOM      7  N   UNL     1       0.874  -0.616  23.896  0.00  0.00    -0.302 N 
ATOM     17  C   UNL     1       1.669  -0.387  22.774  0.00  0.00    +0.251 C 
ATOM     25  H   UNL     1       1.290  -0.657  24.820  0.00  0.00    +0.150 HD
BRANCH  17  19
ATOM      1  S   UNL     1       4.003  -1.362  23.749  0.00  0.00    -0.092 S 
ATOM     19  C   UNL     1       3.091  -0.127  23.038  0.00  0.00    +0.074 A 
ATOM     21  C   UNL     1       3.781   1.004  22.775  0.00  0.00    +0.021 A 
ATOM     23  C   UNL     1       5.142   0.867  23.177  0.00  0.00    +0.008 A 
ATOM     24  C   UNL     1       5.398  -0.371  23.721  0.00  0.00    +0.046 A 
ENDBRANCH  17  19
ENDBRANCH  11   7
BRANCH  10   2
ATOM      2  O   UNL     1      -0.546  -1.164  26.206  0.00  0.00    -0.387 OA
ATOM     26  H   UNL     1       0.352  -1.519  26.322  0.00  0.00    +0.210 HD
ENDBRANCH  10   2
BRANCH  12   3
ATOM      3  O   UNL     1      -3.141  -2.373  23.929  0.00  0.00    -0.389 OA
ATOM     27  H   UNL     1      -3.342  -3.281  24.213  0.00  0.00    +0.210 HD
ENDBRANCH  12   3
TORSDOF 8
ENDMDL
MODEL 2
REMARK VINA RESULT:      -5.1      1.189      1.962
REMARK  Name = 11865678
REMARK  8 active torsions:
REMARK  status: ('A' for Active; 'I' for Inactive)
REMARK    1  A    between atoms: O_2  and  C_10
REMARK    2  A    between atoms: O_3  and  C_12
REMARK    3  A    between atoms: N_7  and  C_11
REMARK    4  A    between atoms: N_8  and  C_18
REMARK    5  A    between atoms: C_14  and  C_16
REMARK    6  A    between atoms: C_17  and  C_19
REMARK    7  A    between atoms: C_18  and  C_20
REMARK    8  A    between atoms: C_20  and  C_22
REMARK                            x       y       z     vdW  Elec       q    Type
REMARK                         _______ _______ _______ _____ _____    ______ ____
ROOT
ATOM     10  C   UNL     1      -1.071  -1.841  24.931  0.00  0.00    +0.167 C 
ATOM     11  C   UNL     1      -0.594  -0.957  23.762  0.00  0.00    +0.128 C 
ATOM     12  C   UNL     1      -2.602  -1.897  25.005  0.00  0.00    +0.149 C 
ATOM     13  C   UNL     1      -3.228  -0.496  25.108  0.00  0.00    +0.074 C 
ATOM     14  C   UNL     1      -2.531   0.532  24.260  0.00  0.00    +0.015 C 
ATOM     15  C   UNL     1      -1.355   0.335  23.645  0.00  0.00    +0.006 C 
ENDROOT
BRANCH  14  16
ATOM      4  O   UNL     1      -3.227   2.363  22.965  0.00  0.00    -0.271 OA
ATOM      8  N   UNL     1      -3.714   2.343  25.244  0.00  0.00    -0.311 N 
ATOM     16  C   UNL     1      -3.185   1.830  24.073  0.00  0.00    +0.240 C 
ATOM     28  H   UNL     1      -3.611   1.850  26.123  0.00  0.00    +0.149 HD
BRANCH   8  18
ATOM     18  C   UNL     1      -4.404   3.611  25.310  0.00  0.00    +0.113 C 
BRANCH  18  20
ATOM     20  C   UNL     1      -3.553   4.697  25.952  0.00  0.00    +0.114 C 
BRANCH  20  22
ATOM      6  O   UNL     1      -1.470   3.519  26.367  0.00  0.00    -0.276 OA
ATOM      9  N   UNL     1      -1.439   5.394  25.038  0.00  0.00    -0.329 N 
ATOM     22  C   UNL     1      -2.061   4.449  25.825  0.00  0.00    +0.212 C 
ATOM     29  H   UNL     1      -1.947   6.156  24.601  0.00  0.00    +0.145 HD
ATOM     30  H   UNL     1      -0.439   5.356  24.867  0.00  0.00    +0.145 HD
ENDBRANCH  20  22
ENDBRANCH  18  20
ENDBRANCH   8  18
ENDBRANCH  14  16
BRANCH  11   7
ATOM      5  O   UNL     1       1.130  -0.417  21.597  0.00  0.00    -0.270 OA
ATOM      7  N   UNL     1       0.815  -0.661  23.860  0.00  0.00    -0.302 N 
ATOM     17  C   UNL     1       1.600  -0.404  22.736  0.00  0.00    +0.251 C 
ATOM     25  H   UNL     1       1.232  -0.681  24.784  0.00  0.00    +0.150 HD
BRANCH  17  19
ATOM      1  S   UNL     1       3.976  -1.289  23.696  0.00  0.00    -0.092 S 
ATOM     19  C   UNL     1       3.011  -0.087  23.000  0.00  0.00    +0.074 A 
ATOM     21  C   UNL     1       3.651   1.076  22.747  0.00  0.00    +0.021 A 
ATOM     23  C   UNL     1       5.018   0.993  23.144  0.00  0.00    +0.008 A 
ATOM     24  C   UNL     1       5.328  -0.239  23.675  0.00  0.00    +0.046 A 
ENDBRANCH  17  19
ENDBRANCH  11   7
BRANCH  10   2
ATOM      2  O   UNL     1      -0.570  -1.319  26.163  0.00  0.00    -0.387 OA
ATOM     26  H   UNL     1      -0.472  -0.357  26.056  0.00  0.00    +0.210 HD
ENDBRANCH  10   2
BRANCH  12   3
ATOM      3  O   UNL     1      -3.123  -2.584  23.871  0.00  0.00    -0.389 OA
ATOM     27  H   UNL     1      -3.994  -2.941  24.119  0.00  0.00    +0.210 HD
ENDBRANCH  12   3
TORSDOF 8
ENDMDL
MODEL 3
REMARK VINA RESULT:      -3.1      2.259      4.341
REMARK  Name = 11865678
REMARK  8 active torsions:
REMARK  status: ('A' for Active; 'I' for Inactive)
REMARK    1  A    between atoms: O_2  and  C_10
REMARK    2  A    between atoms: O_3  and  C_12
REMARK    3  A    between atoms: N_7  and  C_11
REMARK    4  A    between atoms: N_8  and  C_18
REMARK    5  A    between atoms: C_14  and  C_16
REMARK    6  A    between atoms: C_17  and  C_19
REMARK    7  A    between atoms: C_18  and  C_20
REMARK    8  A    between atoms: C_20  and  C_22
REMARK                            x       y       z     vdW  Elec       q    Type
REMARK                         _______ _______ _______ _____ _____    ______ ____
ROOT
ATOM     10  C   UNL     1      -1.288   4.011  25.280  0.00  0.00    +0.167 C 
ATOM     11  C   UNL     1      -0.947   2.522  25.482  0.00  0.00    +0.128 C 
ATOM     12  C   UNL     1      -2.694   4.342  25.794  0.00  0.00    +0.149 C 
ATOM     13  C   UNL     1      -3.771   3.456  25.143  0.00  0.00    +0.074 C 
ATOM     14  C   UNL     1      -3.333   2.032  24.948  0.00  0.00    +0.015 C 
ATOM     15  C   UNL     1      -2.074   1.598  25.105  0.00  0.00    +0.006 C 
ENDROOT
BRANCH  14  16
ATOM      4  O   UNL     1      -5.542   1.244  24.810  0.00  0.00    -0.271 OA
ATOM      8  N   UNL     1      -3.815  -0.085  23.983  0.00  0.00    -0.311 N 
ATOM     16  C   UNL     1      -4.350   1.042  24.582  0.00  0.00    +0.240 C 
ATOM     28  H   UNL     1      -2.815  -0.185  23.857  0.00  0.00    +0.149 HD
BRANCH   8  18
ATOM     18  C   UNL     1      -4.620  -1.199  23.537  0.00  0.00    +0.113 C 
BRANCH  18  20
ATOM     20  C   UNL     1      -4.057  -2.537  23.997  0.00  0.00    +0.114 C 
BRANCH  20  22
ATOM      6  O   UNL     1      -3.249  -2.063  26.237  0.00  0.00    -0.276 OA
ATOM      9  N   UNL     1      -1.742  -2.709  24.627  0.00  0.00    -0.329 N 
ATOM     22  C   UNL     1      -3.007  -2.408  25.084  0.00  0.00    +0.212 C 
ATOM     29  H   UNL     1      -1.564  -2.989  23.667  0.00  0.00    +0.145 HD
ATOM     30  H   UNL     1      -0.938  -2.662  25.245  0.00  0.00    +0.145 HD
ENDBRANCH  20  22
ENDBRANCH  18  20
ENDBRANCH   8  18
ENDBRANCH  14  16
BRANCH  11   7
ATOM      5  O   UNL     1      -0.655   0.188  23.927  0.00  0.00    -0.270 OA
ATOM      7  N   UNL     1       0.234   2.141  24.747  0.00  0.00    -0.302 N 
ATOM     17  C   UNL     1       0.298   0.966  24.000  0.00  0.00    +0.251 C 
ATOM     25  H   UNL     1       1.044   2.747  24.821  0.00  0.00    +0.150 HD
BRANCH  17  19
ATOM      1  S   UNL     1       1.556  -0.408  22.030  0.00  0.00    -0.092 S 
ATOM     19  C   UNL     1       1.558   0.732  23.280  0.00  0.00    +0.074 A 
ATOM     21  C   UNL     1       2.750   1.330  23.497  0.00  0.00    +0.021 A 
ATOM     23  C   UNL     1       3.733   0.834  22.592  0.00  0.00    +0.008 A 
ATOM     24  C   UNL     1       3.217  -0.116  21.739  0.00  0.00    +0.046 A 
ENDBRANCH  17  19
ENDBRANCH  11   7
BRANCH  10   2
ATOM      2  O   UNL     1      -1.219   4.334  23.889  0.00  0.00    -0.387 OA
ATOM     26  H   UNL     1      -0.422   4.874  23.753  0.00  0.00    +0.210 HD
ENDBRANCH  10   2
BRANCH  12   3
ATOM      3  O   UNL     1      -2.743   4.209  27.212  0.00  0.00    -0.389 OA
ATOM     27  H   UNL     1      -1.871   4.465  27.560  0.00  0.00    +0.210 HD
ENDBRANCH  12   3
TORSDOF 8
ENDMDL
MODEL 4
REMARK VINA RESULT:      -2.5      2.720      7.396
REMARK  Name = 11865678
REMARK  8 active torsions:
REMARK  status: ('A' for Active; 'I' for Inactive)
REMARK    1  A    between atoms: O_2  and  C_10
REMARK    2  A    between atoms: O_3  and  C_12
REMARK    3  A    between atoms: N_7  and  C_11
REMARK    4  A    between atoms: N_8  and  C_18
REMARK    5  A    between atoms: C_14  and  C_16
REMARK    6  A    between atoms: C_17  and  C_19
REMARK    7  A    between atoms: C_18  and  C_20
REMARK    8  A    between atoms: C_20  and  C_22
REMARK                            x       y       z     vdW  Elec       q    Type
REMARK                         _______ _______ _______ _____ _____    ______ ____
ROOT
ATOM     10  C   UNL     1      -2.310  -1.423  25.001  0.00  0.00    +0.167 C 
ATOM     11  C   UNL     1      -1.578  -0.139  25.436  0.00  0.00    +0.128 C 
ATOM     12  C   UNL     1      -1.325  -2.501  24.532  0.00  0.00    +0.149 C 
ATOM     13  C   UNL     1      -0.413  -1.998  23.399  0.00  0.00    +0.074 C 
ATOM     14  C   UNL     1       0.027  -0.572  23.577  0.00  0.00    +0.015 C 
ATOM     15  C   UNL     1      -0.480   0.269  24.490  0.00  0.00    +0.006 C 
ENDROOT
BRANCH  14  16
ATOM      4  O   UNL     1       1.129  -0.353  21.515  0.00  0.00    -0.271 OA
ATOM      8  N   UNL     1       2.008   0.727  23.384  0.00  0.00    -0.311 N 
ATOM     16  C   UNL     1       1.096  -0.067  22.711  0.00  0.00    +0.240 C 
ATOM     28  H   UNL     1       1.922   0.890  24.381  0.00  0.00    +0.149 HD
BRANCH   8  18
ATOM     18  C   UNL     1       3.149   1.336  22.742  0.00  0.00    +0.113 C 
BRANCH  18  20
ATOM     20  C   UNL     1       4.289   0.348  22.534  0.00  0.00    +0.114 C 
BRANCH  20  22
ATOM      6  O   UNL     1       5.594   0.709  24.550  0.00  0.00    -0.276 OA
ATOM      9  N   UNL     1       4.831  -1.409  24.086  0.00  0.00    -0.329 N 
ATOM     22  C   UNL     1       4.974  -0.063  23.824  0.00  0.00    +0.212 C 
ATOM     29  H   UNL     1       4.316  -2.030  23.471  0.00  0.00    +0.145 HD
ATOM     30  H   UNL     1       5.241  -1.826  24.916  0.00  0.00    +0.145 HD
ENDBRANCH  20  22
ENDBRANCH  18  20
ENDBRANCH   8  18
ENDBRANCH  14  16
BRANCH  11   7
ATOM      5  O   UNL     1      -2.622   1.448  23.351  0.00  0.00    -0.270 OA
ATOM      7  N   UNL     1      -2.491   0.967  25.594  0.00  0.00    -0.302 N 
ATOM     17  C   UNL     1      -2.962   1.704  24.509  0.00  0.00    +0.251 C 
ATOM     25  H   UNL     1      -2.756   1.219  26.540  0.00  0.00    +0.150 HD
BRANCH  17  19
ATOM      1  S   UNL     1      -5.417   2.343  25.464  0.00  0.00    -0.092 S 
ATOM     19  C   UNL     1      -3.912   2.780  24.828  0.00  0.00    +0.074 A 
ATOM     21  C   UNL     1      -3.728   4.109  24.674  0.00  0.00    +0.021 A 
ATOM     23  C   UNL     1      -4.883   4.828  25.098  0.00  0.00    +0.008 A 
ATOM     24  C   UNL     1      -5.876   3.990  25.552  0.00  0.00    +0.046 A 
ENDBRANCH  17  19
ENDBRANCH  11   7
BRANCH  10   2
ATOM      2  O   UNL     1      -3.208  -1.124  23.929  0.00  0.00    -0.387 OA
ATOM     26  H   UNL     1      -3.558  -0.230  24.082  0.00  0.00    +0.210 HD
ENDBRANCH  10   2
BRANCH  12   3
ATOM      3  O   UNL     1      -0.537  -2.956  25.629  0.00  0.00    -0.389 OA
ATOM     27  H   UNL     1      -0.835  -3.855  25.851  0.00  0.00    +0.210 HD
ENDBRANCH  12   3
TORSDOF 8
ENDMDL
