MODEL 1
REMARK VINA RESULT:      -2.4      0.000      0.000
REMARK  Name = 45783540
REMARK  11 active torsions:
REMARK  status: ('A' for Active; 'I' for Inactive)
REMARK    1  A    between atoms: O_2  and  C_22
REMARK    2  A    between atoms: O_2  and  C_27
REMARK    3  A    between atoms: O_3  and  C_26
REMARK    4  A    between atoms: O_3  and  C_28
REMARK    5  A    between atoms: O_4  and  C_29
REMARK    6  A    between atoms: O_4  and  C_30
REMARK    7  A    between atoms: N_5  and  C_13
REMARK    8  A    between atoms: C_9  and  C_14
REMARK    9  A    between atoms: C_13  and  C_15
REMARK   10  A    between atoms: C_18  and  C_21
REMARK   11  A    between atoms: C_28  and  C_29
REMARK                            x       y       z     vdW  Elec       q    Type
REMARK                         _______ _______ _______ _____ _____    ______ ____
ROOT
ATOM      1  O   UNL     1      -2.449   2.734  25.738  0.00  0.00    -0.336 OA
ATOM      6  N   UNL     1      -2.214   1.883  23.679  0.00  0.00    -0.190 NA
ATOM      7  N   UNL     1      -1.106   2.351  25.625  0.00  0.00    -0.056 NA
ATOM     14  C   UNL     1      -3.029   2.423  24.549  0.00  0.00    +0.245 A 
ATOM     18  C   UNL     1      -1.046   1.859  24.384  0.00  0.00    +0.204 A 
ENDROOT
BRANCH  18  21
ATOM      8  N   UNL     1       2.537   1.582  23.427  0.00  0.00    -0.221 NA
ATOM     21  C   UNL     1       0.165   1.335  23.820  0.00  0.00    +0.041 A 
ATOM     23  C   UNL     1       0.170   0.123  23.137  0.00  0.00    +0.018 A 
ATOM     24  C   UNL     1       1.363   2.020  23.936  0.00  0.00    +0.126 A 
ATOM     25  C   UNL     1       1.359  -0.360  22.599  0.00  0.00    +0.068 A 
ATOM     26  C   UNL     1       2.504   0.401  22.770  0.00  0.00    +0.215 A 
BRANCH  26   3
ATOM      3  O   UNL     1       3.687  -0.053  22.250  0.00  0.00    -0.474 OA
BRANCH   3  28
ATOM     28  C   UNL     1       4.853   0.706  22.552  0.00  0.00    +0.258 C 
BRANCH  28  29
ATOM     29  C   UNL     1       5.843  -0.178  23.285  0.00  0.00    +0.200 C 
BRANCH  29   4
ATOM      4  O   UNL     1       5.185  -0.804  24.380  0.00  0.00    -0.380 OA
ATOM     30  C   UNL     1       4.675  -2.081  24.020  0.00  0.00    +0.194 C 
ENDBRANCH  29   4
ENDBRANCH  28  29
ENDBRANCH   3  28
ENDBRANCH  26   3
ENDBRANCH  18  21
BRANCH  14   9
ATOM      5  N   UNL     1      -5.339   1.981  25.363  0.00  0.00    -0.287 NA
ATOM      9  C   UNL     1      -4.503   2.744  24.414  0.00  0.00    +0.146 C 
ATOM     10  C   UNL     1      -4.819   4.221  24.715  0.00  0.00    +0.030 C 
ATOM     11  C   UNL     1      -5.886   4.186  25.800  0.00  0.00    +0.017 C 
ATOM     12  C   UNL     1      -6.508   2.814  25.644  0.00  0.00    +0.085 C 
BRANCH   5  13
ATOM     13  C   UNL     1      -5.712   0.662  24.868  0.00  0.00    +0.120 C 
BRANCH  13  15
ATOM     15  C   UNL     1      -4.546  -0.291  24.878  0.00  0.00    -0.033 A 
ATOM     16  C   UNL     1      -4.289  -1.091  23.765  0.00  0.00    +0.008 A 
ATOM     17  C   UNL     1      -3.723  -0.372  26.001  0.00  0.00    +0.008 A 
ATOM     19  C   UNL     1      -3.209  -1.974  23.776  0.00  0.00    +0.046 A 
ATOM     20  C   UNL     1      -2.643  -1.254  26.012  0.00  0.00    +0.046 A 
ATOM     22  C   UNL     1      -2.386  -2.055  24.899  0.00  0.00    +0.120 A 
BRANCH  22   2
ATOM      2  O   UNL     1      -1.331  -2.916  24.909  0.00  0.00    -0.495 OA
ATOM     27  C   UNL     1      -0.087  -2.413  25.396  0.00  0.00    +0.277 C 
ENDBRANCH  22   2
ENDBRANCH  13  15
ENDBRANCH   5  13
ENDBRANCH  14   9
TORSDOF 9
ENDMDL
MODEL 2
REMARK VINA RESULT:       0.2      1.690      3.929
REMARK  Name = 45783540
REMARK  11 active torsions:
REMARK  status: ('A' for Active; 'I' for Inactive)
REMARK    1  A    between atoms: O_2  and  C_22
REMARK    2  A    between atoms: O_2  and  C_27
REMARK    3  A    between atoms: O_3  and  C_26
REMARK    4  A    between atoms: O_3  and  C_28
REMARK    5  A    between atoms: O_4  and  C_29
REMARK    6  A    between atoms: O_4  and  C_30
REMARK    7  A    between atoms: N_5  and  C_13
REMARK    8  A    between atoms: C_9  and  C_14
REMARK    9  A    between atoms: C_13  and  C_15
REMARK   10  A    between atoms: C_18  and  C_21
REMARK   11  A    between atoms: C_28  and  C_29
REMARK                            x       y       z     vdW  Elec       q    Type
REMARK                         _______ _______ _______ _____ _____    ______ ____
ROOT
ATOM      1  O   UNL     1      -2.021   0.264  26.040  0.00  0.00    -0.336 OA
ATOM      6  N   UNL     1      -1.350  -0.703  24.134  0.00  0.00    -0.190 NA
ATOM      7  N   UNL     1      -0.766   0.812  25.745  0.00  0.00    -0.056 NA
ATOM     14  C   UNL     1      -2.289  -0.619  25.042  0.00  0.00    +0.245 A 
ATOM     18  C   UNL     1      -0.436   0.192  24.608  0.00  0.00    +0.204 A 
ENDROOT
BRANCH  18  21
ATOM      8  N   UNL     1       2.578  -0.373  22.504  0.00  0.00    -0.221 NA
ATOM     21  C   UNL     1       0.798   0.444  23.922  0.00  0.00    +0.041 A 
ATOM     23  C   UNL     1       1.413   1.690  23.990  0.00  0.00    +0.018 A 
ATOM     24  C   UNL     1       1.415  -0.544  23.173  0.00  0.00    +0.126 A 
ATOM     25  C   UNL     1       2.611   1.905  23.315  0.00  0.00    +0.068 A 
ATOM     26  C   UNL     1       3.147   0.850  22.594  0.00  0.00    +0.215 A 
BRANCH  26   3
ATOM      3  O   UNL     1       4.325   1.037  21.920  0.00  0.00    -0.474 OA
BRANCH   3  28
ATOM     28  C   UNL     1       5.403   0.174  22.263  0.00  0.00    +0.258 C 
BRANCH  28  29
ATOM     29  C   UNL     1       5.923   0.554  23.636  0.00  0.00    +0.200 C 
BRANCH  29   4
ATOM      4  O   UNL     1       5.372  -0.330  24.603  0.00  0.00    -0.380 OA
ATOM     30  C   UNL     1       5.173  -1.631  24.067  0.00  0.00    +0.194 C 
ENDBRANCH  29   4
ENDBRANCH  28  29
ENDBRANCH   3  28
ENDBRANCH  26   3
ENDBRANCH  18  21
BRANCH  14   9
ATOM      5  N   UNL     1      -4.575  -0.913  24.102  0.00  0.00    -0.287 NA
ATOM      9  C   UNL     1      -3.610  -1.354  25.129  0.00  0.00    +0.146 C 
ATOM     10  C   UNL     1      -3.462  -2.870  24.900  0.00  0.00    +0.030 C 
ATOM     11  C   UNL     1      -4.425  -3.197  23.768  0.00  0.00    +0.017 C 
ATOM     12  C   UNL     1      -5.430  -2.064  23.817  0.00  0.00    +0.085 C 
BRANCH   5  13
ATOM     13  C   UNL     1      -5.346   0.257  24.504  0.00  0.00    +0.120 C 
BRANCH  13  15
ATOM     15  C   UNL     1      -4.487   1.491  24.595  0.00  0.00    -0.033 A 
ATOM     16  C   UNL     1      -4.601   2.340  25.696  0.00  0.00    +0.008 A 
ATOM     17  C   UNL     1      -3.578   1.783  23.579  0.00  0.00    +0.008 A 
ATOM     19  C   UNL     1      -3.805   3.483  25.779  0.00  0.00    +0.046 A 
ATOM     20  C   UNL     1      -2.782   2.925  23.662  0.00  0.00    +0.046 A 
ATOM     22  C   UNL     1      -2.896   3.775  24.763  0.00  0.00    +0.120 A 
BRANCH  22   2
ATOM      2  O   UNL     1      -2.119   4.890  24.845  0.00  0.00    -0.495 OA
ATOM     27  C   UNL     1      -0.705   4.701  24.786  0.00  0.00    +0.277 C 
ENDBRANCH  22   2
ENDBRANCH  13  15
ENDBRANCH   5  13
ENDBRANCH  14   9
TORSDOF 9
ENDMDL
