MODEL 1
REMARK VINA RESULT:      12.5      0.000      0.000
REMARK  Name = 7164917
REMARK  7 active torsions:
REMARK  status: ('A' for Active; 'I' for Inactive)
REMARK    1  A    between atoms: N_6  and  C_18
REMARK    2  A    between atoms: N_10  and  C_29
REMARK    3  A    between atoms: C_11  and  C_14
REMARK    4  A    between atoms: C_14  and  C_18
REMARK    5  A    between atoms: C_18  and  C_24
REMARK    6  A    between atoms: C_19  and  C_21
REMARK    7  A    between atoms: C_25  and  C_27
REMARK                            x       y       z     vdW  Elec       q    Type
REMARK                         _______ _______ _______ _____ _____    ______ ____
ROOT
ATOM      4  O   UNL     1      -3.714   1.952  23.742  0.00  0.00    -0.269 OA
ATOM      5  O   UNL     1       2.521  -0.398  21.748  0.00  0.00    -0.252 OA
ATOM      7  N   UNL     1      -1.400   2.099  23.739  0.00  0.00    -0.283 N 
ATOM      8  N   UNL     1       1.217   0.988  23.063  0.00  0.00    -0.282 N 
ATOM     10  N   UNL     1       3.436   0.498  23.691  0.00  0.00    -0.269 N 
ATOM     19  C   UNL     1      -1.268   0.921  22.877  0.00  0.00    +0.179 C 
ATOM     20  C   UNL     1       0.074   0.863  22.153  0.00  0.00    +0.141 C 
ATOM     22  C   UNL     1      -0.156   2.790  24.110  0.00  0.00    +0.128 C 
ATOM     23  C   UNL     1       1.029   1.841  24.243  0.00  0.00    +0.128 C 
ATOM     25  C   UNL     1      -2.693   2.561  24.071  0.00  0.00    +0.254 C 
ATOM     26  C   UNL     1       2.419   0.307  22.754  0.00  0.00    +0.307 C 
ATOM     40  H   UNL     1       3.229   1.033  24.528  0.00  0.00    +0.156 HD
ENDROOT
BRANCH  10  29
ATOM     29  C   UNL     1       4.746  -0.041  23.671  0.00  0.00    +0.035 A 
ATOM     32  C   UNL     1       5.842   0.796  23.465  0.00  0.00    +0.023 A 
ATOM     33  C   UNL     1       4.939  -1.410  23.857  0.00  0.00    +0.023 A 
ATOM     34  C   UNL     1       7.131   0.265  23.446  0.00  0.00    +0.002 A 
ATOM     35  C   UNL     1       6.229  -1.941  23.837  0.00  0.00    +0.002 A 
ATOM     36  C   UNL     1       7.325  -1.104  23.632  0.00  0.00    +0.000 A 
ENDBRANCH  10  29
BRANCH  25  27
ATOM      1  S   UNL     1      -1.703   5.077  24.499  0.00  0.00    -0.092 S 
ATOM     27  C   UNL     1      -2.789   3.797  24.840  0.00  0.00    +0.074 A 
ATOM     28  C   UNL     1      -3.665   4.118  25.853  0.00  0.00    +0.021 A 
ATOM     30  C   UNL     1      -3.442   5.432  26.357  0.00  0.00    +0.008 A 
ATOM     31  C   UNL     1      -2.403   6.065  25.710  0.00  0.00    +0.046 A 
ENDBRANCH  25  27
BRANCH  19  21
ATOM      2  O   UNL     1      -0.595  -1.139  23.885  0.00  0.00    -0.274 OA
ATOM      6  N   UNL     1      -2.725  -0.311  24.331  0.00  0.00    -0.302 N 
ATOM     21  C   UNL     1      -1.469  -0.286  23.749  0.00  0.00    +0.236 C 
ATOM     37  H   UNL     1      -3.398   0.407  24.078  0.00  0.00    +0.150 HD
BRANCH   6  18
ATOM     18  C   UNL     1      -3.176  -1.378  25.195  0.00  0.00    +0.159 C 
BRANCH  18  24
ATOM      3  O   UNL     1      -4.598  -2.753  23.784  0.00  0.00    -0.274 OA
ATOM      9  N   UNL     1      -2.486  -3.507  24.277  0.00  0.00    -0.328 N 
ATOM     24  C   UNL     1      -3.514  -2.590  24.339  0.00  0.00    +0.231 C 
ATOM     38  H   UNL     1      -2.585  -4.365  23.745  0.00  0.00    +0.145 HD
ATOM     39  H   UNL     1      -1.602  -3.369  24.757  0.00  0.00    +0.145 HD
ENDBRANCH  18  24
BRANCH  18  14
ATOM     14  C   UNL     1      -4.338  -0.942  26.093  0.00  0.00    +0.035 C 
BRANCH  14  11
ATOM     11  C   UNL     1      -4.884   0.449  25.781  0.00  0.00    -0.009 C 
ATOM     12  C   UNL     1      -5.782   0.413  24.537  0.00  0.00    +0.003 C 
ATOM     13  C   UNL     1      -5.645   1.016  26.986  0.00  0.00    +0.003 C 
ATOM     15  C   UNL     1      -6.383   1.783  24.235  0.00  0.00    +0.000 C 
ATOM     16  C   UNL     1      -6.246   2.386  26.681  0.00  0.00    +0.000 C 
ATOM     17  C   UNL     1      -7.131   2.348  25.438  0.00  0.00    +0.000 C 
ENDBRANCH  14  11
ENDBRANCH  18  14
ENDBRANCH   6  18
ENDBRANCH  19  21
TORSDOF 7
ENDMDL
MODEL 2
REMARK VINA RESULT:      14.2      1.748      2.363
REMARK  Name = 7164917
REMARK  7 active torsions:
REMARK  status: ('A' for Active; 'I' for Inactive)
REMARK    1  A    between atoms: N_6  and  C_18
REMARK    2  A    between atoms: N_10  and  C_29
REMARK    3  A    between atoms: C_11  and  C_14
REMARK    4  A    between atoms: C_14  and  C_18
REMARK    5  A    between atoms: C_18  and  C_24
REMARK    6  A    between atoms: C_19  and  C_21
REMARK    7  A    between atoms: C_25  and  C_27
REMARK                            x       y       z     vdW  Elec       q    Type
REMARK                         _______ _______ _______ _____ _____    ______ ____
ROOT
ATOM      4  O   UNL     1      -3.563   1.462  23.982  0.00  0.00    -0.269 OA
ATOM      5  O   UNL     1       2.764  -0.268  21.669  0.00  0.00    -0.252 OA
ATOM      7  N   UNL     1      -1.284   1.861  23.826  0.00  0.00    -0.283 N 
ATOM      8  N   UNL     1       1.395   1.018  23.019  0.00  0.00    -0.282 N 
ATOM     10  N   UNL     1       3.688   0.800  23.519  0.00  0.00    -0.269 N 
ATOM     19  C   UNL     1      -1.074   0.672  22.996  0.00  0.00    +0.179 C 
ATOM     20  C   UNL     1       0.221   0.732  22.190  0.00  0.00    +0.141 C 
ATOM     22  C   UNL     1      -0.106   2.698  24.093  0.00  0.00    +0.128 C 
ATOM     23  C   UNL     1       1.185   1.892  24.180  0.00  0.00    +0.128 C 
ATOM     25  C   UNL     1      -2.598   2.191  24.224  0.00  0.00    +0.254 C 
ATOM     26  C   UNL     1       2.645   0.461  22.656  0.00  0.00    +0.307 C 
ATOM     40  H   UNL     1       3.474   1.341  24.350  0.00  0.00    +0.156 HD
ENDROOT
BRANCH  10  29
ATOM     29  C   UNL     1       5.047   0.407  23.432  0.00  0.00    +0.035 A 
ATOM     32  C   UNL     1       6.027   1.131  24.111  0.00  0.00    +0.023 A 
ATOM     33  C   UNL     1       5.404  -0.704  22.668  0.00  0.00    +0.023 A 
ATOM     34  C   UNL     1       7.364   0.743  24.026  0.00  0.00    +0.002 A 
ATOM     35  C   UNL     1       6.741  -1.091  22.583  0.00  0.00    +0.002 A 
ATOM     36  C   UNL     1       7.721  -0.368  23.262  0.00  0.00    +0.000 A 
ENDBRANCH  10  29
BRANCH  25  27
ATOM      1  S   UNL     1      -4.219   3.665  25.867  0.00  0.00    -0.092 S 
ATOM     27  C   UNL     1      -2.786   3.440  24.957  0.00  0.00    +0.074 A 
ATOM     28  C   UNL     1      -1.945   4.528  25.038  0.00  0.00    +0.021 A 
ATOM     30  C   UNL     1      -2.484   5.561  25.858  0.00  0.00    +0.008 A 
ATOM     31  C   UNL     1      -3.717   5.222  26.372  0.00  0.00    +0.046 A 
ENDBRANCH  25  27
BRANCH  19  21
ATOM      2  O   UNL     1      -1.090  -1.667  23.492  0.00  0.00    -0.274 OA
ATOM      6  N   UNL     1      -1.109  -0.143  25.252  0.00  0.00    -0.302 N 
ATOM     21  C   UNL     1      -1.085  -0.515  23.918  0.00  0.00    +0.236 C 
ATOM     37  H   UNL     1      -1.189   0.843  25.487  0.00  0.00    +0.150 HD
BRANCH   6  18
ATOM     18  C   UNL     1      -1.147  -1.095  26.339  0.00  0.00    +0.159 C 
BRANCH  18  24
ATOM      3  O   UNL     1      -1.240  -3.443  25.719  0.00  0.00    -0.274 OA
ATOM      9  N   UNL     1       0.780  -2.356  25.596  0.00  0.00    -0.328 N 
ATOM     24  C   UNL     1      -0.575  -2.417  25.849  0.00  0.00    +0.231 C 
ATOM     38  H   UNL     1       1.287  -3.173  25.272  0.00  0.00    +0.145 HD
ATOM     39  H   UNL     1       1.321  -1.508  25.726  0.00  0.00    +0.145 HD
ENDBRANCH  18  24
BRANCH  18  14
ATOM     14  C   UNL     1      -2.552  -1.239  26.932  0.00  0.00    +0.035 C 
BRANCH  14  11
ATOM     11  C   UNL     1      -3.614  -1.684  25.930  0.00  0.00    -0.009 C 
ATOM     12  C   UNL     1      -4.021  -0.518  25.018  0.00  0.00    +0.003 C 
ATOM     13  C   UNL     1      -3.113  -2.874  25.102  0.00  0.00    +0.003 C 
ATOM     15  C   UNL     1      -5.044  -0.951  23.971  0.00  0.00    +0.000 C 
ATOM     16  C   UNL     1      -4.138  -3.304  24.055  0.00  0.00    +0.000 C 
ATOM     17  C   UNL     1      -4.547  -2.142  23.157  0.00  0.00    +0.000 C 
ENDBRANCH  14  11
ENDBRANCH  18  14
ENDBRANCH   6  18
ENDBRANCH  19  21
TORSDOF 7
ENDMDL
