MODEL 1
REMARK VINA RESULT:      -5.9      0.000      0.000
REMARK  Name = 45783871
REMARK  14 active torsions:
REMARK  status: ('A' for Active; 'I' for Inactive)
REMARK    1  A    between atoms: O_3  and  C_26
REMARK    2  A    between atoms: N_5  and  C_15
REMARK    3  A    between atoms: N_6  and  C_23
REMARK    4  A    between atoms: C_8  and  C_12
REMARK    5  A    between atoms: C_9  and  C_15
REMARK    6  A    between atoms: C_11  and  C_16
REMARK    7  A    between atoms: C_12  and  C_17
REMARK    8  A    between atoms: C_12  and  C_18
REMARK    9  A    between atoms: C_13  and  C_19
REMARK   10  A    between atoms: C_16  and  C_20
REMARK   11  A    between atoms: C_21  and  C_22
REMARK   12  A    between atoms: C_22  and  C_24
REMARK   13  A    between atoms: C_23  and  C_25
REMARK   14  A    between atoms: C_24  and  C_26
REMARK                            x       y       z     vdW  Elec       q    Type
REMARK                         _______ _______ _______ _____ _____    ______ ____
ROOT
ATOM      8  C   UNL     1      -1.167   0.337  24.641  0.00  0.00    +0.000 C 
ATOM      9  C   UNL     1      -0.382  -0.990  24.485  0.00  0.00    +0.032 C 
ATOM     10  C   UNL     1      -2.290   0.177  25.676  0.00  0.00    +0.012 C 
ATOM     11  C   UNL     1      -3.284  -0.935  25.290  0.00  0.00    +0.023 C 
ATOM     13  C   UNL     1      -2.572  -2.203  24.863  0.00  0.00    -0.073 C 
ATOM     14  C   UNL     1      -1.271  -2.211  24.521  0.00  0.00    -0.022 C 
ATOM     19  C   UNL     1      -3.378  -3.471  24.884  0.00  0.00    +0.039 C 
ENDROOT
BRANCH   8  12
ATOM     12  C   UNL     1      -0.249   1.495  25.044  0.00  0.00    -0.013 C 
ATOM     17  C   UNL     1      -0.549   1.938  26.472  0.00  0.00    +0.007 C 
ATOM     18  C   UNL     1      -0.406   2.661  24.072  0.00  0.00    +0.007 C 
ENDBRANCH   8  12
BRANCH   9  15
ATOM     15  C   UNL     1       0.444  -0.997  23.193  0.00  0.00    +0.112 C 
BRANCH  15   5
ATOM      2  O   UNL     1       2.287  -0.193  21.113  0.00  0.00    -0.276 OA
ATOM      5  N   UNL     1       1.627  -0.209  23.344  0.00  0.00    -0.315 N 
ATOM     21  C   UNL     1       2.466   0.137  22.282  0.00  0.00    +0.214 C 
ATOM     31  H   UNL     1       1.839   0.164  24.264  0.00  0.00    +0.149 HD
BRANCH  21  22
ATOM     22  C   UNL     1       3.646   0.975  22.737  0.00  0.00    +0.107 C 
BRANCH  22  24
ATOM     24  C   UNL     1       4.949   0.183  22.762  0.00  0.00    +0.129 C 
BRANCH  24  26
ATOM      4  O   UNL     1       5.817  -0.387  24.963  0.00  0.00    -0.251 OA
ATOM     26  C   UNL     1       5.084  -0.646  24.018  0.00  0.00    +0.305 C 
BRANCH  26   3
ATOM      3  O   UNL     1       4.278  -1.738  23.981  0.00  0.00    -0.481 OA
ATOM     33  H   UNL     1       3.940  -1.973  24.872  0.00  0.00    +0.295 HD
ENDBRANCH  26   3
ENDBRANCH  24  26
ENDBRANCH  22  24
ENDBRANCH  21  22
ENDBRANCH  15   5
ENDBRANCH   9  15
BRANCH  11  16
ATOM     16  C   UNL     1      -4.253  -0.457  24.204  0.00  0.00    +0.103 C 
BRANCH  16  20
ATOM      1  O   UNL     1      -3.759   1.758  23.366  0.00  0.00    -0.276 OA
ATOM      6  N   UNL     1      -5.238   1.509  25.141  0.00  0.00    -0.310 N 
ATOM     20  C   UNL     1      -4.367   1.049  24.165  0.00  0.00    +0.214 C 
ATOM     32  H   UNL     1      -5.697   0.843  25.756  0.00  0.00    +0.149 HD
BRANCH   6  23
ATOM     23  C   UNL     1      -5.539   2.908  25.336  0.00  0.00    +0.159 C 
BRANCH  23  25
ATOM      7  N   UNL     1      -4.036   4.422  24.172  0.00  0.00    -0.258 NA
ATOM     25  C   UNL     1      -4.301   3.758  25.319  0.00  0.00    +0.058 A 
ATOM     27  C   UNL     1      -3.508   3.822  26.453  0.00  0.00    +0.025 A 
ATOM     28  C   UNL     1      -2.369   4.620  26.406  0.00  0.00    +0.003 A 
ATOM     29  C   UNL     1      -2.922   5.186  24.164  0.00  0.00    +0.111 A 
ATOM     30  C   UNL     1      -2.064   5.318  25.243  0.00  0.00    +0.020 A 
ENDBRANCH  23  25
ENDBRANCH   6  23
ENDBRANCH  16  20
ENDBRANCH  11  16
TORSDOF 11
ENDMDL
MODEL 2
REMARK VINA RESULT:      -5.1      1.632      3.302
REMARK  Name = 45783871
REMARK  14 active torsions:
REMARK  status: ('A' for Active; 'I' for Inactive)
REMARK    1  A    between atoms: O_3  and  C_26
REMARK    2  A    between atoms: N_5  and  C_15
REMARK    3  A    between atoms: N_6  and  C_23
REMARK    4  A    between atoms: C_8  and  C_12
REMARK    5  A    between atoms: C_9  and  C_15
REMARK    6  A    between atoms: C_11  and  C_16
REMARK    7  A    between atoms: C_12  and  C_17
REMARK    8  A    between atoms: C_12  and  C_18
REMARK    9  A    between atoms: C_13  and  C_19
REMARK   10  A    between atoms: C_16  and  C_20
REMARK   11  A    between atoms: C_21  and  C_22
REMARK   12  A    between atoms: C_22  and  C_24
REMARK   13  A    between atoms: C_23  and  C_25
REMARK   14  A    between atoms: C_24  and  C_26
REMARK                            x       y       z     vdW  Elec       q    Type
REMARK                         _______ _______ _______ _____ _____    ______ ____
ROOT
ATOM      8  C   UNL     1      -3.399  -0.810  25.043  0.00  0.00    +0.000 C 
ATOM      9  C   UNL     1      -2.191  -0.070  24.417  0.00  0.00    +0.032 C 
ATOM     10  C   UNL     1      -4.664  -0.577  24.204  0.00  0.00    +0.012 C 
ATOM     11  C   UNL     1      -5.016   0.919  24.086  0.00  0.00    +0.023 C 
ATOM     13  C   UNL     1      -3.804   1.756  23.730  0.00  0.00    -0.073 C 
ATOM     14  C   UNL     1      -2.550   1.292  23.871  0.00  0.00    -0.022 C 
ATOM     19  C   UNL     1      -4.069   3.123  23.164  0.00  0.00    +0.039 C 
ENDROOT
BRANCH   8  12
ATOM     12  C   UNL     1      -3.136  -2.313  25.177  0.00  0.00    -0.013 C 
ATOM     17  C   UNL     1      -1.662  -2.620  24.930  0.00  0.00    +0.007 C 
ATOM     18  C   UNL     1      -4.020  -3.096  24.210  0.00  0.00    +0.007 C 
ENDBRANCH   8  12
BRANCH   9  15
ATOM     15  C   UNL     1      -1.044   0.069  25.424  0.00  0.00    +0.112 C 
BRANCH  15   5
ATOM      2  O   UNL     1       0.470  -0.814  23.122  0.00  0.00    -0.276 OA
ATOM      5  N   UNL     1       0.080   0.720  24.827  0.00  0.00    -0.315 N 
ATOM     21  C   UNL     1       0.757   0.225  23.711  0.00  0.00    +0.214 C 
ATOM     31  H   UNL     1       0.367   1.619  25.202  0.00  0.00    +0.149 HD
BRANCH  21  22
ATOM     22  C   UNL     1       1.909   1.122  23.297  0.00  0.00    +0.107 C 
BRANCH  22  24
ATOM     24  C   UNL     1       2.979   0.372  22.511  0.00  0.00    +0.129 C 
BRANCH  24  26
ATOM      4  O   UNL     1       5.066   0.843  23.670  0.00  0.00    -0.251 OA
ATOM     26  C   UNL     1       4.186   0.051  23.361  0.00  0.00    +0.305 C 
BRANCH  26   3
ATOM      3  O   UNL     1       4.184  -1.248  23.755  0.00  0.00    -0.481 OA
ATOM     33  H   UNL     1       3.730  -1.368  24.617  0.00  0.00    +0.295 HD
ENDBRANCH  26   3
ENDBRANCH  24  26
ENDBRANCH  22  24
ENDBRANCH  21  22
ENDBRANCH  15   5
ENDBRANCH   9  15
BRANCH  11  16
ATOM     16  C   UNL     1      -5.682   1.432  25.367  0.00  0.00    +0.103 C 
BRANCH  16  20
ATOM      1  O   UNL     1      -5.914   3.837  25.482  0.00  0.00    -0.276 OA
ATOM      6  N   UNL     1      -3.995   2.831  26.321  0.00  0.00    -0.310 N 
ATOM     20  C   UNL     1      -5.242   2.836  25.714  0.00  0.00    +0.214 C 
ATOM     32  H   UNL     1      -3.515   1.948  26.474  0.00  0.00    +0.149 HD
BRANCH   6  23
ATOM     23  C   UNL     1      -3.326   4.034  26.760  0.00  0.00    +0.159 C 
BRANCH  23  25
ATOM      7  N   UNL     1      -1.151   3.428  25.863  0.00  0.00    -0.258 NA
ATOM     25  C   UNL     1      -2.132   4.357  25.910  0.00  0.00    +0.058 A 
ATOM     27  C   UNL     1      -2.092   5.561  25.226  0.00  0.00    +0.025 A 
ATOM     28  C   UNL     1      -0.973   5.829  24.445  0.00  0.00    +0.003 A 
ATOM     29  C   UNL     1      -0.080   3.723  25.094  0.00  0.00    +0.111 A 
ATOM     30  C   UNL     1       0.057   4.898  24.372  0.00  0.00    +0.020 A 
ENDBRANCH  23  25
ENDBRANCH   6  23
ENDBRANCH  16  20
ENDBRANCH  11  16
TORSDOF 11
ENDMDL
MODEL 3
REMARK VINA RESULT:      -4.6      1.892      7.586
REMARK  Name = 45783871
REMARK  14 active torsions:
REMARK  status: ('A' for Active; 'I' for Inactive)
REMARK    1  A    between atoms: O_3  and  C_26
REMARK    2  A    between atoms: N_5  and  C_15
REMARK    3  A    between atoms: N_6  and  C_23
REMARK    4  A    between atoms: C_8  and  C_12
REMARK    5  A    between atoms: C_9  and  C_15
REMARK    6  A    between atoms: C_11  and  C_16
REMARK    7  A    between atoms: C_12  and  C_17
REMARK    8  A    between atoms: C_12  and  C_18
REMARK    9  A    between atoms: C_13  and  C_19
REMARK   10  A    between atoms: C_16  and  C_20
REMARK   11  A    between atoms: C_21  and  C_22
REMARK   12  A    between atoms: C_22  and  C_24
REMARK   13  A    between atoms: C_23  and  C_25
REMARK   14  A    between atoms: C_24  and  C_26
REMARK                            x       y       z     vdW  Elec       q    Type
REMARK                         _______ _______ _______ _____ _____    ______ ____
ROOT
ATOM      8  C   UNL     1      -2.885  -1.224  24.531  0.00  0.00    +0.000 C 
ATOM      9  C   UNL     1      -3.431  -0.328  25.671  0.00  0.00    +0.032 C 
ATOM     10  C   UNL     1      -1.382  -1.476  24.720  0.00  0.00    +0.012 C 
ATOM     11  C   UNL     1      -0.570  -0.166  24.744  0.00  0.00    +0.023 C 
ATOM     13  C   UNL     1      -1.202   0.871  25.649  0.00  0.00    -0.073 C 
ATOM     14  C   UNL     1      -2.477   0.775  26.065  0.00  0.00    -0.022 C 
ATOM     19  C   UNL     1      -0.318   1.999  26.105  0.00  0.00    +0.039 C 
ENDROOT
BRANCH   8  12
ATOM     12  C   UNL     1      -3.629  -2.560  24.453  0.00  0.00    -0.013 C 
ATOM     17  C   UNL     1      -2.656  -3.695  24.154  0.00  0.00    +0.007 C 
ATOM     18  C   UNL     1      -4.726  -2.496  23.393  0.00  0.00    +0.007 C 
ENDBRANCH   8  12
BRANCH   9  15
ATOM     15  C   UNL     1      -4.788   0.279  25.297  0.00  0.00    +0.112 C 
BRANCH  15   5
ATOM      2  O   UNL     1      -6.243   2.475  26.494  0.00  0.00    -0.276 OA
ATOM      5  N   UNL     1      -4.655   1.670  24.996  0.00  0.00    -0.315 N 
ATOM     21  C   UNL     1      -5.399   2.671  25.624  0.00  0.00    +0.214 C 
ATOM     31  H   UNL     1      -3.942   1.949  24.329  0.00  0.00    +0.149 HD
BRANCH  21  22
ATOM     22  C   UNL     1      -5.050   4.054  25.104  0.00  0.00    +0.107 C 
BRANCH  22  24
ATOM     24  C   UNL     1      -3.678   4.097  24.438  0.00  0.00    +0.129 C 
BRANCH  24  26
ATOM      4  O   UNL     1      -1.577   5.127  25.106  0.00  0.00    -0.251 OA
ATOM     26  C   UNL     1      -2.593   4.514  25.404  0.00  0.00    +0.305 C 
BRANCH  26   3
ATOM      3  O   UNL     1      -2.881   4.125  26.672  0.00  0.00    -0.481 OA
ATOM     33  H   UNL     1      -3.718   4.521  26.995  0.00  0.00    +0.295 HD
ENDBRANCH  26   3
ENDBRANCH  24  26
ENDBRANCH  22  24
ENDBRANCH  21  22
ENDBRANCH  15   5
ENDBRANCH   9  15
BRANCH  11  16
ATOM     16  C   UNL     1      -0.374   0.387  23.328  0.00  0.00    +0.103 C 
BRANCH  16  20
ATOM      1  O   UNL     1       1.673   1.625  23.684  0.00  0.00    -0.276 OA
ATOM      6  N   UNL     1       1.590   0.005  22.021  0.00  0.00    -0.310 N 
ATOM     20  C   UNL     1       1.065   0.761  23.057  0.00  0.00    +0.214 C 
ATOM     32  H   UNL     1       1.008  -0.690  21.562  0.00  0.00    +0.149 HD
BRANCH   6  23
ATOM     23  C   UNL     1       2.947   0.150  21.546  0.00  0.00    +0.159 C 
BRANCH  23  25
ATOM      7  N   UNL     1       3.946  -1.359  23.166  0.00  0.00    -0.258 NA
ATOM     25  C   UNL     1       3.954  -0.121  22.626  0.00  0.00    +0.058 A 
ATOM     27  C   UNL     1       4.826   0.886  23.007  0.00  0.00    +0.025 A 
ATOM     28  C   UNL     1       5.748   0.603  24.010  0.00  0.00    +0.003 A 
ATOM     29  C   UNL     1       4.855  -1.598  24.136  0.00  0.00    +0.111 A 
ATOM     30  C   UNL     1       5.769  -0.661  24.590  0.00  0.00    +0.020 A 
ENDBRANCH  23  25
ENDBRANCH   6  23
ENDBRANCH  16  20
ENDBRANCH  11  16
TORSDOF 11
ENDMDL
MODEL 4
REMARK VINA RESULT:      -4.6      1.663      4.633
REMARK  Name = 45783871
REMARK  14 active torsions:
REMARK  status: ('A' for Active; 'I' for Inactive)
REMARK    1  A    between atoms: O_3  and  C_26
REMARK    2  A    between atoms: N_5  and  C_15
REMARK    3  A    between atoms: N_6  and  C_23
REMARK    4  A    between atoms: C_8  and  C_12
REMARK    5  A    between atoms: C_9  and  C_15
REMARK    6  A    between atoms: C_11  and  C_16
REMARK    7  A    between atoms: C_12  and  C_17
REMARK    8  A    between atoms: C_12  and  C_18
REMARK    9  A    between atoms: C_13  and  C_19
REMARK   10  A    between atoms: C_16  and  C_20
REMARK   11  A    between atoms: C_21  and  C_22
REMARK   12  A    between atoms: C_22  and  C_24
REMARK   13  A    between atoms: C_23  and  C_25
REMARK   14  A    between atoms: C_24  and  C_26
REMARK                            x       y       z     vdW  Elec       q    Type
REMARK                         _______ _______ _______ _____ _____    ______ ____
ROOT
ATOM      8  C   UNL     1      -2.240   2.127  23.665  0.00  0.00    +0.000 C 
ATOM      9  C   UNL     1      -0.871   2.816  23.894  0.00  0.00    +0.032 C 
ATOM     10  C   UNL     1      -3.323   3.174  23.366  0.00  0.00    +0.012 C 
ATOM     11  C   UNL     1      -3.475   4.197  24.508  0.00  0.00    +0.023 C 
ATOM     13  C   UNL     1      -2.134   4.726  24.973  0.00  0.00    -0.073 C 
ATOM     14  C   UNL     1      -0.979   4.103  24.677  0.00  0.00    -0.022 C 
ATOM     19  C   UNL     1      -2.146   6.014  25.748  0.00  0.00    +0.039 C 
ENDROOT
BRANCH   8  12
ATOM     12  C   UNL     1      -2.178   1.104  22.527  0.00  0.00    -0.013 C 
ATOM     17  C   UNL     1      -2.207   1.809  21.176  0.00  0.00    +0.007 C 
ATOM     18  C   UNL     1      -3.330   0.110  22.644  0.00  0.00    +0.007 C 
ENDBRANCH   8  12
BRANCH   9  15
ATOM     15  C   UNL     1       0.113   1.872  24.595  0.00  0.00    +0.112 C 
BRANCH  15   5
ATOM      2  O   UNL     1       0.599  -0.617  23.201  0.00  0.00    -0.276 OA
ATOM      5  N   UNL     1       1.215   1.561  23.739  0.00  0.00    -0.315 N 
ATOM     21  C   UNL     1       1.375   0.330  23.100  0.00  0.00    +0.214 C 
ATOM     31  H   UNL     1       1.889   2.295  23.541  0.00  0.00    +0.149 HD
BRANCH  21  22
ATOM     22  C   UNL     1       2.636   0.283  22.257  0.00  0.00    +0.107 C 
BRANCH  22  24
ATOM     24  C   UNL     1       3.832   0.917  22.961  0.00  0.00    +0.129 C 
BRANCH  24  26
ATOM      4  O   UNL     1       6.059   0.015  23.342  0.00  0.00    -0.251 OA
ATOM     26  C   UNL     1       4.844  -0.115  23.399  0.00  0.00    +0.305 C 
BRANCH  26   3
ATOM      3  O   UNL     1       4.239  -1.232  23.878  0.00  0.00    -0.481 OA
ATOM     33  H   UNL     1       4.757  -1.647  24.601  0.00  0.00    +0.295 HD
ENDBRANCH  26   3
ENDBRANCH  24  26
ENDBRANCH  22  24
ENDBRANCH  21  22
ENDBRANCH  15   5
ENDBRANCH   9  15
BRANCH  11  16
ATOM     16  C   UNL     1      -4.268   3.605  25.678  0.00  0.00    +0.103 C 
BRANCH  16  20
ATOM      1  O   UNL     1      -5.959   2.221  24.640  0.00  0.00    -0.276 OA
ATOM      6  N   UNL     1      -4.234   1.220  25.831  0.00  0.00    -0.310 N 
ATOM     20  C   UNL     1      -4.933   2.298  25.311  0.00  0.00    +0.214 C 
ATOM     32  H   UNL     1      -3.391   1.384  26.375  0.00  0.00    +0.149 HD
BRANCH   6  23
ATOM     23  C   UNL     1      -4.642  -0.153  25.639  0.00  0.00    +0.159 C 
BRANCH  23  25
ATOM      7  N   UNL     1      -2.270  -0.635  25.840  0.00  0.00    -0.258 NA
ATOM     25  C   UNL     1      -3.471  -1.058  25.389  0.00  0.00    +0.058 A 
ATOM     27  C   UNL     1      -3.672  -2.257  24.724  0.00  0.00    +0.025 A 
ATOM     28  C   UNL     1      -2.567  -3.074  24.509  0.00  0.00    +0.003 A 
ATOM     29  C   UNL     1      -1.220  -1.455  25.613  0.00  0.00    +0.111 A 
ATOM     30  C   UNL     1      -1.314  -2.673  24.959  0.00  0.00    +0.020 A 
ENDBRANCH  23  25
ENDBRANCH   6  23
ENDBRANCH  16  20
ENDBRANCH  11  16
TORSDOF 11
ENDMDL
