MODEL 1
REMARK VINA RESULT:       2.0      0.000      0.000
REMARK  Name = 11865808
REMARK  10 active torsions:
REMARK  status: ('A' for Active; 'I' for Inactive)
REMARK    1  A    between atoms: O_2  and  C_21
REMARK    2  A    between atoms: O_2  and  C_29
REMARK    3  A    between atoms: N_8  and  C_12
REMARK    4  A    between atoms: N_9  and  C_28
REMARK    5  A    between atoms: N_10  and  C_25
REMARK    6  A    between atoms: C_11  and  C_15
REMARK    7  A    between atoms: C_16  and  C_21
REMARK    8  A    between atoms: C_20  and  C_22
REMARK    9  A    between atoms: C_25  and  C_30
REMARK   10  A    between atoms: C_25  and  C_31
REMARK                            x       y       z     vdW  Elec       q    Type
REMARK                         _______ _______ _______ _____ _____    ______ ____
ROOT
ATOM      3  O   UNL     1      -2.184   0.475  25.982  0.00  0.00    -0.268 OA
ATOM      6  N   UNL     1      -0.910   0.223  24.076  0.00  0.00    -0.283 N 
ATOM     11  C   UNL     1      -0.292   1.544  24.145  0.00  0.00    +0.183 C 
ATOM     12  C   UNL     1       0.863   1.493  23.145  0.00  0.00    +0.105 C 
ATOM     13  C   UNL     1       0.392   0.466  22.113  0.00  0.00    +0.043 C 
ATOM     14  C   UNL     1      -0.393  -0.542  22.941  0.00  0.00    +0.111 C 
ATOM     20  C   UNL     1      -1.795  -0.237  25.055  0.00  0.00    +0.264 C 
ENDROOT
BRANCH  11  15
ATOM      1  O   UNL     1      -1.670   2.626  22.532  0.00  0.00    -0.273 OA
ATOM      7  N   UNL     1      -1.891   3.303  24.733  0.00  0.00    -0.286 N 
ATOM     15  C   UNL     1      -1.342   2.538  23.716  0.00  0.00    +0.239 C 
ATOM     16  C   UNL     1      -2.796   4.416  24.475  0.00  0.00    +0.185 C 
ATOM     17  C   UNL     1      -1.534   3.233  26.148  0.00  0.00    +0.109 C 
ATOM     18  C   UNL     1      -2.779   5.235  25.760  0.00  0.00    +0.035 C 
ATOM     19  C   UNL     1      -2.485   4.197  26.840  0.00  0.00    +0.021 C 
BRANCH  16  21
ATOM      4  O   UNL     1      -4.487   3.349  23.133  0.00  0.00    -0.249 OA
ATOM     21  C   UNL     1      -4.150   3.830  24.206  0.00  0.00    +0.328 C 
BRANCH  21   2
ATOM      2  O   UNL     1      -4.918   3.923  25.329  0.00  0.00    -0.467 OA
ATOM     29  C   UNL     1      -5.578   2.717  25.724  0.00  0.00    +0.280 C 
ENDBRANCH  21   2
ENDBRANCH  16  21
ENDBRANCH  11  15
BRANCH  12   8
ATOM      5  O   UNL     1       3.239   0.490  21.850  0.00  0.00    -0.253 OA
ATOM      8  N   UNL     1       2.087   1.064  23.782  0.00  0.00    -0.294 N 
ATOM     10  N   UNL     1       4.231   0.248  23.933  0.00  0.00    -0.297 N 
ATOM     23  C   UNL     1       3.189   0.591  23.075  0.00  0.00    +0.300 C 
ATOM     32  H   UNL     1       2.122   1.041  24.797  0.00  0.00    +0.151 HD
ATOM     33  H   UNL     1       4.123   0.440  24.924  0.00  0.00    +0.150 HD
BRANCH  10  25
ATOM     25  C   UNL     1       5.494  -0.271  23.463  0.00  0.00    +0.068 C 
ATOM     30  C   UNL     1       5.678  -1.711  23.923  0.00  0.00    +0.027 C 
ATOM     31  C   UNL     1       6.643   0.611  23.934  0.00  0.00    +0.027 C 
ENDBRANCH  10  25
ENDBRANCH  12   8
BRANCH  20  22
ATOM      9  N   UNL     1      -3.511  -1.956  24.455  0.00  0.00    -0.346 N 
ATOM     22  C   UNL     1      -2.269  -1.608  24.912  0.00  0.00    +0.104 A 
ATOM     24  C   UNL     1      -1.582  -2.764  25.198  0.00  0.00    +0.032 A 
ATOM     26  C   UNL     1      -3.629  -3.321  24.445  0.00  0.00    +0.086 A 
ATOM     27  C   UNL     1      -2.442  -3.850  24.904  0.00  0.00    +0.020 A 
ATOM     28  C   UNL     1      -4.552  -1.039  24.043  0.00  0.00    +0.149 C 
ENDBRANCH  20  22
TORSDOF 6
ENDMDL
MODEL 2
REMARK VINA RESULT:       3.9      1.439      2.268
REMARK  Name = 11865808
REMARK  10 active torsions:
REMARK  status: ('A' for Active; 'I' for Inactive)
REMARK    1  A    between atoms: O_2  and  C_21
REMARK    2  A    between atoms: O_2  and  C_29
REMARK    3  A    between atoms: N_8  and  C_12
REMARK    4  A    between atoms: N_9  and  C_28
REMARK    5  A    between atoms: N_10  and  C_25
REMARK    6  A    between atoms: C_11  and  C_15
REMARK    7  A    between atoms: C_16  and  C_21
REMARK    8  A    between atoms: C_20  and  C_22
REMARK    9  A    between atoms: C_25  and  C_30
REMARK   10  A    between atoms: C_25  and  C_31
REMARK                            x       y       z     vdW  Elec       q    Type
REMARK                         _______ _______ _______ _____ _____    ______ ____
ROOT
ATOM      3  O   UNL     1      -1.964  -0.783  26.665  0.00  0.00    -0.268 OA
ATOM      6  N   UNL     1      -1.253  -0.031  24.603  0.00  0.00    -0.283 N 
ATOM     11  C   UNL     1      -0.217   0.855  25.127  0.00  0.00    +0.183 C 
ATOM     12  C   UNL     1       0.631   1.233  23.913  0.00  0.00    +0.105 C 
ATOM     13  C   UNL     1      -0.357   1.136  22.748  0.00  0.00    +0.043 C 
ATOM     14  C   UNL     1      -1.263  -0.023  23.140  0.00  0.00    +0.111 C 
ATOM     20  C   UNL     1      -2.033  -0.838  25.436  0.00  0.00    +0.264 C 
ENDROOT
BRANCH  11  15
ATOM      1  O   UNL     1      -0.506   2.598  26.724  0.00  0.00    -0.273 OA
ATOM      7  N   UNL     1      -2.030   2.495  24.987  0.00  0.00    -0.286 N 
ATOM     15  C   UNL     1      -0.923   2.059  25.697  0.00  0.00    +0.239 C 
ATOM     16  C   UNL     1      -2.917   3.540  25.482  0.00  0.00    +0.185 C 
ATOM     17  C   UNL     1      -2.560   1.889  23.767  0.00  0.00    +0.109 C 
ATOM     18  C   UNL     1      -4.196   3.380  24.667  0.00  0.00    +0.035 C 
ATOM     19  C   UNL     1      -3.705   2.796  23.345  0.00  0.00    +0.021 C 
BRANCH  16  21
ATOM      4  O   UNL     1      -2.503   5.889  25.810  0.00  0.00    -0.249 OA
ATOM     21  C   UNL     1      -2.246   4.853  25.212  0.00  0.00    +0.328 C 
BRANCH  21   2
ATOM      2  O   UNL     1      -1.329   4.700  24.215  0.00  0.00    -0.467 OA
ATOM     29  C   UNL     1      -0.066   5.336  24.438  0.00  0.00    +0.280 C 
ENDBRANCH  21   2
ENDBRANCH  16  21
ENDBRANCH  11  15
BRANCH  12   8
ATOM      5  O   UNL     1       3.367   1.896  23.277  0.00  0.00    -0.253 OA
ATOM      8  N   UNL     1       1.731   0.314  23.737  0.00  0.00    -0.294 N 
ATOM     10  N   UNL     1       3.888  -0.364  23.317  0.00  0.00    -0.297 N 
ATOM     23  C   UNL     1       3.026   0.724  23.430  0.00  0.00    +0.300 C 
ATOM     32  H   UNL     1       1.540  -0.683  23.771  0.00  0.00    +0.151 HD
ATOM     33  H   UNL     1       3.529  -1.289  23.537  0.00  0.00    +0.150 HD
BRANCH  10  25
ATOM     25  C   UNL     1       5.291  -0.223  23.005  0.00  0.00    +0.068 C 
ATOM     30  C   UNL     1       5.993  -1.571  23.105  0.00  0.00    +0.027 C 
ATOM     31  C   UNL     1       5.940   0.808  23.918  0.00  0.00    +0.027 C 
ENDBRANCH  10  25
ENDBRANCH  12   8
BRANCH  20  22
ATOM      9  N   UNL     1      -4.241  -1.405  24.407  0.00  0.00    -0.346 N 
ATOM     22  C   UNL     1      -2.968  -1.741  24.778  0.00  0.00    +0.104 A 
ATOM     24  C   UNL     1      -2.752  -3.051  24.419  0.00  0.00    +0.032 A 
ATOM     26  C   UNL     1      -4.846  -2.482  23.815  0.00  0.00    +0.086 A 
ATOM     27  C   UNL     1      -3.941  -3.522  23.809  0.00  0.00    +0.020 A 
ATOM     28  C   UNL     1      -4.870  -0.116  24.602  0.00  0.00    +0.149 C 
ENDBRANCH  20  22
TORSDOF 6
ENDMDL
MODEL 3
REMARK VINA RESULT:       4.1      1.627      2.647
REMARK  Name = 11865808
REMARK  10 active torsions:
REMARK  status: ('A' for Active; 'I' for Inactive)
REMARK    1  A    between atoms: O_2  and  C_21
REMARK    2  A    between atoms: O_2  and  C_29
REMARK    3  A    between atoms: N_8  and  C_12
REMARK    4  A    between atoms: N_9  and  C_28
REMARK    5  A    between atoms: N_10  and  C_25
REMARK    6  A    between atoms: C_11  and  C_15
REMARK    7  A    between atoms: C_16  and  C_21
REMARK    8  A    between atoms: C_20  and  C_22
REMARK    9  A    between atoms: C_25  and  C_30
REMARK   10  A    between atoms: C_25  and  C_31
REMARK                            x       y       z     vdW  Elec       q    Type
REMARK                         _______ _______ _______ _____ _____    ______ ____
ROOT
ATOM      3  O   UNL     1      -2.026  -0.201  26.927  0.00  0.00    -0.268 OA
ATOM      6  N   UNL     1      -1.707   0.797  24.872  0.00  0.00    -0.283 N 
ATOM     11  C   UNL     1      -1.195   2.055  25.405  0.00  0.00    +0.183 C 
ATOM     12  C   UNL     1      -0.595   2.781  24.201  0.00  0.00    +0.105 C 
ATOM     13  C   UNL     1      -1.416   2.248  23.023  0.00  0.00    +0.043 C 
ATOM     14  C   UNL     1      -1.701   0.803  23.408  0.00  0.00    +0.111 C 
ATOM     20  C   UNL     1      -2.046  -0.279  25.698  0.00  0.00    +0.264 C 
ENDROOT
BRANCH  11  15
ATOM      1  O   UNL     1      -2.210   3.734  26.756  0.00  0.00    -0.273 OA
ATOM      7  N   UNL     1      -3.619   2.384  25.512  0.00  0.00    -0.286 N 
ATOM     15  C   UNL     1      -2.378   2.806  25.962  0.00  0.00    +0.239 C 
ATOM     16  C   UNL     1      -4.867   2.890  26.067  0.00  0.00    +0.185 C 
ATOM     17  C   UNL     1      -3.865   1.291  24.574  0.00  0.00    +0.109 C 
ATOM     18  C   UNL     1      -5.919   1.870  25.648  0.00  0.00    +0.035 C 
ATOM     19  C   UNL     1      -5.368   1.307  24.341  0.00  0.00    +0.021 C 
BRANCH  16  21
ATOM      4  O   UNL     1      -6.145   4.876  25.594  0.00  0.00    -0.249 OA
ATOM     21  C   UNL     1      -5.115   4.232  25.446  0.00  0.00    +0.328 C 
BRANCH  21   2
ATOM      2  O   UNL     1      -4.028   4.601  24.709  0.00  0.00    -0.467 OA
ATOM     29  C   UNL     1      -4.208   4.570  23.290  0.00  0.00    +0.280 C 
ENDBRANCH  21   2
ENDBRANCH  16  21
ENDBRANCH  11  15
BRANCH  12   8
ATOM      5  O   UNL     1       0.526   0.453  22.914  0.00  0.00    -0.253 OA
ATOM      8  N   UNL     1       0.805   2.463  24.042  0.00  0.00    -0.294 N 
ATOM     10  N   UNL     1       2.650   1.254  23.392  0.00  0.00    -0.297 N 
ATOM     23  C   UNL     1       1.258   1.311  23.405  0.00  0.00    +0.300 C 
ATOM     32  H   UNL     1       1.492   3.072  24.476  0.00  0.00    +0.151 HD
ATOM     33  H   UNL     1       3.168   2.048  23.754  0.00  0.00    +0.150 HD
BRANCH  10  25
ATOM     25  C   UNL     1       3.383   0.164  22.793  0.00  0.00    +0.068 C 
ATOM     30  C   UNL     1       3.037  -1.149  23.482  0.00  0.00    +0.027 C 
ATOM     31  C   UNL     1       4.881   0.436  22.842  0.00  0.00    +0.027 C 
ENDBRANCH  10  25
ENDBRANCH  12   8
BRANCH  20  22
ATOM      9  N   UNL     1      -1.610  -2.516  24.666  0.00  0.00    -0.346 N 
ATOM     22  C   UNL     1      -2.460  -1.507  25.030  0.00  0.00    +0.104 A 
ATOM     24  C   UNL     1      -3.733  -1.867  24.657  0.00  0.00    +0.032 A 
ATOM     26  C   UNL     1      -2.323  -3.518  24.063  0.00  0.00    +0.086 A 
ATOM     27  C   UNL     1      -3.648  -3.141  24.043  0.00  0.00    +0.020 A 
ATOM     28  C   UNL     1      -0.179  -2.538  24.876  0.00  0.00    +0.149 C 
ENDBRANCH  20  22
TORSDOF 6
ENDMDL
MODEL 4
REMARK VINA RESULT:       5.7      2.949      3.421
REMARK  Name = 11865808
REMARK  10 active torsions:
REMARK  status: ('A' for Active; 'I' for Inactive)
REMARK    1  A    between atoms: O_2  and  C_21
REMARK    2  A    between atoms: O_2  and  C_29
REMARK    3  A    between atoms: N_8  and  C_12
REMARK    4  A    between atoms: N_9  and  C_28
REMARK    5  A    between atoms: N_10  and  C_25
REMARK    6  A    between atoms: C_11  and  C_15
REMARK    7  A    between atoms: C_16  and  C_21
REMARK    8  A    between atoms: C_20  and  C_22
REMARK    9  A    between atoms: C_25  and  C_30
REMARK   10  A    between atoms: C_25  and  C_31
REMARK                            x       y       z     vdW  Elec       q    Type
REMARK                         _______ _______ _______ _____ _____    ______ ____
ROOT
ATOM      3  O   UNL     1      -3.279  -0.806  26.033  0.00  0.00    -0.268 OA
ATOM      6  N   UNL     1      -1.656   0.167  24.713  0.00  0.00    -0.283 N 
ATOM     11  C   UNL     1      -1.786   1.501  25.291  0.00  0.00    +0.183 C 
ATOM     12  C   UNL     1      -0.562   2.269  24.793  0.00  0.00    +0.105 C 
ATOM     13  C   UNL     1      -0.237   1.590  23.461  0.00  0.00    +0.043 C 
ATOM     14  C   UNL     1      -0.598   0.131  23.703  0.00  0.00    +0.111 C 
ATOM     20  C   UNL     1      -2.401  -0.922  25.177  0.00  0.00    +0.264 C 
ENDROOT
BRANCH  11  15
ATOM      1  O   UNL     1      -3.891   1.370  24.185  0.00  0.00    -0.273 OA
ATOM      7  N   UNL     1      -3.214   3.455  24.923  0.00  0.00    -0.286 N 
ATOM     15  C   UNL     1      -3.061   2.090  24.743  0.00  0.00    +0.239 C 
ATOM     16  C   UNL     1      -4.305   4.208  24.317  0.00  0.00    +0.185 C 
ATOM     17  C   UNL     1      -2.258   4.347  25.575  0.00  0.00    +0.109 C 
ATOM     18  C   UNL     1      -3.849   5.662  24.370  0.00  0.00    +0.035 C 
ATOM     19  C   UNL     1      -2.943   5.705  25.598  0.00  0.00    +0.021 C 
BRANCH  16  21
ATOM      4  O   UNL     1      -6.127   4.861  25.749  0.00  0.00    -0.249 OA
ATOM     21  C   UNL     1      -5.523   3.976  25.159  0.00  0.00    +0.328 C 
BRANCH  21   2
ATOM      2  O   UNL     1      -5.834   2.648  25.154  0.00  0.00    -0.467 OA
ATOM     29  C   UNL     1      -6.362   2.136  26.381  0.00  0.00    +0.280 C 
ENDBRANCH  21   2
ENDBRANCH  16  21
ENDBRANCH  11  15
BRANCH  12   8
ATOM      5  O   UNL     1      -0.462   3.225  27.514  0.00  0.00    -0.253 OA
ATOM      8  N   UNL     1       0.541   2.150  25.718  0.00  0.00    -0.294 N 
ATOM     10  N   UNL     1       1.697   2.394  27.691  0.00  0.00    -0.297 N 
ATOM     23  C   UNL     1       0.502   2.644  27.019  0.00  0.00    +0.300 C 
ATOM     32  H   UNL     1       1.413   1.749  25.383  0.00  0.00    +0.151 HD
ATOM     33  H   UNL     1       2.407   1.839  27.223  0.00  0.00    +0.150 HD
BRANCH  10  25
ATOM     25  C   UNL     1       1.926   2.800  29.057  0.00  0.00    +0.068 C 
ATOM     30  C   UNL     1       3.211   3.612  29.159  0.00  0.00    +0.027 C 
ATOM     31  C   UNL     1       1.965   1.587  29.977  0.00  0.00    +0.027 C 
ENDBRANCH  10  25
ENDBRANCH  12   8
BRANCH  20  22
ATOM      9  N   UNL     1      -3.021  -2.981  23.899  0.00  0.00    -0.346 N 
ATOM     22  C   UNL     1      -2.108  -2.215  24.572  0.00  0.00    +0.104 A 
ATOM     24  C   UNL     1      -0.906  -2.882  24.567  0.00  0.00    +0.032 A 
ATOM     26  C   UNL     1      -2.418  -4.131  23.461  0.00  0.00    +0.086 A 
ATOM     27  C   UNL     1      -1.101  -4.096  23.863  0.00  0.00    +0.020 A 
ATOM     28  C   UNL     1      -4.410  -2.645  23.674  0.00  0.00    +0.149 C 
ENDBRANCH  20  22
TORSDOF 6
ENDMDL
