MODEL 1
REMARK VINA RESULT:       0.5      0.000      0.000
REMARK  Name = 45783467
REMARK  11 active torsions:
REMARK  status: ('A' for Active; 'I' for Inactive)
REMARK    1  A    between atoms: S_1  and  C_23
REMARK    2  A    between atoms: S_1  and  C_25
REMARK    3  A    between atoms: O_5  and  C_27
REMARK    4  A    between atoms: O_5  and  C_30
REMARK    5  A    between atoms: O_6  and  C_31
REMARK    6  A    between atoms: O_6  and  C_32
REMARK    7  A    between atoms: N_7  and  C_15
REMARK    8  A    between atoms: C_11  and  C_16
REMARK    9  A    between atoms: C_15  and  C_17
REMARK   10  A    between atoms: C_20  and  C_24
REMARK   11  A    between atoms: C_30  and  C_31
REMARK                            x       y       z     vdW  Elec       q    Type
REMARK                         _______ _______ _______ _____ _____    ______ ____
ROOT
ATOM      7  N   UNL     1      -5.231   2.864  25.413  0.00  0.00    -0.287 NA
ATOM     11  C   UNL     1      -4.339   3.438  24.387  0.00  0.00    +0.146 C 
ATOM     12  C   UNL     1      -4.401   4.959  24.621  0.00  0.00    +0.030 C 
ATOM     13  C   UNL     1      -5.399   5.146  25.756  0.00  0.00    +0.017 C 
ATOM     14  C   UNL     1      -6.237   3.885  25.704  0.00  0.00    +0.085 C 
ENDROOT
BRANCH  11  16
ATOM      2  O   UNL     1      -2.252   3.134  25.623  0.00  0.00    -0.336 OA
ATOM      8  N   UNL     1      -2.248   2.211  23.582  0.00  0.00    -0.189 NA
ATOM      9  N   UNL     1      -0.991   2.543  25.465  0.00  0.00    -0.054 NA
ATOM     16  C   UNL     1      -2.928   2.892  24.469  0.00  0.00    +0.245 A 
ATOM     20  C   UNL     1      -1.067   2.020  24.238  0.00  0.00    +0.221 A 
BRANCH  20  24
ATOM     10  N   UNL     1      -0.316   0.152  23.009  0.00  0.00    -0.252 NA
ATOM     24  C   UNL     1       0.019   1.300  23.638  0.00  0.00    +0.115 A 
ATOM     26  C   UNL     1       1.313   1.788  23.725  0.00  0.00    +0.077 A 
ATOM     27  C   UNL     1       2.328   1.051  23.126  0.00  0.00    +0.124 A 
ATOM     28  C   UNL     1       0.697  -0.539  22.439  0.00  0.00    +0.115 A 
ATOM     29  C   UNL     1       2.023  -0.136  22.469  0.00  0.00    +0.065 A 
BRANCH  27   5
ATOM      5  O   UNL     1       3.615   1.489  23.182  0.00  0.00    -0.490 OA
BRANCH   5  30
ATOM     30  C   UNL     1       4.632   0.566  22.793  0.00  0.00    +0.257 C 
BRANCH  30  31
ATOM     31  C   UNL     1       5.660   0.466  23.904  0.00  0.00    +0.200 C 
BRANCH  31   6
ATOM      6  O   UNL     1       5.421  -0.720  24.652  0.00  0.00    -0.380 OA
ATOM     32  C   UNL     1       4.761  -1.705  23.870  0.00  0.00    +0.194 C 
ENDBRANCH  31   6
ENDBRANCH  30  31
ENDBRANCH   5  30
ENDBRANCH  27   5
ENDBRANCH  20  24
ENDBRANCH  11  16
BRANCH   7  15
ATOM     15  C   UNL     1      -5.833   1.601  25.007  0.00  0.00    +0.120 C 
BRANCH  15  17
ATOM     17  C   UNL     1      -4.820   0.488  24.950  0.00  0.00    -0.033 A 
ATOM     18  C   UNL     1      -4.680  -0.269  23.786  0.00  0.00    +0.007 A 
ATOM     19  C   UNL     1      -4.019   0.216  26.058  0.00  0.00    +0.007 A 
ATOM     21  C   UNL     1      -3.741  -1.299  23.733  0.00  0.00    +0.027 A 
ATOM     22  C   UNL     1      -3.080  -0.814  26.006  0.00  0.00    +0.027 A 
ATOM     23  C   UNL     1      -2.941  -1.571  24.842  0.00  0.00    +0.088 A 
BRANCH  23   1
ATOM      1  S   UNL     1      -1.763  -2.858  24.773  0.00  0.00    -0.006 S 
ATOM      3  O   UNL     1      -2.170  -3.920  25.682  0.00  0.00    -0.170 OA
ATOM      4  O   UNL     1      -1.514  -3.163  23.371  0.00  0.00    -0.170 OA
ATOM     25  C   UNL     1      -0.283  -2.140  25.448  0.00  0.00    +0.200 C 
ENDBRANCH  23   1
ENDBRANCH  15  17
ENDBRANCH   7  15
TORSDOF 9
ENDMDL
MODEL 2
REMARK VINA RESULT:       1.9      2.459      4.552
REMARK  Name = 45783467
REMARK  11 active torsions:
REMARK  status: ('A' for Active; 'I' for Inactive)
REMARK    1  A    between atoms: S_1  and  C_23
REMARK    2  A    between atoms: S_1  and  C_25
REMARK    3  A    between atoms: O_5  and  C_27
REMARK    4  A    between atoms: O_5  and  C_30
REMARK    5  A    between atoms: O_6  and  C_31
REMARK    6  A    between atoms: O_6  and  C_32
REMARK    7  A    between atoms: N_7  and  C_15
REMARK    8  A    between atoms: C_11  and  C_16
REMARK    9  A    between atoms: C_15  and  C_17
REMARK   10  A    between atoms: C_20  and  C_24
REMARK   11  A    between atoms: C_30  and  C_31
REMARK                            x       y       z     vdW  Elec       q    Type
REMARK                         _______ _______ _______ _____ _____    ______ ____
ROOT
ATOM      7  N   UNL     1      -4.226  -1.135  23.927  0.00  0.00    -0.287 NA
ATOM     11  C   UNL     1      -3.240  -1.502  24.962  0.00  0.00    +0.146 C 
ATOM     12  C   UNL     1      -3.201  -3.042  24.937  0.00  0.00    +0.030 C 
ATOM     13  C   UNL     1      -4.241  -3.449  23.903  0.00  0.00    +0.017 C 
ATOM     14  C   UNL     1      -5.167  -2.251  23.838  0.00  0.00    +0.085 C 
ENDROOT
BRANCH  11  16
ATOM      2  O   UNL     1      -1.384  -0.102  25.716  0.00  0.00    -0.336 OA
ATOM      8  N   UNL     1      -1.098  -0.977  23.674  0.00  0.00    -0.189 NA
ATOM      9  N   UNL     1      -0.138   0.356  25.267  0.00  0.00    -0.054 NA
ATOM     16  C   UNL     1      -1.881  -0.880  24.719  0.00  0.00    +0.245 A 
ATOM     20  C   UNL     1      -0.041  -0.203  24.057  0.00  0.00    +0.221 A 
BRANCH  20  24
ATOM     10  N   UNL     1       1.030  -0.600  21.993  0.00  0.00    -0.252 NA
ATOM     24  C   UNL     1       1.097  -0.009  23.206  0.00  0.00    +0.115 A 
ATOM     26  C   UNL     1       2.175   0.745  23.643  0.00  0.00    +0.077 A 
ATOM     27  C   UNL     1       3.253   0.902  22.779  0.00  0.00    +0.124 A 
ATOM     28  C   UNL     1       2.095  -0.426  21.179  0.00  0.00    +0.115 A 
ATOM     29  C   UNL     1       3.220   0.308  21.522  0.00  0.00    +0.065 A 
BRANCH  27   5
ATOM      5  O   UNL     1       4.334   1.633  23.161  0.00  0.00    -0.490 OA
BRANCH   5  30
ATOM     30  C   UNL     1       5.262   1.007  24.046  0.00  0.00    +0.257 C 
BRANCH  30  31
ATOM     31  C   UNL     1       5.772  -0.270  23.407  0.00  0.00    +0.200 C 
BRANCH  31   6
ATOM      6  O   UNL     1       5.535  -1.359  24.291  0.00  0.00    -0.380 OA
ATOM     32  C   UNL     1       4.376  -2.089  23.918  0.00  0.00    +0.194 C 
ENDBRANCH  31   6
ENDBRANCH  30  31
ENDBRANCH   5  30
ENDBRANCH  27   5
ENDBRANCH  20  24
ENDBRANCH  11  16
BRANCH   7  15
ATOM     15  C   UNL     1      -4.898   0.129  24.197  0.00  0.00    +0.120 C 
BRANCH  15  17
ATOM     17  C   UNL     1      -3.923   1.272  24.304  0.00  0.00    -0.033 A 
ATOM     18  C   UNL     1      -3.865   2.033  25.472  0.00  0.00    +0.007 A 
ATOM     19  C   UNL     1      -3.076   1.569  23.236  0.00  0.00    +0.007 A 
ATOM     21  C   UNL     1      -2.962   3.091  25.571  0.00  0.00    +0.027 A 
ATOM     22  C   UNL     1      -2.173   2.627  23.335  0.00  0.00    +0.027 A 
ATOM     23  C   UNL     1      -2.116   3.387  24.503  0.00  0.00    +0.088 A 
BRANCH  23   1
ATOM      1  S   UNL     1      -0.983   4.710  24.630  0.00  0.00    -0.006 S 
ATOM      3  O   UNL     1      -0.342   4.909  23.336  0.00  0.00    -0.170 OA
ATOM      4  O   UNL     1      -1.662   5.823  25.278  0.00  0.00    -0.170 OA
ATOM     25  C   UNL     1       0.272   4.113  25.740  0.00  0.00    +0.200 C 
ENDBRANCH  23   1
ENDBRANCH  15  17
ENDBRANCH   7  15
TORSDOF 9
ENDMDL
