MODEL 1
REMARK VINA RESULT:       0.6      0.000      0.000
REMARK  Name = 71693207
REMARK  16 active torsions:
REMARK  status: ('A' for Active; 'I' for Inactive)
REMARK    1  A    between atoms: O_2  and  C_29
REMARK    2  A    between atoms: O_4  and  C_37
REMARK    3  A    between atoms: O_4  and  C_38
REMARK    4  A    between atoms: N_6  and  C_21
REMARK    5  A    between atoms: C_9  and  C_18
REMARK    6  A    between atoms: C_9  and  C_20
REMARK    7  A    between atoms: C_10  and  C_19
REMARK    8  A    between atoms: C_13  and  C_21
REMARK    9  A    between atoms: C_17  and  C_24
REMARK   10  A    between atoms: C_18  and  C_25
REMARK   11  A    between atoms: C_19  and  C_26
REMARK   12  A    between atoms: C_19  and  C_27
REMARK   13  A    between atoms: C_20  and  C_29
REMARK   14  A    between atoms: C_22  and  C_28
REMARK   15  A    between atoms: C_24  and  C_30
REMARK   16  A    between atoms: C_35  and  C_37
REMARK                            x       y       z     vdW  Elec       q    Type
REMARK                         _______ _______ _______ _____ _____    ______ ____
ROOT
ATOM     10  C   UNL     1      -4.228   3.299  25.242  0.00  0.00    +0.000 C 
ATOM     13  C   UNL     1      -3.868   3.857  23.842  0.00  0.00    +0.032 C 
ATOM     14  C   UNL     1      -3.609   4.175  26.342  0.00  0.00    +0.012 C 
ATOM     17  C   UNL     1      -2.075   4.256  26.229  0.00  0.00    +0.022 C 
ATOM     22  C   UNL     1      -1.630   4.539  24.808  0.00  0.00    -0.073 C 
ATOM     23  C   UNL     1      -2.450   4.367  23.756  0.00  0.00    -0.022 C 
ATOM     28  C   UNL     1      -0.234   5.068  24.629  0.00  0.00    +0.039 C 
ENDROOT
BRANCH  10  19
ATOM     19  C   UNL     1      -5.743   3.207  25.445  0.00  0.00    -0.013 C 
ATOM     26  C   UNL     1      -6.319   4.574  25.799  0.00  0.00    +0.007 C 
ATOM     27  C   UNL     1      -6.074   2.184  26.528  0.00  0.00    +0.007 C 
ENDBRANCH  10  19
BRANCH  13  21
ATOM     21  C   UNL     1      -4.100   2.804  22.751  0.00  0.00    +0.112 C 
BRANCH  21   6
ATOM      1  O   UNL     1      -4.798   0.320  24.060  0.00  0.00    -0.276 OA
ATOM      6  N   UNL     1      -3.256   1.668  22.957  0.00  0.00    -0.315 N 
ATOM     25  C   UNL     1      -3.674   0.502  23.601  0.00  0.00    +0.214 C 
ATOM     39  H   UNL     1      -2.320   1.691  22.563  0.00  0.00    +0.149 HD
BRANCH  25  18
ATOM     18  C   UNL     1      -2.569  -0.536  23.673  0.00  0.00    +0.103 C 
BRANCH  18   9
ATOM      9  C   UNL     1      -2.959  -1.755  24.522  0.00  0.00    -0.011 C 
ATOM     11  C   UNL     1      -2.156  -3.001  24.089  0.00  0.00    +0.008 C 
ATOM     12  C   UNL     1      -4.443  -2.124  24.283  0.00  0.00    +0.008 C 
ATOM     15  C   UNL     1      -3.125  -3.831  23.260  0.00  0.00    +0.001 C 
ATOM     16  C   UNL     1      -4.450  -3.615  23.968  0.00  0.00    +0.001 C 
BRANCH   9  20
ATOM     20  C   UNL     1      -2.703  -1.437  26.000  0.00  0.00    +0.127 C 
BRANCH  20  29
ATOM      3  O   UNL     1      -0.332  -1.926  25.717  0.00  0.00    -0.251 OA
ATOM     29  C   UNL     1      -1.235  -1.338  26.291  0.00  0.00    +0.305 C 
BRANCH  29   2
ATOM      2  O   UNL     1      -1.037  -0.473  27.320  0.00  0.00    -0.481 OA
ATOM     41  H   UNL     1      -0.634   0.369  27.019  0.00  0.00    +0.295 HD
ENDBRANCH  29   2
ENDBRANCH  20  29
ENDBRANCH   9  20
ENDBRANCH  18   9
ENDBRANCH  25  18
ENDBRANCH  21   6
ENDBRANCH  13  21
BRANCH  17  24
ATOM     24  C   UNL     1      -1.414   2.982  26.768  0.00  0.00    +0.082 C 
BRANCH  24  30
ATOM      7  N   UNL     1       0.710   2.515  25.530  0.00  0.00    -0.342 N 
ATOM      8  N   UNL     1      -1.083   1.398  24.838  0.00  0.00    -0.232 NA
ATOM     30  C   UNL     1      -0.627   2.279  25.700  0.00  0.00    +0.109 A 
ATOM     31  C   UNL     1       1.144   1.734  24.490  0.00  0.00    +0.067 A 
ATOM     32  C   UNL     1       0.007   1.046  24.076  0.00  0.00    +0.089 A 
ATOM     33  C   UNL     1       2.396   1.575  23.895  0.00  0.00    +0.042 A 
ATOM     34  C   UNL     1       0.106   0.142  23.005  0.00  0.00    +0.030 A 
ATOM     35  C   UNL     1       2.476   0.672  22.830  0.00  0.00    +0.061 A 
ATOM     36  C   UNL     1       1.353  -0.034  22.392  0.00  0.00    +0.017 A 
ATOM     40  H   UNL     1       1.278   3.151  26.074  0.00  0.00    +0.167 HD
BRANCH  35  37
ATOM      5  O   UNL     1       3.895   0.308  20.949  0.00  0.00    -0.245 OA
ATOM     37  C   UNL     1       3.756   0.463  22.169  0.00  0.00    +0.339 C 
BRANCH  37   4
ATOM      4  O   UNL     1       4.790   0.461  23.065  0.00  0.00    -0.464 OA
ATOM     38  C   UNL     1       5.009  -0.749  23.796  0.00  0.00    +0.280 C 
ENDBRANCH  37   4
ENDBRANCH  35  37
ENDBRANCH  24  30
ENDBRANCH  17  24
TORSDOF 12
ENDMDL
MODEL 2
REMARK VINA RESULT:       1.1      1.217      2.097
REMARK  Name = 71693207
REMARK  16 active torsions:
REMARK  status: ('A' for Active; 'I' for Inactive)
REMARK    1  A    between atoms: O_2  and  C_29
REMARK    2  A    between atoms: O_4  and  C_37
REMARK    3  A    between atoms: O_4  and  C_38
REMARK    4  A    between atoms: N_6  and  C_21
REMARK    5  A    between atoms: C_9  and  C_18
REMARK    6  A    between atoms: C_9  and  C_20
REMARK    7  A    between atoms: C_10  and  C_19
REMARK    8  A    between atoms: C_13  and  C_21
REMARK    9  A    between atoms: C_17  and  C_24
REMARK   10  A    between atoms: C_18  and  C_25
REMARK   11  A    between atoms: C_19  and  C_26
REMARK   12  A    between atoms: C_19  and  C_27
REMARK   13  A    between atoms: C_20  and  C_29
REMARK   14  A    between atoms: C_22  and  C_28
REMARK   15  A    between atoms: C_24  and  C_30
REMARK   16  A    between atoms: C_35  and  C_37
REMARK                            x       y       z     vdW  Elec       q    Type
REMARK                         _______ _______ _______ _____ _____    ______ ____
ROOT
ATOM     10  C   UNL     1      -4.242   3.255  25.649  0.00  0.00    +0.000 C 
ATOM     13  C   UNL     1      -4.131   3.650  24.155  0.00  0.00    +0.032 C 
ATOM     14  C   UNL     1      -3.446   4.235  26.524  0.00  0.00    +0.012 C 
ATOM     17  C   UNL     1      -1.955   4.280  26.141  0.00  0.00    +0.022 C 
ATOM     22  C   UNL     1      -1.763   4.399  24.642  0.00  0.00    -0.073 C 
ATOM     23  C   UNL     1      -2.750   4.126  23.771  0.00  0.00    -0.022 C 
ATOM     28  C   UNL     1      -0.420   4.883  24.169  0.00  0.00    +0.039 C 
ENDROOT
BRANCH  10  19
ATOM     19  C   UNL     1      -5.700   3.208  26.118  0.00  0.00    -0.013 C 
ATOM     26  C   UNL     1      -6.405   1.984  25.546  0.00  0.00    +0.007 C 
ATOM     27  C   UNL     1      -6.428   4.488  25.718  0.00  0.00    +0.007 C 
ENDBRANCH  10  19
BRANCH  13  21
ATOM     21  C   UNL     1      -4.543   2.488  23.244  0.00  0.00    +0.112 C 
BRANCH  21   6
ATOM      1  O   UNL     1      -4.860  -0.168  24.347  0.00  0.00    -0.276 OA
ATOM      6  N   UNL     1      -3.566   1.444  23.280  0.00  0.00    -0.315 N 
ATOM     25  C   UNL     1      -3.802   0.185  23.833  0.00  0.00    +0.214 C 
ATOM     39  H   UNL     1      -2.672   1.612  22.828  0.00  0.00    +0.149 HD
BRANCH  25  18
ATOM     18  C   UNL     1      -2.587  -0.719  23.729  0.00  0.00    +0.103 C 
BRANCH  18   9
ATOM      9  C   UNL     1      -2.408  -1.612  24.964  0.00  0.00    -0.011 C 
ATOM     11  C   UNL     1      -2.269  -0.756  26.242  0.00  0.00    +0.008 C 
ATOM     12  C   UNL     1      -1.086  -2.411  24.864  0.00  0.00    +0.008 C 
ATOM     15  C   UNL     1      -0.783  -0.771  26.572  0.00  0.00    +0.001 C 
ATOM     16  C   UNL     1      -0.363  -2.177  26.185  0.00  0.00    +0.001 C 
BRANCH   9  20
ATOM     20  C   UNL     1      -3.612  -2.556  25.078  0.00  0.00    +0.127 C 
BRANCH  20  29
ATOM      3  O   UNL     1      -3.116  -4.074  23.236  0.00  0.00    -0.251 OA
ATOM     29  C   UNL     1      -3.862  -3.279  23.788  0.00  0.00    +0.305 C 
BRANCH  29   2
ATOM      2  O   UNL     1      -5.075  -2.918  23.297  0.00  0.00    -0.481 OA
ATOM     41  H   UNL     1      -5.398  -2.082  23.694  0.00  0.00    +0.295 HD
ENDBRANCH  29   2
ENDBRANCH  20  29
ENDBRANCH   9  20
ENDBRANCH  18   9
ENDBRANCH  25  18
ENDBRANCH  21   6
ENDBRANCH  13  21
BRANCH  17  24
ATOM     24  C   UNL     1      -1.206   3.063  26.695  0.00  0.00    +0.082 C 
BRANCH  24  30
ATOM      7  N   UNL     1       0.875   2.335  25.512  0.00  0.00    -0.342 N 
ATOM      8  N   UNL     1      -1.038   1.592  24.657  0.00  0.00    -0.232 NA
ATOM     30  C   UNL     1      -0.489   2.316  25.606  0.00  0.00    +0.109 A 
ATOM     31  C   UNL     1       1.230   1.571  24.431  0.00  0.00    +0.067 A 
ATOM     32  C   UNL     1       0.018   1.117  23.914  0.00  0.00    +0.089 A 
ATOM     33  C   UNL     1       2.469   1.245  23.877  0.00  0.00    +0.042 A 
ATOM     34  C   UNL     1       0.025   0.291  22.778  0.00  0.00    +0.030 A 
ATOM     35  C   UNL     1       2.456   0.423  22.746  0.00  0.00    +0.061 A 
ATOM     36  C   UNL     1       1.257  -0.048  22.205  0.00  0.00    +0.017 A 
ATOM     40  H   UNL     1       1.511   2.823  26.130  0.00  0.00    +0.167 HD
BRANCH  35  37
ATOM      5  O   UNL     1       4.026   0.313  20.955  0.00  0.00    -0.245 OA
ATOM     37  C   UNL     1       3.717   0.049  22.124  0.00  0.00    +0.339 C 
BRANCH  37   4
ATOM      4  O   UNL     1       4.525  -0.631  22.994  0.00  0.00    -0.464 OA
ATOM     38  C   UNL     1       5.696   0.051  23.455  0.00  0.00    +0.280 C 
ENDBRANCH  37   4
ENDBRANCH  35  37
ENDBRANCH  24  30
ENDBRANCH  17  24
TORSDOF 12
ENDMDL
MODEL 3
REMARK VINA RESULT:       2.1      1.733      3.185
REMARK  Name = 71693207
REMARK  16 active torsions:
REMARK  status: ('A' for Active; 'I' for Inactive)
REMARK    1  A    between atoms: O_2  and  C_29
REMARK    2  A    between atoms: O_4  and  C_37
REMARK    3  A    between atoms: O_4  and  C_38
REMARK    4  A    between atoms: N_6  and  C_21
REMARK    5  A    between atoms: C_9  and  C_18
REMARK    6  A    between atoms: C_9  and  C_20
REMARK    7  A    between atoms: C_10  and  C_19
REMARK    8  A    between atoms: C_13  and  C_21
REMARK    9  A    between atoms: C_17  and  C_24
REMARK   10  A    between atoms: C_18  and  C_25
REMARK   11  A    between atoms: C_19  and  C_26
REMARK   12  A    between atoms: C_19  and  C_27
REMARK   13  A    between atoms: C_20  and  C_29
REMARK   14  A    between atoms: C_22  and  C_28
REMARK   15  A    between atoms: C_24  and  C_30
REMARK   16  A    between atoms: C_35  and  C_37
REMARK                            x       y       z     vdW  Elec       q    Type
REMARK                         _______ _______ _______ _____ _____    ______ ____
ROOT
ATOM     10  C   UNL     1      -1.724   3.137  24.719  0.00  0.00    +0.000 C 
ATOM     13  C   UNL     1      -3.054   3.757  24.220  0.00  0.00    +0.032 C 
ATOM     14  C   UNL     1      -0.712   3.042  23.567  0.00  0.00    +0.012 C 
ATOM     17  C   UNL     1      -1.238   2.191  22.397  0.00  0.00    +0.022 C 
ATOM     22  C   UNL     1      -2.658   2.566  22.022  0.00  0.00    -0.073 C 
ATOM     23  C   UNL     1      -3.449   3.277  22.844  0.00  0.00    -0.022 C 
ATOM     28  C   UNL     1      -3.132   2.144  20.659  0.00  0.00    +0.039 C 
ENDROOT
BRANCH  10  19
ATOM     19  C   UNL     1      -1.120   3.940  25.875  0.00  0.00    -0.013 C 
ATOM     26  C   UNL     1      -0.600   5.284  25.375  0.00  0.00    +0.007 C 
ATOM     27  C   UNL     1      -0.006   3.146  26.550  0.00  0.00    +0.007 C 
ENDBRANCH  10  19
BRANCH  13  21
ATOM     21  C   UNL     1      -4.196   3.480  25.205  0.00  0.00    +0.112 C 
BRANCH  21   6
ATOM      1  O   UNL     1      -6.084   1.394  24.533  0.00  0.00    -0.276 OA
ATOM      6  N   UNL     1      -4.172   2.118  25.641  0.00  0.00    -0.315 N 
ATOM     25  C   UNL     1      -5.126   1.171  25.268  0.00  0.00    +0.214 C 
ATOM     39  H   UNL     1      -3.386   1.813  26.208  0.00  0.00    +0.149 HD
BRANCH  25  18
ATOM     18  C   UNL     1      -4.847  -0.190  25.878  0.00  0.00    +0.103 C 
BRANCH  18   9
ATOM      9  C   UNL     1      -3.672  -0.910  25.203  0.00  0.00    -0.011 C 
ATOM     11  C   UNL     1      -3.936  -1.089  23.691  0.00  0.00    +0.008 C 
ATOM     12  C   UNL     1      -3.527  -2.346  25.762  0.00  0.00    +0.008 C 
ATOM     15  C   UNL     1      -4.341  -2.547  23.527  0.00  0.00    +0.001 C 
ATOM     16  C   UNL     1      -3.466  -3.258  24.543  0.00  0.00    +0.001 C 
BRANCH   9  20
ATOM     20  C   UNL     1      -2.390  -0.100  25.432  0.00  0.00    +0.127 C 
BRANCH  20  29
ATOM      3  O   UNL     1      -0.761  -1.913  25.401  0.00  0.00    -0.251 OA
ATOM     29  C   UNL     1      -1.286  -0.964  25.964  0.00  0.00    +0.305 C 
BRANCH  29   2
ATOM      2  O   UNL     1      -0.933  -0.534  27.202  0.00  0.00    -0.481 OA
ATOM     41  H   UNL     1      -1.536   0.165  27.534  0.00  0.00    +0.295 HD
ENDBRANCH  29   2
ENDBRANCH  20  29
ENDBRANCH   9  20
ENDBRANCH  18   9
ENDBRANCH  25  18
ENDBRANCH  21   6
ENDBRANCH  13  21
BRANCH  17  24
ATOM     24  C   UNL     1      -1.131   0.694  22.710  0.00  0.00    +0.082 C 
BRANCH  24  30
ATOM      7  N   UNL     1       1.327   1.158  22.752  0.00  0.00    -0.342 N 
ATOM      8  N   UNL     1       0.716  -0.894  23.352  0.00  0.00    -0.232 NA
ATOM     30  C   UNL     1       0.294   0.284  22.949  0.00  0.00    +0.109 A 
ATOM     31  C   UNL     1       2.493   0.500  23.048  0.00  0.00    +0.067 A 
ATOM     32  C   UNL     1       2.085  -0.778  23.421  0.00  0.00    +0.089 A 
ATOM     33  C   UNL     1       3.829   0.902  23.025  0.00  0.00    +0.042 A 
ATOM     34  C   UNL     1       3.054  -1.725  23.793  0.00  0.00    +0.030 A 
ATOM     35  C   UNL     1       4.780  -0.054  23.398  0.00  0.00    +0.061 A 
ATOM     36  C   UNL     1       4.402  -1.344  23.777  0.00  0.00    +0.017 A 
ATOM     40  H   UNL     1       1.248   2.118  22.444  0.00  0.00    +0.167 HD
BRANCH  35  37
ATOM      5  O   UNL     1       6.690   1.184  24.109  0.00  0.00    -0.245 OA
ATOM     37  C   UNL     1       6.190   0.306  23.393  0.00  0.00    +0.339 C 
BRANCH  37   4
ATOM      4  O   UNL     1       6.899  -0.448  22.500  0.00  0.00    -0.464 OA
ATOM     38  C   UNL     1       8.293  -0.628  22.768  0.00  0.00    +0.280 C 
ENDBRANCH  37   4
ENDBRANCH  35  37
ENDBRANCH  24  30
ENDBRANCH  17  24
TORSDOF 12
ENDMDL
MODEL 4
REMARK VINA RESULT:       2.2      2.108      5.282
REMARK  Name = 71693207
REMARK  16 active torsions:
REMARK  status: ('A' for Active; 'I' for Inactive)
REMARK    1  A    between atoms: O_2  and  C_29
REMARK    2  A    between atoms: O_4  and  C_37
REMARK    3  A    between atoms: O_4  and  C_38
REMARK    4  A    between atoms: N_6  and  C_21
REMARK    5  A    between atoms: C_9  and  C_18
REMARK    6  A    between atoms: C_9  and  C_20
REMARK    7  A    between atoms: C_10  and  C_19
REMARK    8  A    between atoms: C_13  and  C_21
REMARK    9  A    between atoms: C_17  and  C_24
REMARK   10  A    between atoms: C_18  and  C_25
REMARK   11  A    between atoms: C_19  and  C_26
REMARK   12  A    between atoms: C_19  and  C_27
REMARK   13  A    between atoms: C_20  and  C_29
REMARK   14  A    between atoms: C_22  and  C_28
REMARK   15  A    between atoms: C_24  and  C_30
REMARK   16  A    between atoms: C_35  and  C_37
REMARK                            x       y       z     vdW  Elec       q    Type
REMARK                         _______ _______ _______ _____ _____    ______ ____
ROOT
ATOM     10  C   UNL     1      -3.343  -1.933  24.367  0.00  0.00    +0.000 C 
ATOM     13  C   UNL     1      -3.774  -1.034  25.554  0.00  0.00    +0.032 C 
ATOM     14  C   UNL     1      -1.915  -2.455  24.582  0.00  0.00    +0.012 C 
ATOM     17  C   UNL     1      -0.891  -1.314  24.725  0.00  0.00    +0.022 C 
ATOM     22  C   UNL     1      -1.372  -0.244  25.686  0.00  0.00    -0.073 C 
ATOM     23  C   UNL     1      -2.662  -0.143  26.054  0.00  0.00    -0.022 C 
ATOM     28  C   UNL     1      -0.328   0.680  26.248  0.00  0.00    +0.039 C 
ENDROOT
BRANCH  10  19
ATOM     19  C   UNL     1      -4.302  -3.111  24.169  0.00  0.00    -0.013 C 
ATOM     26  C   UNL     1      -3.524  -4.384  23.854  0.00  0.00    +0.007 C 
ATOM     27  C   UNL     1      -5.304  -2.801  23.061  0.00  0.00    +0.007 C 
ENDBRANCH  10  19
BRANCH  13  21
ATOM     21  C   UNL     1      -4.989  -0.176  25.184  0.00  0.00    +0.112 C 
BRANCH  21   6
ATOM      1  O   UNL     1      -6.780   2.055  24.748  0.00  0.00    -0.276 OA
ATOM      6  N   UNL     1      -4.681   1.216  25.298  0.00  0.00    -0.315 N 
ATOM     25  C   UNL     1      -5.608   2.234  25.070  0.00  0.00    +0.214 C 
ATOM     39  H   UNL     1      -3.752   1.474  25.617  0.00  0.00    +0.149 HD
BRANCH  25  18
ATOM     18  C   UNL     1      -5.002   3.612  25.266  0.00  0.00    +0.103 C 
BRANCH  18   9
ATOM      9  C   UNL     1      -3.634   3.757  24.585  0.00  0.00    -0.011 C 
ATOM     11  C   UNL     1      -2.544   3.007  25.383  0.00  0.00    +0.008 C 
ATOM     12  C   UNL     1      -3.189   5.239  24.583  0.00  0.00    +0.008 C 
ATOM     15  C   UNL     1      -1.784   4.091  26.134  0.00  0.00    +0.001 C 
ATOM     16  C   UNL     1      -1.774   5.245  25.148  0.00  0.00    +0.001 C 
BRANCH   9  20
ATOM     20  C   UNL     1      -3.726   3.209  23.156  0.00  0.00    +0.127 C 
BRANCH  20  29
ATOM      3  O   UNL     1      -1.437   2.427  22.859  0.00  0.00    -0.251 OA
ATOM     29  C   UNL     1      -2.639   2.213  22.882  0.00  0.00    +0.305 C 
BRANCH  29   2
ATOM      2  O   UNL     1      -3.193   0.994  22.654  0.00  0.00    -0.481 OA
ATOM     41  H   UNL     1      -2.694   0.275  23.098  0.00  0.00    +0.295 HD
ENDBRANCH  29   2
ENDBRANCH  20  29
ENDBRANCH   9  20
ENDBRANCH  18   9
ENDBRANCH  25  18
ENDBRANCH  21   6
ENDBRANCH  13  21
BRANCH  17  24
ATOM     24  C   UNL     1      -0.543  -0.709  23.360  0.00  0.00    +0.082 C 
BRANCH  24  30
ATOM      7  N   UNL     1       1.863  -1.225  23.808  0.00  0.00    -0.342 N 
ATOM      8  N   UNL     1       1.468   0.632  22.653  0.00  0.00    -0.232 NA
ATOM     30  C   UNL     1       0.923  -0.402  23.254  0.00  0.00    +0.109 A 
ATOM     31  C   UNL     1       3.097  -0.687  23.547  0.00  0.00    +0.067 A 
ATOM     32  C   UNL     1       2.823   0.472  22.824  0.00  0.00    +0.089 A 
ATOM     33  C   UNL     1       4.390  -1.102  23.871  0.00  0.00    +0.042 A 
ATOM     34  C   UNL     1       3.890   1.277  22.392  0.00  0.00    +0.030 A 
ATOM     35  C   UNL     1       5.439  -0.287  23.432  0.00  0.00    +0.061 A 
ATOM     36  C   UNL     1       5.197   0.880  22.706  0.00  0.00    +0.017 A 
ATOM     40  H   UNL     1       1.684  -2.080  24.319  0.00  0.00    +0.167 HD
BRANCH  35  37
ATOM      5  O   UNL     1       7.165  -1.211  24.793  0.00  0.00    -0.245 OA
ATOM     37  C   UNL     1       6.810  -0.668  23.739  0.00  0.00    +0.339 C 
BRANCH  37   4
ATOM      4  O   UNL     1       7.660  -0.353  22.715  0.00  0.00    -0.464 OA
ATOM     38  C   UNL     1       9.018  -0.067  23.067  0.00  0.00    +0.280 C 
ENDBRANCH  37   4
ENDBRANCH  35  37
ENDBRANCH  24  30
ENDBRANCH  17  24
TORSDOF 12
ENDMDL
MODEL 5
REMARK VINA RESULT:       2.6      2.205      5.196
REMARK  Name = 71693207
REMARK  16 active torsions:
REMARK  status: ('A' for Active; 'I' for Inactive)
REMARK    1  A    between atoms: O_2  and  C_29
REMARK    2  A    between atoms: O_4  and  C_37
REMARK    3  A    between atoms: O_4  and  C_38
REMARK    4  A    between atoms: N_6  and  C_21
REMARK    5  A    between atoms: C_9  and  C_18
REMARK    6  A    between atoms: C_9  and  C_20
REMARK    7  A    between atoms: C_10  and  C_19
REMARK    8  A    between atoms: C_13  and  C_21
REMARK    9  A    between atoms: C_17  and  C_24
REMARK   10  A    between atoms: C_18  and  C_25
REMARK   11  A    between atoms: C_19  and  C_26
REMARK   12  A    between atoms: C_19  and  C_27
REMARK   13  A    between atoms: C_20  and  C_29
REMARK   14  A    between atoms: C_22  and  C_28
REMARK   15  A    between atoms: C_24  and  C_30
REMARK   16  A    between atoms: C_35  and  C_37
REMARK                            x       y       z     vdW  Elec       q    Type
REMARK                         _______ _______ _______ _____ _____    ______ ____
ROOT
ATOM     10  C   UNL     1      -3.330  -2.090  24.282  0.00  0.00    +0.000 C 
ATOM     13  C   UNL     1      -3.782  -1.319  25.548  0.00  0.00    +0.032 C 
ATOM     14  C   UNL     1      -1.886  -2.586  24.444  0.00  0.00    +0.012 C 
ATOM     17  C   UNL     1      -0.896  -1.433  24.691  0.00  0.00    +0.022 C 
ATOM     22  C   UNL     1      -1.404  -0.472  25.748  0.00  0.00    -0.073 C 
ATOM     23  C   UNL     1      -2.694  -0.445  26.127  0.00  0.00    -0.022 C 
ATOM     28  C   UNL     1      -0.385   0.427  26.391  0.00  0.00    +0.039 C 
ENDROOT
BRANCH  10  19
ATOM     19  C   UNL     1      -4.254  -3.272  23.977  0.00  0.00    -0.013 C 
ATOM     26  C   UNL     1      -3.489  -4.374  23.252  0.00  0.00    +0.007 C 
ATOM     27  C   UNL     1      -5.452  -2.813  23.152  0.00  0.00    +0.007 C 
ENDBRANCH  10  19
BRANCH  13  21
ATOM     21  C   UNL     1      -5.024  -0.466  25.262  0.00  0.00    +0.112 C 
BRANCH  21   6
ATOM      1  O   UNL     1      -6.774   1.771  24.713  0.00  0.00    -0.276 OA
ATOM      6  N   UNL     1      -4.748   0.920  25.476  0.00  0.00    -0.315 N 
ATOM     25  C   UNL     1      -5.653   1.942  25.183  0.00  0.00    +0.214 C 
ATOM     39  H   UNL     1      -3.868   1.169  25.917  0.00  0.00    +0.149 HD
BRANCH  25  18
ATOM     18  C   UNL     1      -5.091   3.313  25.514  0.00  0.00    +0.103 C 
BRANCH  18   9
ATOM      9  C   UNL     1      -3.717   3.557  24.876  0.00  0.00    -0.011 C 
ATOM     11  C   UNL     1      -3.855   4.397  23.587  0.00  0.00    +0.008 C 
ATOM     12  C   UNL     1      -3.088   2.217  24.423  0.00  0.00    +0.008 C 
ATOM     15  C   UNL     1      -3.709   3.401  22.445  0.00  0.00    +0.001 C 
ATOM     16  C   UNL     1      -2.670   2.429  22.973  0.00  0.00    +0.001 C 
BRANCH   9  20
ATOM     20  C   UNL     1      -2.815   4.272  25.890  0.00  0.00    +0.127 C 
BRANCH  20  29
ATOM      3  O   UNL     1      -0.545   3.668  25.238  0.00  0.00    -0.251 OA
ATOM     29  C   UNL     1      -1.439   4.494  25.334  0.00  0.00    +0.305 C 
BRANCH  29   2
ATOM      2  O   UNL     1      -1.317   5.787  24.937  0.00  0.00    -0.481 OA
ATOM     41  H   UNL     1      -0.564   5.913  24.322  0.00  0.00    +0.295 HD
ENDBRANCH  29   2
ENDBRANCH  20  29
ENDBRANCH   9  20
ENDBRANCH  18   9
ENDBRANCH  25  18
ENDBRANCH  21   6
ENDBRANCH  13  21
BRANCH  17  24
ATOM     24  C   UNL     1      -0.573  -0.694  23.388  0.00  0.00    +0.082 C 
BRANCH  24  30
ATOM      7  N   UNL     1       1.839  -1.212  23.803  0.00  0.00    -0.342 N 
ATOM      8  N   UNL     1       1.426   0.688  22.726  0.00  0.00    -0.232 NA
ATOM     30  C   UNL     1       0.891  -0.373  23.287  0.00  0.00    +0.109 A 
ATOM     31  C   UNL     1       3.068  -0.655  23.559  0.00  0.00    +0.067 A 
ATOM     32  C   UNL     1       2.783   0.530  22.884  0.00  0.00    +0.089 A 
ATOM     33  C   UNL     1       4.365  -1.074  23.859  0.00  0.00    +0.042 A 
ATOM     34  C   UNL     1       3.843   1.359  22.480  0.00  0.00    +0.030 A 
ATOM     35  C   UNL     1       5.407  -0.236  23.449  0.00  0.00    +0.061 A 
ATOM     36  C   UNL     1       5.153   0.959  22.771  0.00  0.00    +0.017 A 
ATOM     40  H   UNL     1       1.667  -2.088  24.279  0.00  0.00    +0.167 HD
BRANCH  35  37
ATOM      5  O   UNL     1       7.146  -1.198  24.765  0.00  0.00    -0.245 OA
ATOM     37  C   UNL     1       6.782  -0.620  23.733  0.00  0.00    +0.339 C 
BRANCH  37   4
ATOM      4  O   UNL     1       7.624  -0.264  22.716  0.00  0.00    -0.464 OA
ATOM     38  C   UNL     1       9.018  -0.181  23.030  0.00  0.00    +0.280 C 
ENDBRANCH  37   4
ENDBRANCH  35  37
ENDBRANCH  24  30
ENDBRANCH  17  24
TORSDOF 12
ENDMDL
MODEL 6
REMARK VINA RESULT:       2.7      2.123      5.409
REMARK  Name = 71693207
REMARK  16 active torsions:
REMARK  status: ('A' for Active; 'I' for Inactive)
REMARK    1  A    between atoms: O_2  and  C_29
REMARK    2  A    between atoms: O_4  and  C_37
REMARK    3  A    between atoms: O_4  and  C_38
REMARK    4  A    between atoms: N_6  and  C_21
REMARK    5  A    between atoms: C_9  and  C_18
REMARK    6  A    between atoms: C_9  and  C_20
REMARK    7  A    between atoms: C_10  and  C_19
REMARK    8  A    between atoms: C_13  and  C_21
REMARK    9  A    between atoms: C_17  and  C_24
REMARK   10  A    between atoms: C_18  and  C_25
REMARK   11  A    between atoms: C_19  and  C_26
REMARK   12  A    between atoms: C_19  and  C_27
REMARK   13  A    between atoms: C_20  and  C_29
REMARK   14  A    between atoms: C_22  and  C_28
REMARK   15  A    between atoms: C_24  and  C_30
REMARK   16  A    between atoms: C_35  and  C_37
REMARK                            x       y       z     vdW  Elec       q    Type
REMARK                         _______ _______ _______ _____ _____    ______ ____
ROOT
ATOM     10  C   UNL     1      -3.357  -1.680  24.250  0.00  0.00    +0.000 C 
ATOM     13  C   UNL     1      -3.854  -0.604  25.248  0.00  0.00    +0.032 C 
ATOM     14  C   UNL     1      -1.953  -2.166  24.641  0.00  0.00    +0.012 C 
ATOM     17  C   UNL     1      -0.926  -1.019  24.672  0.00  0.00    +0.022 C 
ATOM     22  C   UNL     1      -1.456   0.190  25.417  0.00  0.00    -0.073 C 
ATOM     23  C   UNL     1      -2.766   0.352  25.676  0.00  0.00    -0.022 C 
ATOM     28  C   UNL     1      -0.439   1.188  25.896  0.00  0.00    +0.039 C 
ENDROOT
BRANCH  10  19
ATOM     19  C   UNL     1      -4.316  -2.872  24.175  0.00  0.00    -0.013 C 
ATOM     26  C   UNL     1      -3.636  -4.137  24.688  0.00  0.00    +0.007 C 
ATOM     27  C   UNL     1      -4.813  -3.067  22.746  0.00  0.00    +0.007 C 
ENDBRANCH  10  19
BRANCH  13  21
ATOM     21  C   UNL     1      -5.030   0.189  24.666  0.00  0.00    +0.112 C 
BRANCH  21   6
ATOM      1  O   UNL     1      -3.341   1.484  22.706  0.00  0.00    -0.276 OA
ATOM      6  N   UNL     1      -4.712   1.581  24.583  0.00  0.00    -0.315 N 
ATOM     25  C   UNL     1      -3.885   2.127  23.600  0.00  0.00    +0.214 C 
ATOM     39  H   UNL     1      -5.158   2.212  25.242  0.00  0.00    +0.149 HD
BRANCH  25  18
ATOM     18  C   UNL     1      -3.728   3.628  23.758  0.00  0.00    +0.103 C 
BRANCH  18   9
ATOM      9  C   UNL     1      -2.944   4.010  25.021  0.00  0.00    -0.011 C 
ATOM     11  C   UNL     1      -2.649   5.526  25.044  0.00  0.00    +0.008 C 
ATOM     12  C   UNL     1      -1.556   3.325  25.021  0.00  0.00    +0.008 C 
ATOM     15  C   UNL     1      -1.186   5.653  24.642  0.00  0.00    +0.001 C 
ATOM     16  C   UNL     1      -0.549   4.437  25.289  0.00  0.00    +0.001 C 
BRANCH   9  20
ATOM     20  C   UNL     1      -3.757   3.602  26.256  0.00  0.00    +0.127 C 
BRANCH  20  29
ATOM      3  O   UNL     1      -5.738   4.734  25.399  0.00  0.00    -0.251 OA
ATOM     29  C   UNL     1      -5.224   3.835  26.046  0.00  0.00    +0.305 C 
BRANCH  29   2
ATOM      2  O   UNL     1      -5.930   2.874  26.695  0.00  0.00    -0.481 OA
ATOM     41  H   UNL     1      -6.656   2.514  26.141  0.00  0.00    +0.295 HD
ENDBRANCH  29   2
ENDBRANCH  20  29
ENDBRANCH   9  20
ENDBRANCH  18   9
ENDBRANCH  25  18
ENDBRANCH  21   6
ENDBRANCH  13  21
BRANCH  17  24
ATOM     24  C   UNL     1      -0.480  -0.639  23.256  0.00  0.00    +0.082 C 
BRANCH  24  30
ATOM      7  N   UNL     1       1.917  -1.206  23.694  0.00  0.00    -0.342 N 
ATOM      8  N   UNL     1       1.546   0.760  22.724  0.00  0.00    -0.232 NA
ATOM     30  C   UNL     1       0.988  -0.327  23.207  0.00  0.00    +0.109 A 
ATOM     31  C   UNL     1       3.156  -0.648  23.512  0.00  0.00    +0.067 A 
ATOM     32  C   UNL     1       2.898   0.578  22.904  0.00  0.00    +0.089 A 
ATOM     33  C   UNL     1       4.441  -1.098  23.816  0.00  0.00    +0.042 A 
ATOM     34  C   UNL     1       3.974   1.419  22.575  0.00  0.00    +0.030 A 
ATOM     35  C   UNL     1       5.501  -0.248  23.481  0.00  0.00    +0.061 A 
ATOM     36  C   UNL     1       5.274   0.988  22.871  0.00  0.00    +0.017 A 
ATOM     40  H   UNL     1       1.726  -2.107  24.113  0.00  0.00    +0.167 HD
BRANCH  35  37
ATOM      5  O   UNL     1       7.212  -1.242  24.810  0.00  0.00    -0.245 OA
ATOM     37  C   UNL     1       6.865  -0.662  23.773  0.00  0.00    +0.339 C 
BRANCH  37   4
ATOM      4  O   UNL     1       7.719  -0.333  22.757  0.00  0.00    -0.464 OA
ATOM     38  C   UNL     1       9.098  -0.163  23.101  0.00  0.00    +0.280 C 
ENDBRANCH  37   4
ENDBRANCH  35  37
ENDBRANCH  24  30
ENDBRANCH  17  24
TORSDOF 12
ENDMDL
MODEL 7
REMARK VINA RESULT:       3.4      1.884      3.542
REMARK  Name = 71693207
REMARK  16 active torsions:
REMARK  status: ('A' for Active; 'I' for Inactive)
REMARK    1  A    between atoms: O_2  and  C_29
REMARK    2  A    between atoms: O_4  and  C_37
REMARK    3  A    between atoms: O_4  and  C_38
REMARK    4  A    between atoms: N_6  and  C_21
REMARK    5  A    between atoms: C_9  and  C_18
REMARK    6  A    between atoms: C_9  and  C_20
REMARK    7  A    between atoms: C_10  and  C_19
REMARK    8  A    between atoms: C_13  and  C_21
REMARK    9  A    between atoms: C_17  and  C_24
REMARK   10  A    between atoms: C_18  and  C_25
REMARK   11  A    between atoms: C_19  and  C_26
REMARK   12  A    between atoms: C_19  and  C_27
REMARK   13  A    between atoms: C_20  and  C_29
REMARK   14  A    between atoms: C_22  and  C_28
REMARK   15  A    between atoms: C_24  and  C_30
REMARK   16  A    between atoms: C_35  and  C_37
REMARK                            x       y       z     vdW  Elec       q    Type
REMARK                         _______ _______ _______ _____ _____    ______ ____
ROOT
ATOM     10  C   UNL     1      -1.899   3.239  24.696  0.00  0.00    +0.000 C 
ATOM     13  C   UNL     1      -3.221   3.854  24.171  0.00  0.00    +0.032 C 
ATOM     14  C   UNL     1      -0.886   3.090  23.550  0.00  0.00    +0.012 C 
ATOM     17  C   UNL     1      -1.419   2.200  22.412  0.00  0.00    +0.022 C 
ATOM     22  C   UNL     1      -2.834   2.576  22.020  0.00  0.00    -0.073 C 
ATOM     23  C   UNL     1      -3.619   3.327  22.813  0.00  0.00    -0.022 C 
ATOM     28  C   UNL     1      -3.310   2.107  20.673  0.00  0.00    +0.039 C 
ENDROOT
BRANCH  10  19
ATOM     19  C   UNL     1      -1.289   4.080  25.821  0.00  0.00    -0.013 C 
ATOM     26  C   UNL     1      -0.698   5.370  25.262  0.00  0.00    +0.007 C 
ATOM     27  C   UNL     1      -0.228   3.278  26.568  0.00  0.00    +0.007 C 
ENDBRANCH  10  19
BRANCH  13  21
ATOM     21  C   UNL     1      -4.368   3.627  25.163  0.00  0.00    +0.112 C 
BRANCH  21   6
ATOM      1  O   UNL     1      -6.105   1.466  24.338  0.00  0.00    -0.276 OA
ATOM      6  N   UNL     1      -4.363   2.281  25.646  0.00  0.00    -0.315 N 
ATOM     25  C   UNL     1      -5.240   1.295  25.192  0.00  0.00    +0.214 C 
ATOM     39  H   UNL     1      -3.645   2.017  26.315  0.00  0.00    +0.149 HD
BRANCH  25  18
ATOM     18  C   UNL     1      -5.003  -0.038  25.880  0.00  0.00    +0.103 C 
BRANCH  18   9
ATOM      9  C   UNL     1      -3.721  -0.731  25.397  0.00  0.00    -0.011 C 
ATOM     11  C   UNL     1      -3.304  -1.850  26.377  0.00  0.00    +0.008 C 
ATOM     12  C   UNL     1      -2.538   0.267  25.393  0.00  0.00    +0.008 C 
ATOM     15  C   UNL     1      -2.151  -1.267  27.180  0.00  0.00    +0.001 C 
ATOM     16  C   UNL     1      -1.415  -0.423  26.156  0.00  0.00    +0.001 C 
BRANCH   9  20
ATOM     20  C   UNL     1      -3.960  -1.305  23.995  0.00  0.00    +0.127 C 
BRANCH  20  29
ATOM      3  O   UNL     1      -4.137  -3.732  23.856  0.00  0.00    -0.251 OA
ATOM     29  C   UNL     1      -3.461  -2.715  23.890  0.00  0.00    +0.305 C 
BRANCH  29   2
ATOM      2  O   UNL     1      -2.104  -2.710  23.836  0.00  0.00    -0.481 OA
ATOM     41  H   UNL     1      -1.771  -2.300  23.009  0.00  0.00    +0.295 HD
ENDBRANCH  29   2
ENDBRANCH  20  29
ENDBRANCH   9  20
ENDBRANCH  18   9
ENDBRANCH  25  18
ENDBRANCH  21   6
ENDBRANCH  13  21
BRANCH  17  24
ATOM     24  C   UNL     1      -1.329   0.716  22.783  0.00  0.00    +0.082 C 
BRANCH  24  30
ATOM      7  N   UNL     1       1.134   1.155  22.800  0.00  0.00    -0.342 N 
ATOM      8  N   UNL     1       0.508  -0.888  23.411  0.00  0.00    -0.232 NA
ATOM     30  C   UNL     1       0.094   0.292  23.009  0.00  0.00    +0.109 A 
ATOM     31  C   UNL     1       2.296   0.487  23.086  0.00  0.00    +0.067 A 
ATOM     32  C   UNL     1       1.879  -0.786  23.467  0.00  0.00    +0.089 A 
ATOM     33  C   UNL     1       3.636   0.876  23.049  0.00  0.00    +0.042 A 
ATOM     34  C   UNL     1       2.842  -1.741  23.832  0.00  0.00    +0.030 A 
ATOM     35  C   UNL     1       4.581  -0.088  23.416  0.00  0.00    +0.061 A 
ATOM     36  C   UNL     1       4.193  -1.374  23.802  0.00  0.00    +0.017 A 
ATOM     40  H   UNL     1       1.061   2.116  22.490  0.00  0.00    +0.167 HD
BRANCH  35  37
ATOM      5  O   UNL     1       6.490   1.206  24.018  0.00  0.00    -0.245 OA
ATOM     37  C   UNL     1       5.994   0.258  23.396  0.00  0.00    +0.339 C 
BRANCH  37   4
ATOM      4  O   UNL     1       6.711  -0.598  22.606  0.00  0.00    -0.464 OA
ATOM     38  C   UNL     1       8.130  -0.617  22.794  0.00  0.00    +0.280 C 
ENDBRANCH  37   4
ENDBRANCH  35  37
ENDBRANCH  24  30
ENDBRANCH  17  24
TORSDOF 12
ENDMDL
MODEL 8
REMARK VINA RESULT:       4.2      1.791      5.285
REMARK  Name = 71693207
REMARK  16 active torsions:
REMARK  status: ('A' for Active; 'I' for Inactive)
REMARK    1  A    between atoms: O_2  and  C_29
REMARK    2  A    between atoms: O_4  and  C_37
REMARK    3  A    between atoms: O_4  and  C_38
REMARK    4  A    between atoms: N_6  and  C_21
REMARK    5  A    between atoms: C_9  and  C_18
REMARK    6  A    between atoms: C_9  and  C_20
REMARK    7  A    between atoms: C_10  and  C_19
REMARK    8  A    between atoms: C_13  and  C_21
REMARK    9  A    between atoms: C_17  and  C_24
REMARK   10  A    between atoms: C_18  and  C_25
REMARK   11  A    between atoms: C_19  and  C_26
REMARK   12  A    between atoms: C_19  and  C_27
REMARK   13  A    between atoms: C_20  and  C_29
REMARK   14  A    between atoms: C_22  and  C_28
REMARK   15  A    between atoms: C_24  and  C_30
REMARK   16  A    between atoms: C_35  and  C_37
REMARK                            x       y       z     vdW  Elec       q    Type
REMARK                         _______ _______ _______ _____ _____    ______ ____
ROOT
ATOM     10  C   UNL     1      -2.855  -2.070  24.165  0.00  0.00    +0.000 C 
ATOM     13  C   UNL     1      -3.863  -1.004  23.666  0.00  0.00    +0.032 C 
ATOM     14  C   UNL     1      -3.383  -2.754  25.435  0.00  0.00    +0.012 C 
ATOM     17  C   UNL     1      -3.635  -1.751  26.576  0.00  0.00    +0.022 C 
ATOM     22  C   UNL     1      -4.399  -0.533  26.095  0.00  0.00    -0.073 C 
ATOM     23  C   UNL     1      -4.500  -0.223  24.791  0.00  0.00    -0.022 C 
ATOM     28  C   UNL     1      -5.081   0.296  27.148  0.00  0.00    +0.039 C 
ENDROOT
BRANCH  10  19
ATOM     19  C   UNL     1      -2.565  -3.124  23.092  0.00  0.00    -0.013 C 
ATOM     26  C   UNL     1      -3.644  -4.201  23.097  0.00  0.00    +0.007 C 
ATOM     27  C   UNL     1      -1.186  -3.739  23.309  0.00  0.00    +0.007 C 
ENDBRANCH  10  19
BRANCH  13  21
ATOM     21  C   UNL     1      -3.200  -0.034  22.682  0.00  0.00    +0.112 C 
BRANCH  21   6
ATOM      1  O   UNL     1      -1.701   2.432  22.472  0.00  0.00    -0.276 OA
ATOM      6  N   UNL     1      -3.691   1.296  22.871  0.00  0.00    -0.315 N 
ATOM     25  C   UNL     1      -2.897   2.437  22.750  0.00  0.00    +0.214 C 
ATOM     39  H   UNL     1      -4.684   1.416  23.048  0.00  0.00    +0.149 HD
BRANCH  25  18
ATOM     18  C   UNL     1      -3.685   3.709  23.003  0.00  0.00    +0.103 C 
BRANCH  18   9
ATOM      9  C   UNL     1      -3.656   4.138  24.476  0.00  0.00    -0.011 C 
ATOM     11  C   UNL     1      -2.795   5.408  24.659  0.00  0.00    +0.008 C 
ATOM     12  C   UNL     1      -2.968   3.053  25.339  0.00  0.00    +0.008 C 
ATOM     15  C   UNL     1      -1.478   4.915  25.241  0.00  0.00    +0.001 C 
ATOM     16  C   UNL     1      -1.913   3.786  26.157  0.00  0.00    +0.001 C 
BRANCH   9  20
ATOM     20  C   UNL     1      -5.092   4.389  24.953  0.00  0.00    +0.127 C 
BRANCH  20  29
ATOM      3  O   UNL     1      -6.110   2.212  24.544  0.00  0.00    -0.251 OA
ATOM     29  C   UNL     1      -5.781   3.106  25.310  0.00  0.00    +0.305 C 
BRANCH  29   2
ATOM      2  O   UNL     1      -5.998   3.068  26.650  0.00  0.00    -0.481 OA
ATOM     41  H   UNL     1      -5.350   3.617  27.142  0.00  0.00    +0.295 HD
ENDBRANCH  29   2
ENDBRANCH  20  29
ENDBRANCH   9  20
ENDBRANCH  18   9
ENDBRANCH  25  18
ENDBRANCH  21   6
ENDBRANCH  13  21
BRANCH  17  24
ATOM     24  C   UNL     1      -2.322  -1.343  27.253  0.00  0.00    +0.082 C 
BRANCH  24  30
ATOM      7  N   UNL     1      -0.584  -1.415  25.455  0.00  0.00    -0.342 N 
ATOM      8  N   UNL     1      -1.222   0.612  26.106  0.00  0.00    -0.232 NA
ATOM     30  C   UNL     1      -1.387  -0.680  26.282  0.00  0.00    +0.109 A 
ATOM     31  C   UNL     1       0.147  -0.540  24.695  0.00  0.00    +0.067 A 
ATOM     32  C   UNL     1      -0.270   0.720  25.119  0.00  0.00    +0.089 A 
ATOM     33  C   UNL     1       1.108  -0.735  23.701  0.00  0.00    +0.042 A 
ATOM     34  C   UNL     1       0.296   1.863  24.530  0.00  0.00    +0.030 A 
ATOM     35  C   UNL     1       1.660   0.415  23.125  0.00  0.00    +0.061 A 
ATOM     36  C   UNL     1       1.262   1.691  23.530  0.00  0.00    +0.017 A 
ATOM     40  H   UNL     1      -0.536  -2.425  25.409  0.00  0.00    +0.167 HD
BRANCH  35  37
ATOM      5  O   UNL     1       2.482  -0.308  21.007  0.00  0.00    -0.245 OA
ATOM     37  C   UNL     1       2.666   0.276  22.083  0.00  0.00    +0.339 C 
BRANCH  37   4
ATOM      4  O   UNL     1       3.844   0.873  22.439  0.00  0.00    -0.464 OA
ATOM     38  C   UNL     1       4.733   0.111  23.261  0.00  0.00    +0.280 C 
ENDBRANCH  37   4
ENDBRANCH  35  37
ENDBRANCH  24  30
ENDBRANCH  17  24
TORSDOF 12
ENDMDL
MODEL 9
REMARK VINA RESULT:       4.2      1.905      4.949
REMARK  Name = 71693207
REMARK  16 active torsions:
REMARK  status: ('A' for Active; 'I' for Inactive)
REMARK    1  A    between atoms: O_2  and  C_29
REMARK    2  A    between atoms: O_4  and  C_37
REMARK    3  A    between atoms: O_4  and  C_38
REMARK    4  A    between atoms: N_6  and  C_21
REMARK    5  A    between atoms: C_9  and  C_18
REMARK    6  A    between atoms: C_9  and  C_20
REMARK    7  A    between atoms: C_10  and  C_19
REMARK    8  A    between atoms: C_13  and  C_21
REMARK    9  A    between atoms: C_17  and  C_24
REMARK   10  A    between atoms: C_18  and  C_25
REMARK   11  A    between atoms: C_19  and  C_26
REMARK   12  A    between atoms: C_19  and  C_27
REMARK   13  A    between atoms: C_20  and  C_29
REMARK   14  A    between atoms: C_22  and  C_28
REMARK   15  A    between atoms: C_24  and  C_30
REMARK   16  A    between atoms: C_35  and  C_37
REMARK                            x       y       z     vdW  Elec       q    Type
REMARK                         _______ _______ _______ _____ _____    ______ ____
ROOT
ATOM     10  C   UNL     1      -3.093   0.811  23.688  0.00  0.00    +0.000 C 
ATOM     13  C   UNL     1      -4.537   0.394  24.064  0.00  0.00    +0.032 C 
ATOM     14  C   UNL     1      -2.382  -0.331  22.945  0.00  0.00    +0.012 C 
ATOM     17  C   UNL     1      -2.314  -1.620  23.786  0.00  0.00    +0.022 C 
ATOM     22  C   UNL     1      -3.652  -1.951  24.417  0.00  0.00    -0.073 C 
ATOM     23  C   UNL     1      -4.637  -1.042  24.520  0.00  0.00    -0.022 C 
ATOM     28  C   UNL     1      -3.846  -3.367  24.885  0.00  0.00    +0.039 C 
ENDROOT
BRANCH  10  19
ATOM     19  C   UNL     1      -3.074   2.079  22.828  0.00  0.00    -0.013 C 
ATOM     26  C   UNL     1      -4.490   2.602  22.617  0.00  0.00    +0.007 C 
ATOM     27  C   UNL     1      -2.394   1.804  21.491  0.00  0.00    +0.007 C 
ENDBRANCH  10  19
BRANCH  13  21
ATOM     21  C   UNL     1      -5.113   1.315  25.146  0.00  0.00    +0.112 C 
BRANCH  21   6
ATOM      1  O   UNL     1      -5.178   4.194  25.424  0.00  0.00    -0.276 OA
ATOM      6  N   UNL     1      -4.093   2.154  25.694  0.00  0.00    -0.315 N 
ATOM     25  C   UNL     1      -4.205   3.542  25.792  0.00  0.00    +0.214 C 
ATOM     39  H   UNL     1      -3.267   1.709  26.083  0.00  0.00    +0.149 HD
BRANCH  25  18
ATOM     18  C   UNL     1      -2.972   4.170  26.416  0.00  0.00    +0.103 C 
BRANCH  18   9
ATOM      9  C   UNL     1      -1.679   3.784  25.684  0.00  0.00    -0.011 C 
ATOM     11  C   UNL     1      -0.571   4.828  25.944  0.00  0.00    +0.008 C 
ATOM     12  C   UNL     1      -1.902   3.802  24.152  0.00  0.00    +0.008 C 
ATOM     15  C   UNL     1      -0.508   5.668  24.676  0.00  0.00    +0.001 C 
ATOM     16  C   UNL     1      -0.772   4.650  23.582  0.00  0.00    +0.001 C 
BRANCH   9  20
ATOM     20  C   UNL     1      -1.232   2.396  26.157  0.00  0.00    +0.127 C 
BRANCH  20  29
ATOM      3  O   UNL     1       0.818   2.586  27.463  0.00  0.00    -0.251 OA
ATOM     29  C   UNL     1       0.246   2.355  26.408  0.00  0.00    +0.305 C 
BRANCH  29   2
ATOM      2  O   UNL     1       0.889   2.013  25.262  0.00  0.00    -0.481 OA
ATOM     41  H   UNL     1       0.607   1.134  24.931  0.00  0.00    +0.295 HD
ENDBRANCH  29   2
ENDBRANCH  20  29
ENDBRANCH   9  20
ENDBRANCH  18   9
ENDBRANCH  25  18
ENDBRANCH  21   6
ENDBRANCH  13  21
BRANCH  17  24
ATOM     24  C   UNL     1      -1.214  -1.528  24.849  0.00  0.00    +0.082 C 
BRANCH  24  30
ATOM      7  N   UNL     1       1.277  -1.604  24.623  0.00  0.00    -0.342 N 
ATOM      8  N   UNL     1       0.234  -0.092  23.371  0.00  0.00    -0.232 NA
ATOM     30  C   UNL     1       0.082  -1.048  24.259  0.00  0.00    +0.109 A 
ATOM     31  C   UNL     1       2.266  -0.964  23.923  0.00  0.00    +0.067 A 
ATOM     32  C   UNL     1       1.590  -0.025  23.148  0.00  0.00    +0.089 A 
ATOM     33  C   UNL     1       3.653  -1.121  23.901  0.00  0.00    +0.042 A 
ATOM     34  C   UNL     1       2.325   0.816  22.296  0.00  0.00    +0.030 A 
ATOM     35  C   UNL     1       4.368  -0.275  23.047  0.00  0.00    +0.061 A 
ATOM     36  C   UNL     1       3.719   0.676  22.257  0.00  0.00    +0.017 A 
ATOM     40  H   UNL     1       1.410  -2.354  25.289  0.00  0.00    +0.167 HD
BRANCH  35  37
ATOM      5  O   UNL     1       6.451  -0.654  21.949  0.00  0.00    -0.245 OA
ATOM     37  C   UNL     1       5.817  -0.392  22.980  0.00  0.00    +0.339 C 
BRANCH  37   4
ATOM      4  O   UNL     1       6.396  -0.173  24.200  0.00  0.00    -0.464 OA
ATOM     38  C   UNL     1       5.798   0.829  25.029  0.00  0.00    +0.280 C 
ENDBRANCH  37   4
ENDBRANCH  35  37
ENDBRANCH  24  30
ENDBRANCH  17  24
TORSDOF 12
ENDMDL
