MODEL 1
REMARK VINA RESULT:      -5.7      0.000      0.000
REMARK  Name = 75536949
REMARK  5 active torsions:
REMARK  status: ('A' for Active; 'I' for Inactive)
REMARK    1  A    between atoms: O_5  and  C_9
REMARK    2  A    between atoms: O_6  and  C_19
REMARK    3  A    between atoms: O_6  and  C_20
REMARK    4  A    between atoms: N_7  and  C_11
REMARK    5  A    between atoms: C_11  and  C_14
REMARK                            x       y       z     vdW  Elec       q    Type
REMARK                         _______ _______ _______ _____ _____    ______ ____
ROOT
ATOM     14  C   UNL     1      -1.256   0.382  24.229  0.00  0.00    -0.033 A 
ATOM     15  C   UNL     1      -0.477  -0.534  23.521  0.00  0.00    +0.008 A 
ATOM     16  C   UNL     1      -0.706   1.596  24.638  0.00  0.00    +0.008 A 
ATOM     17  C   UNL     1       0.852  -0.235  23.224  0.00  0.00    +0.046 A 
ATOM     18  C   UNL     1       0.624   1.895  24.341  0.00  0.00    +0.046 A 
ATOM     19  C   UNL     1       1.403   0.979  23.633  0.00  0.00    +0.130 A 
ENDROOT
BRANCH  19   6
ATOM      6  O   UNL     1       2.700   1.271  23.343  0.00  0.00    -0.406 OA
BRANCH   6  20
ATOM      1  F   UNL     1       2.865   0.196  21.330  0.00  0.00    -0.133 F 
ATOM      2  F   UNL     1       4.685   0.833  22.359  0.00  0.00    -0.133 F 
ATOM      3  F   UNL     1       3.540  -0.848  23.157  0.00  0.00    -0.133 F 
ATOM     20  C   UNL     1       3.435   0.350  22.544  0.00  0.00    +0.575 C 
ENDBRANCH   6  20
ENDBRANCH  19   6
BRANCH  14  11
ATOM     11  C   UNL     1      -2.691   0.061  24.550  0.00  0.00    +0.119 C 
BRANCH  11   7
ATOM      4  O   UNL     1      -4.890   4.026  24.642  0.00  0.00    -0.376 OA
ATOM      7  N   UNL     1      -3.461   1.264  24.870  0.00  0.00    -0.293 NA
ATOM      8  C   UNL     1      -4.765   0.893  25.433  0.00  0.00    +0.118 C 
ATOM      9  C   UNL     1      -5.861   1.969  25.471  0.00  0.00    +0.154 C 
ATOM     10  C   UNL     1      -3.534   2.174  23.727  0.00  0.00    +0.113 C 
ATOM     12  C   UNL     1      -5.359   3.366  25.813  0.00  0.00    +0.192 C 
ATOM     13  C   UNL     1      -3.597   3.622  24.215  0.00  0.00    +0.175 C 
BRANCH   9   5
ATOM      5  O   UNL     1      -6.819   1.591  26.461  0.00  0.00    -0.388 OA
ATOM     21  H   UNL     1      -7.206   2.408  26.820  0.00  0.00    +0.210 HD
ENDBRANCH   9   5
ENDBRANCH  11   7
ENDBRANCH  14  11
TORSDOF 5
ENDMDL
MODEL 2
REMARK VINA RESULT:      -4.9      3.889      5.852
REMARK  Name = 75536949
REMARK  5 active torsions:
REMARK  status: ('A' for Active; 'I' for Inactive)
REMARK    1  A    between atoms: O_5  and  C_9
REMARK    2  A    between atoms: O_6  and  C_19
REMARK    3  A    between atoms: O_6  and  C_20
REMARK    4  A    between atoms: N_7  and  C_11
REMARK    5  A    between atoms: C_11  and  C_14
REMARK                            x       y       z     vdW  Elec       q    Type
REMARK                         _______ _______ _______ _____ _____    ______ ____
ROOT
ATOM     14  C   UNL     1      -4.375   1.491  24.822  0.00  0.00    -0.033 A 
ATOM     15  C   UNL     1      -4.619   2.520  25.732  0.00  0.00    +0.008 A 
ATOM     16  C   UNL     1      -3.523   1.706  23.739  0.00  0.00    +0.008 A 
ATOM     17  C   UNL     1      -4.013   3.764  25.557  0.00  0.00    +0.046 A 
ATOM     18  C   UNL     1      -2.916   2.949  23.564  0.00  0.00    +0.046 A 
ATOM     19  C   UNL     1      -3.161   3.979  24.473  0.00  0.00    +0.130 A 
ENDROOT
BRANCH  19   6
ATOM      6  O   UNL     1      -2.569   5.193  24.303  0.00  0.00    -0.406 OA
BRANCH   6  20
ATOM      1  F   UNL     1      -0.327   5.316  23.868  0.00  0.00    -0.133 F 
ATOM      2  F   UNL     1      -1.198   6.618  25.392  0.00  0.00    -0.133 F 
ATOM      3  F   UNL     1      -0.994   4.481  25.802  0.00  0.00    -0.133 F 
ATOM     20  C   UNL     1      -1.264   5.386  24.837  0.00  0.00    +0.575 C 
ENDBRANCH   6  20
ENDBRANCH  19   6
BRANCH  14  11
ATOM     11  C   UNL     1      -5.028   0.149  25.010  0.00  0.00    +0.119 C 
BRANCH  11   7
ATOM      4  O   UNL     1      -2.394  -3.413  24.040  0.00  0.00    -0.376 OA
ATOM      7  N   UNL     1      -4.054  -0.943  24.971  0.00  0.00    -0.293 NA
ATOM      8  C   UNL     1      -2.707  -0.426  25.237  0.00  0.00    +0.118 C 
ATOM      9  C   UNL     1      -1.510  -1.315  24.863  0.00  0.00    +0.154 C 
ATOM     10  C   UNL     1      -4.169  -1.721  23.737  0.00  0.00    +0.113 C 
ATOM     12  C   UNL     1      -1.722  -2.798  25.134  0.00  0.00    +0.192 C 
ATOM     13  C   UNL     1      -3.795  -3.179  24.003  0.00  0.00    +0.175 C 
BRANCH   9   5
ATOM      5  O   UNL     1      -0.382  -0.884  25.626  0.00  0.00    -0.388 OA
ATOM     21  H   UNL     1      -0.515  -1.186  26.541  0.00  0.00    +0.210 HD
ENDBRANCH   9   5
ENDBRANCH  11   7
ENDBRANCH  14  11
TORSDOF 5
ENDMDL
MODEL 3
REMARK VINA RESULT:      -4.8      1.623      2.321
REMARK  Name = 75536949
REMARK  5 active torsions:
REMARK  status: ('A' for Active; 'I' for Inactive)
REMARK    1  A    between atoms: O_5  and  C_9
REMARK    2  A    between atoms: O_6  and  C_19
REMARK    3  A    between atoms: O_6  and  C_20
REMARK    4  A    between atoms: N_7  and  C_11
REMARK    5  A    between atoms: C_11  and  C_14
REMARK                            x       y       z     vdW  Elec       q    Type
REMARK                         _______ _______ _______ _____ _____    ______ ____
ROOT
ATOM     14  C   UNL     1       0.026   0.563  23.613  0.00  0.00    -0.033 A 
ATOM     15  C   UNL     1       0.899   1.517  24.137  0.00  0.00    +0.008 A 
ATOM     16  C   UNL     1       0.494  -0.388  22.707  0.00  0.00    +0.008 A 
ATOM     17  C   UNL     1       2.240   1.519  23.754  0.00  0.00    +0.046 A 
ATOM     18  C   UNL     1       1.835  -0.386  22.324  0.00  0.00    +0.046 A 
ATOM     19  C   UNL     1       2.709   0.568  22.848  0.00  0.00    +0.130 A 
ENDROOT
BRANCH  19   6
ATOM      6  O   UNL     1       4.017   0.570  22.474  0.00  0.00    -0.406 OA
BRANCH   6  20
ATOM      1  F   UNL     1       6.137  -0.261  22.696  0.00  0.00    -0.133 F 
ATOM      2  F   UNL     1       5.200   0.757  24.388  0.00  0.00    -0.133 F 
ATOM      3  F   UNL     1       4.489  -1.227  23.808  0.00  0.00    -0.133 F 
ATOM     20  C   UNL     1       4.964  -0.056  23.333  0.00  0.00    +0.575 C 
ENDBRANCH   6  20
ENDBRANCH  19   6
BRANCH  14  11
ATOM     11  C   UNL     1      -1.422   0.560  24.026  0.00  0.00    +0.119 C 
BRANCH  11   7
ATOM      4  O   UNL     1      -2.135   4.824  25.396  0.00  0.00    -0.376 OA
ATOM      7  N   UNL     1      -1.800   1.802  24.701  0.00  0.00    -0.293 NA
ATOM      8  C   UNL     1      -3.245   1.819  24.954  0.00  0.00    +0.118 C 
ATOM      9  C   UNL     1      -3.899   3.169  25.289  0.00  0.00    +0.154 C 
ATOM     10  C   UNL     1      -1.298   2.975  23.985  0.00  0.00    +0.113 C 
ATOM     12  C   UNL     1      -3.055   4.071  26.180  0.00  0.00    +0.192 C 
ATOM     13  C   UNL     1      -0.988   4.098  24.975  0.00  0.00    +0.175 C 
BRANCH   9   5
ATOM      5  O   UNL     1      -5.130   2.909  25.966  0.00  0.00    -0.388 OA
ATOM     21  H   UNL     1      -5.323   1.961  25.868  0.00  0.00    +0.210 HD
ENDBRANCH   9   5
ENDBRANCH  11   7
ENDBRANCH  14  11
TORSDOF 5
ENDMDL
MODEL 4
REMARK VINA RESULT:      -4.6      1.353      2.228
REMARK  Name = 75536949
REMARK  5 active torsions:
REMARK  status: ('A' for Active; 'I' for Inactive)
REMARK    1  A    between atoms: O_5  and  C_9
REMARK    2  A    between atoms: O_6  and  C_19
REMARK    3  A    between atoms: O_6  and  C_20
REMARK    4  A    between atoms: N_7  and  C_11
REMARK    5  A    between atoms: C_11  and  C_14
REMARK                            x       y       z     vdW  Elec       q    Type
REMARK                         _______ _______ _______ _____ _____    ______ ____
ROOT
ATOM     14  C   UNL     1      -0.405   0.327  24.209  0.00  0.00    -0.033 A 
ATOM     15  C   UNL     1       0.070  -0.652  23.337  0.00  0.00    +0.008 A 
ATOM     16  C   UNL     1       0.371   1.455  24.481  0.00  0.00    +0.008 A 
ATOM     17  C   UNL     1       1.321  -0.505  22.738  0.00  0.00    +0.046 A 
ATOM     18  C   UNL     1       1.621   1.603  23.881  0.00  0.00    +0.046 A 
ATOM     19  C   UNL     1       2.097   0.622  23.009  0.00  0.00    +0.130 A 
ENDROOT
BRANCH  19   6
ATOM      6  O   UNL     1       3.317   0.766  22.424  0.00  0.00    -0.406 OA
BRANCH   6  20
ATOM      1  F   UNL     1       4.162  -1.071  23.493  0.00  0.00    -0.133 F 
ATOM      2  F   UNL     1       5.455   0.089  22.168  0.00  0.00    -0.133 F 
ATOM      3  F   UNL     1       4.868   0.934  24.096  0.00  0.00    -0.133 F 
ATOM     20  C   UNL     1       4.444   0.177  23.062  0.00  0.00    +0.575 C 
ENDBRANCH   6  20
ENDBRANCH  19   6
BRANCH  14  11
ATOM     11  C   UNL     1      -1.754   0.170  24.856  0.00  0.00    +0.119 C 
BRANCH  11   7
ATOM      4  O   UNL     1      -4.972   3.365  24.806  0.00  0.00    -0.376 OA
ATOM      7  N   UNL     1      -2.579   1.368  24.697  0.00  0.00    -0.293 NA
ATOM      8  C   UNL     1      -1.875   2.540  25.232  0.00  0.00    +0.118 C 
ATOM      9  C   UNL     1      -2.700   3.804  25.518  0.00  0.00    +0.154 C 
ATOM     10  C   UNL     1      -3.923   1.171  25.243  0.00  0.00    +0.113 C 
ATOM     12  C   UNL     1      -3.788   4.090  24.491  0.00  0.00    +0.192 C 
ATOM     13  C   UNL     1      -4.936   1.992  24.444  0.00  0.00    +0.175 C 
BRANCH   9   5
ATOM      5  O   UNL     1      -1.809   4.920  25.539  0.00  0.00    -0.388 OA
ATOM     21  H   UNL     1      -2.164   5.565  26.175  0.00  0.00    +0.210 HD
ENDBRANCH   9   5
ENDBRANCH  11   7
ENDBRANCH  14  11
TORSDOF 5
ENDMDL
MODEL 5
REMARK VINA RESULT:      -4.4     15.835     17.339
REMARK  Name = 75536949
REMARK  5 active torsions:
REMARK  status: ('A' for Active; 'I' for Inactive)
REMARK    1  A    between atoms: O_5  and  C_9
REMARK    2  A    between atoms: O_6  and  C_19
REMARK    3  A    between atoms: O_6  and  C_20
REMARK    4  A    between atoms: N_7  and  C_11
REMARK    5  A    between atoms: C_11  and  C_14
REMARK                            x       y       z     vdW  Elec       q    Type
REMARK                         _______ _______ _______ _____ _____    ______ ____
ROOT
ATOM     14  C   UNL     1      -6.023 -10.274  14.573  0.00  0.00    -0.033 A 
ATOM     15  C   UNL     1      -7.306 -10.781  14.362  0.00  0.00    +0.008 A 
ATOM     16  C   UNL     1      -5.698  -9.687  15.795  0.00  0.00    +0.008 A 
ATOM     17  C   UNL     1      -8.262 -10.700  15.373  0.00  0.00    +0.046 A 
ATOM     18  C   UNL     1      -6.654  -9.607  16.807  0.00  0.00    +0.046 A 
ATOM     19  C   UNL     1      -7.937 -10.113  16.596  0.00  0.00    +0.130 A 
ENDROOT
BRANCH  19   6
ATOM      6  O   UNL     1      -8.871 -10.035  17.583  0.00  0.00    -0.406 OA
BRANCH   6  20
ATOM      1  F   UNL     1     -10.687  -9.266  16.425  0.00  0.00    -0.133 F 
ATOM      2  F   UNL     1     -10.637  -9.063  18.600  0.00  0.00    -0.133 F 
ATOM      3  F   UNL     1      -9.332  -7.804  17.379  0.00  0.00    -0.133 F 
ATOM     20  C   UNL     1      -9.878  -9.034  17.481  0.00  0.00    +0.575 C 
ENDBRANCH   6  20
ENDBRANCH  19   6
BRANCH  14  11
ATOM     11  C   UNL     1      -4.990 -10.361  13.482  0.00  0.00    +0.119 C 
BRANCH  11   7
ATOM      4  O   UNL     1      -7.189  -8.655   9.901  0.00  0.00    -0.376 OA
ATOM      7  N   UNL     1      -5.550 -10.029  12.171  0.00  0.00    -0.293 NA
ATOM      8  C   UNL     1      -4.472  -9.839  11.195  0.00  0.00    +0.118 C 
ATOM      9  C   UNL     1      -4.812  -9.115   9.883  0.00  0.00    +0.154 C 
ATOM     10  C   UNL     1      -6.491  -8.911  12.258  0.00  0.00    +0.113 C 
ATOM     12  C   UNL     1      -6.178  -9.464   9.308  0.00  0.00    +0.192 C 
ATOM     13  C   UNL     1      -7.585  -9.067  11.201  0.00  0.00    +0.175 C 
BRANCH   9   5
ATOM      5  O   UNL     1      -3.823  -9.466   8.913  0.00  0.00    -0.388 OA
ATOM     21  H   UNL     1      -3.123  -9.959   9.375  0.00  0.00    +0.210 HD
ENDBRANCH   9   5
ENDBRANCH  11   7
ENDBRANCH  14  11
TORSDOF 5
ENDMDL
MODEL 6
REMARK VINA RESULT:      -4.3      4.460      7.191
REMARK  Name = 75536949
REMARK  5 active torsions:
REMARK  status: ('A' for Active; 'I' for Inactive)
REMARK    1  A    between atoms: O_5  and  C_9
REMARK    2  A    between atoms: O_6  and  C_19
REMARK    3  A    between atoms: O_6  and  C_20
REMARK    4  A    between atoms: N_7  and  C_11
REMARK    5  A    between atoms: C_11  and  C_14
REMARK                            x       y       z     vdW  Elec       q    Type
REMARK                         _______ _______ _______ _____ _____    ______ ____
ROOT
ATOM     14  C   UNL     1      -1.568   3.208  24.588  0.00  0.00    -0.033 A 
ATOM     15  C   UNL     1      -1.987   3.670  25.835  0.00  0.00    +0.008 A 
ATOM     16  C   UNL     1      -2.506   2.749  23.663  0.00  0.00    +0.008 A 
ATOM     17  C   UNL     1      -3.344   3.674  26.157  0.00  0.00    +0.046 A 
ATOM     18  C   UNL     1      -3.863   2.753  23.984  0.00  0.00    +0.046 A 
ATOM     19  C   UNL     1      -4.283   3.215  25.232  0.00  0.00    +0.130 A 
ENDROOT
BRANCH  19   6
ATOM      6  O   UNL     1      -5.607   3.219  25.546  0.00  0.00    -0.406 OA
BRANCH   6  20
ATOM      1  F   UNL     1      -7.126   1.719  24.727  0.00  0.00    -0.133 F 
ATOM      2  F   UNL     1      -5.328   0.987  25.731  0.00  0.00    -0.133 F 
ATOM      3  F   UNL     1      -6.905   1.928  26.916  0.00  0.00    -0.133 F 
ATOM     20  C   UNL     1      -6.259   1.968  25.732  0.00  0.00    +0.575 C 
ENDBRANCH   6  20
ENDBRANCH  19   6
BRANCH  14  11
ATOM     11  C   UNL     1      -0.104   3.204  24.239  0.00  0.00    +0.119 C 
BRANCH  11   7
ATOM      4  O   UNL     1       2.102  -0.544  22.952  0.00  0.00    -0.376 OA
ATOM      7  N   UNL     1       0.332   1.904  23.726  0.00  0.00    -0.293 NA
ATOM      8  C   UNL     1      -0.499   0.835  24.291  0.00  0.00    +0.118 C 
ATOM      9  C   UNL     1       0.025  -0.607  24.196  0.00  0.00    +0.154 C 
ATOM     10  C   UNL     1       1.771   1.711  23.907  0.00  0.00    +0.113 C 
ATOM     12  C   UNL     1       0.733  -0.932  22.887  0.00  0.00    +0.192 C 
ATOM     13  C   UNL     1       2.328   0.847  22.775  0.00  0.00    +0.175 C 
BRANCH   9   5
ATOM      5  O   UNL     1      -1.087  -1.493  24.327  0.00  0.00    -0.388 OA
ATOM     21  H   UNL     1      -1.794  -1.163  23.745  0.00  0.00    +0.210 HD
ENDBRANCH   9   5
ENDBRANCH  11   7
ENDBRANCH  14  11
TORSDOF 5
ENDMDL
MODEL 7
REMARK VINA RESULT:      -4.2      4.057      4.843
REMARK  Name = 75536949
REMARK  5 active torsions:
REMARK  status: ('A' for Active; 'I' for Inactive)
REMARK    1  A    between atoms: O_5  and  C_9
REMARK    2  A    between atoms: O_6  and  C_19
REMARK    3  A    between atoms: O_6  and  C_20
REMARK    4  A    between atoms: N_7  and  C_11
REMARK    5  A    between atoms: C_11  and  C_14
REMARK                            x       y       z     vdW  Elec       q    Type
REMARK                         _______ _______ _______ _____ _____    ______ ____
ROOT
ATOM     14  C   UNL     1      -0.282   0.862  25.072  0.00  0.00    -0.033 A 
ATOM     15  C   UNL     1      -0.190   0.334  23.784  0.00  0.00    +0.008 A 
ATOM     16  C   UNL     1      -0.973   0.165  26.063  0.00  0.00    +0.008 A 
ATOM     17  C   UNL     1      -0.790  -0.889  23.488  0.00  0.00    +0.046 A 
ATOM     18  C   UNL     1      -1.573  -1.058  25.767  0.00  0.00    +0.046 A 
ATOM     19  C   UNL     1      -1.482  -1.586  24.478  0.00  0.00    +0.130 A 
ENDROOT
BRANCH  19   6
ATOM      6  O   UNL     1      -2.067  -2.780  24.189  0.00  0.00    -0.406 OA
BRANCH   6  20
ATOM      1  F   UNL     1      -4.130  -1.923  23.700  0.00  0.00    -0.133 F 
ATOM      2  F   UNL     1      -3.877  -4.088  23.854  0.00  0.00    -0.133 F 
ATOM      3  F   UNL     1      -3.808  -2.872  25.669  0.00  0.00    -0.133 F 
ATOM     20  C   UNL     1      -3.475  -2.900  24.362  0.00  0.00    +0.575 C 
ENDBRANCH   6  20
ENDBRANCH  19   6
BRANCH  14  11
ATOM     11  C   UNL     1       0.366   2.181  25.393  0.00  0.00    +0.119 C 
BRANCH  11   7
ATOM      4  O   UNL     1      -2.228   5.861  24.849  0.00  0.00    -0.376 OA
ATOM      7  N   UNL     1      -0.614   3.266  25.469  0.00  0.00    -0.293 NA
ATOM      8  C   UNL     1      -1.971   2.715  25.551  0.00  0.00    +0.118 C 
ATOM      9  C   UNL     1      -3.147   3.657  25.248  0.00  0.00    +0.154 C 
ATOM     10  C   UNL     1      -0.421   4.239  24.393  0.00  0.00    +0.113 C 
ATOM     12  C   UNL     1      -2.969   5.074  25.777  0.00  0.00    +0.192 C 
ATOM     13  C   UNL     1      -0.826   5.634  24.871  0.00  0.00    +0.175 C 
BRANCH   9   5
ATOM      5  O   UNL     1      -4.321   3.108  25.848  0.00  0.00    -0.388 OA
ATOM     21  H   UNL     1      -4.491   3.605  26.667  0.00  0.00    +0.210 HD
ENDBRANCH   9   5
ENDBRANCH  11   7
ENDBRANCH  14  11
TORSDOF 5
ENDMDL
MODEL 8
REMARK VINA RESULT:      -3.9      1.296      2.347
REMARK  Name = 75536949
REMARK  5 active torsions:
REMARK  status: ('A' for Active; 'I' for Inactive)
REMARK    1  A    between atoms: O_5  and  C_9
REMARK    2  A    between atoms: O_6  and  C_19
REMARK    3  A    between atoms: O_6  and  C_20
REMARK    4  A    between atoms: N_7  and  C_11
REMARK    5  A    between atoms: C_11  and  C_14
REMARK                            x       y       z     vdW  Elec       q    Type
REMARK                         _______ _______ _______ _____ _____    ______ ____
ROOT
ATOM     14  C   UNL     1      -1.153   2.522  24.046  0.00  0.00    -0.033 A 
ATOM     15  C   UNL     1       0.109   2.583  24.636  0.00  0.00    +0.008 A 
ATOM     16  C   UNL     1      -1.453   1.501  23.144  0.00  0.00    +0.008 A 
ATOM     17  C   UNL     1       1.071   1.622  24.324  0.00  0.00    +0.046 A 
ATOM     18  C   UNL     1      -0.492   0.540  22.833  0.00  0.00    +0.046 A 
ATOM     19  C   UNL     1       0.771   0.601  23.423  0.00  0.00    +0.130 A 
ENDROOT
BRANCH  19   6
ATOM      6  O   UNL     1       1.710  -0.337  23.119  0.00  0.00    -0.406 OA
BRANCH   6  20
ATOM      1  F   UNL     1       3.962  -0.712  22.987  0.00  0.00    -0.133 F 
ATOM      2  F   UNL     1       2.902   0.080  21.248  0.00  0.00    -0.133 F 
ATOM      3  F   UNL     1       3.225   1.371  22.981  0.00  0.00    -0.133 F 
ATOM     20  C   UNL     1       2.959   0.104  22.599  0.00  0.00    +0.575 C 
ENDBRANCH   6  20
ENDBRANCH  19   6
BRANCH  14  11
ATOM     11  C   UNL     1      -2.192   3.558  24.382  0.00  0.00    +0.119 C 
BRANCH  11   7
ATOM      4  O   UNL     1      -5.767   1.038  25.581  0.00  0.00    -0.376 OA
ATOM      7  N   UNL     1      -3.506   2.957  24.616  0.00  0.00    -0.293 NA
ATOM      8  C   UNL     1      -4.422   3.952  25.186  0.00  0.00    +0.118 C 
ATOM      9  C   UNL     1      -5.705   3.443  25.859  0.00  0.00    +0.154 C 
ATOM     10  C   UNL     1      -3.399   1.721  25.391  0.00  0.00    +0.113 C 
ATOM     12  C   UNL     1      -6.358   2.261  25.154  0.00  0.00    +0.192 C 
ATOM     13  C   UNL     1      -4.510   0.752  24.984  0.00  0.00    +0.175 C 
BRANCH   9   5
ATOM      5  O   UNL     1      -6.648   4.515  25.885  0.00  0.00    -0.388 OA
ATOM     21  H   UNL     1      -7.434   4.202  26.366  0.00  0.00    +0.210 HD
ENDBRANCH   9   5
ENDBRANCH  11   7
ENDBRANCH  14  11
TORSDOF 5
ENDMDL
MODEL 9
REMARK VINA RESULT:      -3.8      2.281      3.483
REMARK  Name = 75536949
REMARK  5 active torsions:
REMARK  status: ('A' for Active; 'I' for Inactive)
REMARK    1  A    between atoms: O_5  and  C_9
REMARK    2  A    between atoms: O_6  and  C_19
REMARK    3  A    between atoms: O_6  and  C_20
REMARK    4  A    between atoms: N_7  and  C_11
REMARK    5  A    between atoms: C_11  and  C_14
REMARK                            x       y       z     vdW  Elec       q    Type
REMARK                         _______ _______ _______ _____ _____    ______ ____
ROOT
ATOM     14  C   UNL     1       0.345   1.031  23.529  0.00  0.00    -0.033 A 
ATOM     15  C   UNL     1       1.388   1.886  23.885  0.00  0.00    +0.008 A 
ATOM     16  C   UNL     1       0.608  -0.112  22.774  0.00  0.00    +0.008 A 
ATOM     17  C   UNL     1       2.692   1.600  23.484  0.00  0.00    +0.046 A 
ATOM     18  C   UNL     1       1.912  -0.399  22.373  0.00  0.00    +0.046 A 
ATOM     19  C   UNL     1       2.956   0.457  22.728  0.00  0.00    +0.130 A 
ENDROOT
BRANCH  19   6
ATOM      6  O   UNL     1       4.229   0.177  22.337  0.00  0.00    -0.406 OA
BRANCH   6  20
ATOM      1  F   UNL     1       4.829  -1.268  24.005  0.00  0.00    -0.133 F 
ATOM      2  F   UNL     1       6.378  -0.379  22.746  0.00  0.00    -0.133 F 
ATOM      3  F   UNL     1       5.344   0.871  24.209  0.00  0.00    -0.133 F 
ATOM     20  C   UNL     1       5.185  -0.148  23.340  0.00  0.00    +0.575 C 
ENDBRANCH   6  20
ENDBRANCH  19   6
BRANCH  14  11
ATOM     11  C   UNL     1      -1.063   1.339  23.962  0.00  0.00    +0.119 C 
BRANCH  11   7
ATOM      4  O   UNL     1      -2.995  -2.644  24.950  0.00  0.00    -0.376 OA
ATOM      7  N   UNL     1      -1.882   0.129  24.057  0.00  0.00    -0.293 NA
ATOM      8  C   UNL     1      -3.297   0.488  24.203  0.00  0.00    +0.118 C 
ATOM      9  C   UNL     1      -4.264  -0.596  24.704  0.00  0.00    +0.154 C 
ATOM     10  C   UNL     1      -1.379  -0.779  25.089  0.00  0.00    +0.113 C 
ATOM     12  C   UNL     1      -3.981  -1.990  24.158  0.00  0.00    +0.192 C 
ATOM     13  C   UNL     1      -1.661  -2.228  24.691  0.00  0.00    +0.175 C 
BRANCH   9   5
ATOM      5  O   UNL     1      -5.586  -0.228  24.309  0.00  0.00    -0.388 OA
ATOM     21  H   UNL     1      -6.038  -1.037  24.011  0.00  0.00    +0.210 HD
ENDBRANCH   9   5
ENDBRANCH  11   7
ENDBRANCH  14  11
TORSDOF 5
ENDMDL
MODEL 10
REMARK VINA RESULT:      -3.7      1.444      2.032
REMARK  Name = 75536949
REMARK  5 active torsions:
REMARK  status: ('A' for Active; 'I' for Inactive)
REMARK    1  A    between atoms: O_5  and  C_9
REMARK    2  A    between atoms: O_6  and  C_19
REMARK    3  A    between atoms: O_6  and  C_20
REMARK    4  A    between atoms: N_7  and  C_11
REMARK    5  A    between atoms: C_11  and  C_14
REMARK                            x       y       z     vdW  Elec       q    Type
REMARK                         _______ _______ _______ _____ _____    ______ ____
ROOT
ATOM     14  C   UNL     1      -0.883   2.113  25.165  0.00  0.00    -0.033 A 
ATOM     15  C   UNL     1      -0.903   0.728  25.326  0.00  0.00    +0.008 A 
ATOM     16  C   UNL     1      -0.042   2.694  24.217  0.00  0.00    +0.008 A 
ATOM     17  C   UNL     1      -0.081  -0.077  24.539  0.00  0.00    +0.046 A 
ATOM     18  C   UNL     1       0.781   1.889  23.429  0.00  0.00    +0.046 A 
ATOM     19  C   UNL     1       0.762   0.503  23.590  0.00  0.00    +0.130 A 
ENDROOT
BRANCH  19   6
ATOM      6  O   UNL     1       1.564  -0.282  22.821  0.00  0.00    -0.406 OA
BRANCH   6  20
ATOM      1  F   UNL     1       3.144   1.331  23.185  0.00  0.00    -0.133 F 
ATOM      2  F   UNL     1       3.757  -0.763  23.063  0.00  0.00    -0.133 F 
ATOM      3  F   UNL     1       3.126   0.273  21.245  0.00  0.00    -0.133 F 
ATOM     20  C   UNL     1       2.895   0.156  22.570  0.00  0.00    +0.575 C 
ENDBRANCH   6  20
ENDBRANCH  19   6
BRANCH  14  11
ATOM     11  C   UNL     1      -1.772   2.983  26.014  0.00  0.00    +0.119 C 
BRANCH  11   7
ATOM      4  O   UNL     1      -6.198   2.822  25.040  0.00  0.00    -0.376 OA
ATOM      7  N   UNL     1      -3.187   2.656  25.836  0.00  0.00    -0.293 NA
ATOM      8  C   UNL     1      -3.325   1.346  25.189  0.00  0.00    +0.118 C 
ATOM      9  C   UNL     1      -4.684   0.994  24.565  0.00  0.00    +0.154 C 
ATOM     10  C   UNL     1      -3.906   3.739  25.164  0.00  0.00    +0.113 C 
ATOM     12  C   UNL     1      -5.887   1.472  25.368  0.00  0.00    +0.192 C 
ATOM     13  C   UNL     1      -5.354   3.786  25.654  0.00  0.00    +0.175 C 
BRANCH   9   5
ATOM      5  O   UNL     1      -4.766  -0.428  24.454  0.00  0.00    -0.388 OA
ATOM     21  H   UNL     1      -5.558  -0.714  24.941  0.00  0.00    +0.210 HD
ENDBRANCH   9   5
ENDBRANCH  11   7
ENDBRANCH  14  11
TORSDOF 5
ENDMDL
