MODEL 1
REMARK VINA RESULT:      -6.0      0.000      0.000
REMARK  Name = 25338874
REMARK  7 active torsions:
REMARK  status: ('A' for Active; 'I' for Inactive)
REMARK    1  A    between atoms: O_5  and  C_22
REMARK    2  A    between atoms: O_5  and  C_31
REMARK    3  A    between atoms: N_6  and  C_15
REMARK    4  A    between atoms: N_9  and  C_19
REMARK    5  A    between atoms: C_10  and  C_16
REMARK    6  A    between atoms: C_15  and  C_17
REMARK    7  A    between atoms: C_19  and  C_23
REMARK                            x       y       z     vdW  Elec       q    Type
REMARK                         _______ _______ _______ _____ _____    ______ ____
ROOT
ATOM      6  N   UNL     1      -0.442   0.448  25.680  0.00  0.00    -0.281 NA
ATOM      7  N   UNL     1      -1.395   4.060  26.121  0.00  0.00    -0.347 N 
ATOM      8  N   UNL     1      -2.634   3.760  24.284  0.00  0.00    -0.240 NA
ATOM     10  C   UNL     1      -0.751   0.444  24.224  0.00  0.00    +0.150 C 
ATOM     11  C   UNL     1      -1.896   1.388  23.759  0.00  0.00    +0.085 C 
ATOM     12  C   UNL     1      -0.187   1.805  26.235  0.00  0.00    +0.140 C 
ATOM     13  C   UNL     1      -1.123   2.803  25.673  0.00  0.00    +0.053 A 
ATOM     14  C   UNL     1      -1.889   2.644  24.545  0.00  0.00    +0.065 A 
ATOM     18  C   UNL     1      -2.312   4.597  25.252  0.00  0.00    +0.197 A 
ATOM     32  H   UNL     1      -1.000   4.515  26.934  0.00  0.00    +0.167 HD
ENDROOT
BRANCH  10  16
ATOM      4  O   UNL     1       1.084   1.855  23.624  0.00  0.00    -0.274 OA
ATOM      9  N   UNL     1       0.959  -0.281  22.707  0.00  0.00    -0.310 N 
ATOM     16  C   UNL     1       0.529   0.766  23.504  0.00  0.00    +0.231 C 
ATOM     33  H   UNL     1       0.441  -1.154  22.707  0.00  0.00    +0.149 HD
BRANCH   9  19
ATOM     19  C   UNL     1       2.152  -0.217  21.893  0.00  0.00    +0.139 C 
BRANCH  19  23
ATOM     23  C   UNL     1       3.402  -0.243  22.725  0.00  0.00    -0.030 A 
ATOM     26  C   UNL     1       4.248   0.867  22.748  0.00  0.00    +0.005 A 
ATOM     27  C   UNL     1       3.717  -1.375  23.476  0.00  0.00    +0.005 A 
ATOM     28  C   UNL     1       5.408   0.843  23.521  0.00  0.00    +0.000 A 
ATOM     29  C   UNL     1       4.878  -1.399  24.248  0.00  0.00    +0.000 A 
ATOM     30  C   UNL     1       5.724  -0.289  24.271  0.00  0.00    +0.000 A 
ENDBRANCH  19  23
ENDBRANCH   9  19
ENDBRANCH  10  16
BRANCH   6  15
ATOM     15  C   UNL     1      -1.489  -0.243  26.437  0.00  0.00    +0.120 C 
BRANCH  15  17
ATOM     17  C   UNL     1      -2.563  -0.789  25.543  0.00  0.00    -0.030 A 
ATOM     20  C   UNL     1      -3.721  -0.046  25.309  0.00  0.00    +0.051 A 
ATOM     21  C   UNL     1      -2.405  -2.040  24.946  0.00  0.00    +0.005 A 
ATOM     22  C   UNL     1      -4.719  -0.554  24.477  0.00  0.00    +0.130 A 
ATOM     24  C   UNL     1      -3.403  -2.547  24.114  0.00  0.00    +0.004 A 
ATOM     25  C   UNL     1      -4.560  -1.804  23.880  0.00  0.00    +0.046 A 
BRANCH  22   5
ATOM      5  O   UNL     1      -5.847   0.172  24.249  0.00  0.00    -0.406 OA
BRANCH   5  31
ATOM      1  F   UNL     1      -7.177   1.957  24.626  0.00  0.00    -0.133 F 
ATOM      2  F   UNL     1      -5.602   1.523  26.077  0.00  0.00    -0.133 F 
ATOM      3  F   UNL     1      -5.093   2.325  24.081  0.00  0.00    -0.133 F 
ATOM     31  C   UNL     1      -5.913   1.497  24.764  0.00  0.00    +0.575 C 
ENDBRANCH   5  31
ENDBRANCH  22   5
ENDBRANCH  15  17
ENDBRANCH   6  15
TORSDOF 7
ENDMDL
MODEL 2
REMARK VINA RESULT:      -4.8      1.782      3.564
REMARK  Name = 25338874
REMARK  7 active torsions:
REMARK  status: ('A' for Active; 'I' for Inactive)
REMARK    1  A    between atoms: O_5  and  C_22
REMARK    2  A    between atoms: O_5  and  C_31
REMARK    3  A    between atoms: N_6  and  C_15
REMARK    4  A    between atoms: N_9  and  C_19
REMARK    5  A    between atoms: C_10  and  C_16
REMARK    6  A    between atoms: C_15  and  C_17
REMARK    7  A    between atoms: C_19  and  C_23
REMARK                            x       y       z     vdW  Elec       q    Type
REMARK                         _______ _______ _______ _____ _____    ______ ____
ROOT
ATOM      6  N   UNL     1      -0.792   1.853  24.584  0.00  0.00    -0.281 NA
ATOM      7  N   UNL     1      -4.059   0.325  23.520  0.00  0.00    -0.347 N 
ATOM      8  N   UNL     1      -3.689  -1.145  25.164  0.00  0.00    -0.240 NA
ATOM     10  C   UNL     1      -0.297   0.597  25.211  0.00  0.00    +0.150 C 
ATOM     11  C   UNL     1      -1.376  -0.337  25.828  0.00  0.00    +0.085 C 
ATOM     12  C   UNL     1      -1.861   1.638  23.573  0.00  0.00    +0.140 C 
ATOM     13  C   UNL     1      -2.821   0.602  24.014  0.00  0.00    +0.053 A 
ATOM     14  C   UNL     1      -2.614  -0.314  25.016  0.00  0.00    +0.065 A 
ATOM     18  C   UNL     1      -4.543  -0.735  24.247  0.00  0.00    +0.197 A 
ATOM     32  H   UNL     1      -4.533   0.802  22.764  0.00  0.00    +0.167 HD
ENDROOT
BRANCH  10  16
ATOM      4  O   UNL     1       0.367  -1.335  23.968  0.00  0.00    -0.274 OA
ATOM      9  N   UNL     1       1.378   0.708  23.498  0.00  0.00    -0.310 N 
ATOM     16  C   UNL     1       0.499  -0.130  24.163  0.00  0.00    +0.231 C 
ATOM     33  H   UNL     1       1.383   1.700  23.715  0.00  0.00    +0.149 HD
BRANCH   9  19
ATOM     19  C   UNL     1       2.274   0.251  22.460  0.00  0.00    +0.139 C 
BRANCH  19  23
ATOM     23  C   UNL     1       3.632  -0.093  23.001  0.00  0.00    -0.030 A 
ATOM     26  C   UNL     1       3.878  -1.370  23.508  0.00  0.00    +0.005 A 
ATOM     27  C   UNL     1       4.647   0.862  22.998  0.00  0.00    +0.005 A 
ATOM     28  C   UNL     1       5.138  -1.690  24.011  0.00  0.00    +0.000 A 
ATOM     29  C   UNL     1       5.908   0.542  23.501  0.00  0.00    +0.000 A 
ATOM     30  C   UNL     1       6.154  -0.734  24.008  0.00  0.00    +0.000 A 
ENDBRANCH  19  23
ENDBRANCH   9  19
ENDBRANCH  10  16
BRANCH   6  15
ATOM     15  C   UNL     1      -1.217   2.813  25.606  0.00  0.00    +0.120 C 
BRANCH  15  17
ATOM     17  C   UNL     1      -2.575   3.381  25.316  0.00  0.00    -0.030 A 
ATOM     20  C   UNL     1      -3.682   2.953  26.051  0.00  0.00    +0.051 A 
ATOM     21  C   UNL     1      -2.732   4.335  24.310  0.00  0.00    +0.005 A 
ATOM     22  C   UNL     1      -4.944   3.482  25.780  0.00  0.00    +0.130 A 
ATOM     24  C   UNL     1      -3.994   4.863  24.041  0.00  0.00    +0.004 A 
ATOM     25  C   UNL     1      -5.101   4.436  24.776  0.00  0.00    +0.046 A 
BRANCH  22   5
ATOM      5  O   UNL     1      -6.023   3.065  26.499  0.00  0.00    -0.406 OA
BRANCH   5  31
ATOM      1  F   UNL     1      -5.471   0.882  26.348  0.00  0.00    -0.133 F 
ATOM      2  F   UNL     1      -7.404   1.395  27.230  0.00  0.00    -0.133 F 
ATOM      3  F   UNL     1      -7.068   1.630  25.057  0.00  0.00    -0.133 F 
ATOM     31  C   UNL     1      -6.509   1.747  26.281  0.00  0.00    +0.575 C 
ENDBRANCH   5  31
ENDBRANCH  22   5
ENDBRANCH  15  17
ENDBRANCH   6  15
TORSDOF 7
ENDMDL
MODEL 3
REMARK VINA RESULT:      -3.7      1.768      3.380
REMARK  Name = 25338874
REMARK  7 active torsions:
REMARK  status: ('A' for Active; 'I' for Inactive)
REMARK    1  A    between atoms: O_5  and  C_22
REMARK    2  A    between atoms: O_5  and  C_31
REMARK    3  A    between atoms: N_6  and  C_15
REMARK    4  A    between atoms: N_9  and  C_19
REMARK    5  A    between atoms: C_10  and  C_16
REMARK    6  A    between atoms: C_15  and  C_17
REMARK    7  A    between atoms: C_19  and  C_23
REMARK                            x       y       z     vdW  Elec       q    Type
REMARK                         _______ _______ _______ _____ _____    ______ ____
ROOT
ATOM      6  N   UNL     1      -0.119   1.628  25.272  0.00  0.00    -0.281 NA
ATOM      7  N   UNL     1      -2.346   2.698  22.437  0.00  0.00    -0.347 N 
ATOM      8  N   UNL     1      -3.666   1.015  23.090  0.00  0.00    -0.240 NA
ATOM     10  C   UNL     1      -0.654   0.239  25.297  0.00  0.00    +0.150 C 
ATOM     11  C   UNL     1      -2.144   0.067  24.887  0.00  0.00    +0.085 C 
ATOM     12  C   UNL     1      -0.335   2.331  23.980  0.00  0.00    +0.140 C 
ATOM     13  C   UNL     1      -1.677   2.044  23.426  0.00  0.00    +0.053 A 
ATOM     14  C   UNL     1      -2.502   1.015  23.807  0.00  0.00    +0.065 A 
ATOM     18  C   UNL     1      -3.541   2.042  22.271  0.00  0.00    +0.197 A 
ATOM     32  H   UNL     1      -2.029   3.508  21.921  0.00  0.00    +0.167 HD
ENDROOT
BRANCH  10  16
ATOM      4  O   UNL     1       0.367  -1.800  24.575  0.00  0.00    -0.274 OA
ATOM      9  N   UNL     1       0.885   0.176  23.458  0.00  0.00    -0.310 N 
ATOM     16  C   UNL     1       0.239  -0.589  24.415  0.00  0.00    +0.231 C 
ATOM     33  H   UNL     1       0.681   1.168  23.391  0.00  0.00    +0.149 HD
BRANCH   9  19
ATOM     19  C   UNL     1       1.817  -0.377  22.501  0.00  0.00    +0.139 C 
BRANCH  19  23
ATOM     23  C   UNL     1       3.232  -0.320  22.998  0.00  0.00    -0.030 A 
ATOM     26  C   UNL     1       3.800  -1.434  23.616  0.00  0.00    +0.005 A 
ATOM     27  C   UNL     1       3.980   0.847  22.842  0.00  0.00    +0.005 A 
ATOM     28  C   UNL     1       5.115  -1.381  24.078  0.00  0.00    +0.000 A 
ATOM     29  C   UNL     1       5.295   0.900  23.304  0.00  0.00    +0.000 A 
ATOM     30  C   UNL     1       5.863  -0.214  23.922  0.00  0.00    +0.000 A 
ENDBRANCH  19  23
ENDBRANCH   9  19
ENDBRANCH  10  16
BRANCH   6  15
ATOM     15  C   UNL     1      -0.647   2.410  26.394  0.00  0.00    +0.120 C 
BRANCH  15  17
ATOM     17  C   UNL     1      -1.728   3.356  25.961  0.00  0.00    -0.030 A 
ATOM     20  C   UNL     1      -3.068   3.031  26.175  0.00  0.00    +0.051 A 
ATOM     21  C   UNL     1      -1.393   4.561  25.343  0.00  0.00    +0.005 A 
ATOM     22  C   UNL     1      -4.072   3.912  25.773  0.00  0.00    +0.130 A 
ATOM     24  C   UNL     1      -2.398   5.441  24.941  0.00  0.00    +0.004 A 
ATOM     25  C   UNL     1      -3.737   5.117  25.156  0.00  0.00    +0.046 A 
BRANCH  22   5
ATOM      5  O   UNL     1      -5.379   3.594  25.984  0.00  0.00    -0.406 OA
BRANCH   5  31
ATOM      1  F   UNL     1      -6.616   1.885  26.786  0.00  0.00    -0.133 F 
ATOM      2  F   UNL     1      -6.460   2.112  24.618  0.00  0.00    -0.133 F 
ATOM      3  F   UNL     1      -4.726   1.410  25.796  0.00  0.00    -0.133 F 
ATOM     31  C   UNL     1      -5.786   2.246  25.780  0.00  0.00    +0.575 C 
ENDBRANCH   5  31
ENDBRANCH  22   5
ENDBRANCH  15  17
ENDBRANCH   6  15
TORSDOF 7
ENDMDL
MODEL 4
REMARK VINA RESULT:      -3.2      2.510      4.675
REMARK  Name = 25338874
REMARK  7 active torsions:
REMARK  status: ('A' for Active; 'I' for Inactive)
REMARK    1  A    between atoms: O_5  and  C_22
REMARK    2  A    between atoms: O_5  and  C_31
REMARK    3  A    between atoms: N_6  and  C_15
REMARK    4  A    between atoms: N_9  and  C_19
REMARK    5  A    between atoms: C_10  and  C_16
REMARK    6  A    between atoms: C_15  and  C_17
REMARK    7  A    between atoms: C_19  and  C_23
REMARK                            x       y       z     vdW  Elec       q    Type
REMARK                         _______ _______ _______ _____ _____    ______ ____
ROOT
ATOM      6  N   UNL     1      -3.090   0.418  23.950  0.00  0.00    -0.281 NA
ATOM      7  N   UNL     1      -2.486  -3.277  24.302  0.00  0.00    -0.347 N 
ATOM      8  N   UNL     1      -0.902  -2.686  25.766  0.00  0.00    -0.240 NA
ATOM     10  C   UNL     1      -1.724   0.784  24.415  0.00  0.00    +0.150 C 
ATOM     11  C   UNL     1      -1.069  -0.173  25.451  0.00  0.00    +0.085 C 
ATOM     12  C   UNL     1      -3.195  -0.974  23.437  0.00  0.00    +0.140 C 
ATOM     13  C   UNL     1      -2.419  -1.918  24.270  0.00  0.00    +0.053 A 
ATOM     14  C   UNL     1      -1.439  -1.579  25.171  0.00  0.00    +0.065 A 
ATOM     18  C   UNL     1      -1.553  -3.695  25.219  0.00  0.00    +0.197 A 
ATOM     32  H   UNL     1      -3.098  -3.869  23.756  0.00  0.00    +0.167 HD
ENDROOT
BRANCH  10  16
ATOM      4  O   UNL     1      -1.226   1.550  22.204  0.00  0.00    -0.274 OA
ATOM      9  N   UNL     1       0.327   0.213  23.310  0.00  0.00    -0.310 N 
ATOM     16  C   UNL     1      -0.864   0.909  23.188  0.00  0.00    +0.231 C 
ATOM     33  H   UNL     1       0.543  -0.258  24.183  0.00  0.00    +0.149 HD
BRANCH   9  19
ATOM     19  C   UNL     1       1.319   0.154  22.260  0.00  0.00    +0.139 C 
BRANCH  19  23
ATOM     23  C   UNL     1       2.706  -0.021  22.807  0.00  0.00    -0.030 A 
ATOM     26  C   UNL     1       3.078  -1.233  23.390  0.00  0.00    +0.005 A 
ATOM     27  C   UNL     1       3.623   1.027  22.734  0.00  0.00    +0.005 A 
ATOM     28  C   UNL     1       4.366  -1.396  23.899  0.00  0.00    +0.000 A 
ATOM     29  C   UNL     1       4.911   0.864  23.243  0.00  0.00    +0.000 A 
ATOM     30  C   UNL     1       5.284  -0.348  23.825  0.00  0.00    +0.000 A 
ENDBRANCH  19  23
ENDBRANCH   9  19
ENDBRANCH  10  16
BRANCH   6  15
ATOM     15  C   UNL     1      -4.082   0.671  24.998  0.00  0.00    +0.120 C 
BRANCH  15  17
ATOM     17  C   UNL     1      -4.259   2.138  25.263  0.00  0.00    -0.030 A 
ATOM     20  C   UNL     1      -3.142   2.965  25.382  0.00  0.00    +0.051 A 
ATOM     21  C   UNL     1      -5.541   2.674  25.392  0.00  0.00    +0.005 A 
ATOM     22  C   UNL     1      -3.307   4.328  25.628  0.00  0.00    +0.130 A 
ATOM     24  C   UNL     1      -5.705   4.036  25.637  0.00  0.00    +0.004 A 
ATOM     25  C   UNL     1      -4.588   4.864  25.756  0.00  0.00    +0.046 A 
BRANCH  22   5
ATOM      5  O   UNL     1      -2.217   5.135  25.743  0.00  0.00    -0.406 OA
BRANCH   5  31
ATOM      1  F   UNL     1      -1.340   4.141  23.916  0.00  0.00    -0.133 F 
ATOM      2  F   UNL     1      -0.253   5.821  24.793  0.00  0.00    -0.133 F 
ATOM      3  F   UNL     1      -0.315   3.868  25.826  0.00  0.00    -0.133 F 
ATOM     31  C   UNL     1      -1.019   4.747  25.081  0.00  0.00    +0.575 C 
ENDBRANCH   5  31
ENDBRANCH  22   5
ENDBRANCH  15  17
ENDBRANCH   6  15
TORSDOF 7
ENDMDL
