MODEL 1
REMARK VINA RESULT:      -5.0      0.000      0.000
REMARK  Name = 75536612
REMARK  7 active torsions:
REMARK  status: ('A' for Active; 'I' for Inactive)
REMARK    1  A    between atoms: O_2  and  C_7
REMARK    2  A    between atoms: N_4  and  C_6
REMARK    3  A    between atoms: N_4  and  C_11
REMARK    4  A    between atoms: N_4  and  C_12
REMARK    5  A    between atoms: N_5  and  C_10
REMARK    6  A    between atoms: C_8  and  C_10
REMARK    7  A    between atoms: C_13  and  C_14
REMARK                            x       y       z     vdW  Elec       q    Type
REMARK                         _______ _______ _______ _____ _____    ______ ____
ROOT
ATOM     10  C   UNL     1      -3.462  -2.111  25.527  0.00  0.00    +0.138 C 
ENDROOT
BRANCH  10   8
ATOM      1  O   UNL     1      -1.757  -2.649  23.899  0.00  0.00    -0.371 OA
ATOM      6  C   UNL     1      -0.065  -1.077  24.453  0.00  0.00    +0.113 C 
ATOM      7  C   UNL     1      -1.266  -0.849  25.351  0.00  0.00    +0.164 C 
ATOM      8  C   UNL     1      -1.973  -2.193  25.244  0.00  0.00    +0.165 C 
ATOM      9  C   UNL     1      -0.683  -1.885  23.323  0.00  0.00    +0.181 C 
BRANCH   6   4
ATOM      4  N   UNL     1       0.563   0.150  23.993  0.00  0.00    -0.301 NA
ATOM     11  C   UNL     1       1.279  -0.071  22.732  0.00  0.00    +0.105 C 
ATOM     12  C   UNL     1      -0.432   1.214  23.825  0.00  0.00    +0.105 C 
ENDBRANCH   6   4
BRANCH   7   2
ATOM      2  O   UNL     1      -0.902  -0.547  26.684  0.00  0.00    -0.388 OA
ATOM     20  H   UNL     1      -0.896  -1.376  27.193  0.00  0.00    +0.210 HD
ENDBRANCH   7   2
ENDBRANCH  10   8
BRANCH  10   5
ATOM      3  O   UNL     1      -3.986  -0.286  23.373  0.00  0.00    -0.270 OA
ATOM      5  N   UNL     1      -3.896  -0.749  25.645  0.00  0.00    -0.309 N 
ATOM     13  C   UNL     1      -4.127   0.067  24.541  0.00  0.00    +0.244 C 
ATOM     21  H   UNL     1      -3.963  -0.373  26.584  0.00  0.00    +0.149 HD
BRANCH  13  14
ATOM     14  C   UNL     1      -4.546   1.462  24.832  0.00  0.00    +0.037 A 
ATOM     15  C   UNL     1      -5.724   1.703  25.540  0.00  0.00    +0.013 A 
ATOM     16  C   UNL     1      -3.760   2.530  24.401  0.00  0.00    +0.013 A 
ATOM     17  C   UNL     1      -6.116   3.014  25.815  0.00  0.00    +0.001 A 
ATOM     18  C   UNL     1      -4.152   3.840  24.675  0.00  0.00    +0.001 A 
ATOM     19  C   UNL     1      -5.330   4.082  25.382  0.00  0.00    +0.000 A 
ENDBRANCH  13  14
ENDBRANCH  10   5
TORSDOF 5
ENDMDL
MODEL 2
REMARK VINA RESULT:      -4.9      2.479      5.278
REMARK  Name = 75536612
REMARK  7 active torsions:
REMARK  status: ('A' for Active; 'I' for Inactive)
REMARK    1  A    between atoms: O_2  and  C_7
REMARK    2  A    between atoms: N_4  and  C_6
REMARK    3  A    between atoms: N_4  and  C_11
REMARK    4  A    between atoms: N_4  and  C_12
REMARK    5  A    between atoms: N_5  and  C_10
REMARK    6  A    between atoms: C_8  and  C_10
REMARK    7  A    between atoms: C_13  and  C_14
REMARK                            x       y       z     vdW  Elec       q    Type
REMARK                         _______ _______ _______ _____ _____    ______ ____
ROOT
ATOM     10  C   UNL     1      -5.714   2.366  24.925  0.00  0.00    +0.138 C 
ENDROOT
BRANCH  10   8
ATOM      1  O   UNL     1      -4.553   3.438  26.755  0.00  0.00    -0.371 OA
ATOM      6  C   UNL     1      -2.722   4.445  25.627  0.00  0.00    +0.113 C 
ATOM      7  C   UNL     1      -3.549   3.660  24.626  0.00  0.00    +0.164 C 
ATOM      8  C   UNL     1      -4.879   3.557  25.361  0.00  0.00    +0.165 C 
ATOM      9  C   UNL     1      -3.184   3.837  26.941  0.00  0.00    +0.181 C 
BRANCH   6   4
ATOM      4  N   UNL     1      -1.288   4.325  25.421  0.00  0.00    -0.301 NA
ATOM     11  C   UNL     1      -0.964   3.071  24.732  0.00  0.00    +0.105 C 
ATOM     12  C   UNL     1      -0.772   5.466  24.658  0.00  0.00    +0.105 C 
ENDBRANCH   6   4
BRANCH   7   2
ATOM      2  O   UNL     1      -3.682   4.326  23.385  0.00  0.00    -0.388 OA
ATOM     20  H   UNL     1      -3.087   5.096  23.388  0.00  0.00    +0.210 HD
ENDBRANCH   7   2
ENDBRANCH  10   8
BRANCH  10   5
ATOM      3  O   UNL     1      -3.712   1.445  23.084  0.00  0.00    -0.270 OA
ATOM      5  N   UNL     1      -4.965   1.145  25.013  0.00  0.00    -0.309 N 
ATOM     13  C   UNL     1      -4.010   0.778  24.070  0.00  0.00    +0.244 C 
ATOM     21  H   UNL     1      -5.214   0.513  25.766  0.00  0.00    +0.149 HD
BRANCH  13  14
ATOM     14  C   UNL     1      -3.341  -0.531  24.289  0.00  0.00    +0.037 A 
ATOM     15  C   UNL     1      -4.071  -1.715  24.181  0.00  0.00    +0.013 A 
ATOM     16  C   UNL     1      -1.982  -0.576  24.599  0.00  0.00    +0.013 A 
ATOM     17  C   UNL     1      -3.442  -2.943  24.385  0.00  0.00    +0.001 A 
ATOM     18  C   UNL     1      -1.353  -1.803  24.804  0.00  0.00    +0.001 A 
ATOM     19  C   UNL     1      -2.083  -2.987  24.697  0.00  0.00    +0.000 A 
ENDBRANCH  13  14
ENDBRANCH  10   5
TORSDOF 5
ENDMDL
MODEL 3
REMARK VINA RESULT:      -4.8      2.668      4.974
REMARK  Name = 75536612
REMARK  7 active torsions:
REMARK  status: ('A' for Active; 'I' for Inactive)
REMARK    1  A    between atoms: O_2  and  C_7
REMARK    2  A    between atoms: N_4  and  C_6
REMARK    3  A    between atoms: N_4  and  C_11
REMARK    4  A    between atoms: N_4  and  C_12
REMARK    5  A    between atoms: N_5  and  C_10
REMARK    6  A    between atoms: C_8  and  C_10
REMARK    7  A    between atoms: C_13  and  C_14
REMARK                            x       y       z     vdW  Elec       q    Type
REMARK                         _______ _______ _______ _____ _____    ______ ____
ROOT
ATOM     10  C   UNL     1      -4.307   3.014  23.898  0.00  0.00    +0.138 C 
ENDROOT
BRANCH  10   8
ATOM      1  O   UNL     1      -3.127   4.187  25.652  0.00  0.00    -0.371 OA
ATOM      6  C   UNL     1      -0.866   3.729  25.088  0.00  0.00    +0.113 C 
ATOM      7  C   UNL     1      -1.776   3.009  24.111  0.00  0.00    +0.164 C 
ATOM      8  C   UNL     1      -3.064   3.805  24.269  0.00  0.00    +0.165 C 
ATOM      9  C   UNL     1      -1.822   4.016  26.234  0.00  0.00    +0.181 C 
BRANCH   6   4
ATOM      4  N   UNL     1       0.288   2.945  25.498  0.00  0.00    -0.301 NA
ATOM     11  C   UNL     1       0.100   2.408  26.850  0.00  0.00    +0.105 C 
ATOM     12  C   UNL     1       0.538   1.851  24.554  0.00  0.00    +0.105 C 
ENDBRANCH   6   4
BRANCH   7   2
ATOM      2  O   UNL     1      -1.290   3.049  22.782  0.00  0.00    -0.388 OA
ATOM     20  H   UNL     1      -0.577   3.708  22.739  0.00  0.00    +0.210 HD
ENDBRANCH   7   2
ENDBRANCH  10   8
BRANCH  10   5
ATOM      3  O   UNL     1      -5.210   1.144  25.882  0.00  0.00    -0.270 OA
ATOM      5  N   UNL     1      -4.052   1.602  23.924  0.00  0.00    -0.309 N 
ATOM     13  C   UNL     1      -4.532   0.768  24.929  0.00  0.00    +0.244 C 
ATOM     21  H   UNL     1      -3.438   1.239  23.203  0.00  0.00    +0.149 HD
BRANCH  13  14
ATOM     14  C   UNL     1      -4.158  -0.666  24.826  0.00  0.00    +0.037 A 
ATOM     15  C   UNL     1      -4.525  -1.404  23.700  0.00  0.00    +0.013 A 
ATOM     16  C   UNL     1      -3.437  -1.274  25.854  0.00  0.00    +0.013 A 
ATOM     17  C   UNL     1      -4.172  -2.750  23.603  0.00  0.00    +0.001 A 
ATOM     18  C   UNL     1      -3.085  -2.620  25.757  0.00  0.00    +0.001 A 
ATOM     19  C   UNL     1      -3.452  -3.358  24.632  0.00  0.00    +0.000 A 
ENDBRANCH  13  14
ENDBRANCH  10   5
TORSDOF 5
ENDMDL
MODEL 4
REMARK VINA RESULT:      -4.7      2.749      6.997
REMARK  Name = 75536612
REMARK  7 active torsions:
REMARK  status: ('A' for Active; 'I' for Inactive)
REMARK    1  A    between atoms: O_2  and  C_7
REMARK    2  A    between atoms: N_4  and  C_6
REMARK    3  A    between atoms: N_4  and  C_11
REMARK    4  A    between atoms: N_4  and  C_12
REMARK    5  A    between atoms: N_5  and  C_10
REMARK    6  A    between atoms: C_8  and  C_10
REMARK    7  A    between atoms: C_13  and  C_14
REMARK                            x       y       z     vdW  Elec       q    Type
REMARK                         _______ _______ _______ _____ _____    ______ ____
ROOT
ATOM     10  C   UNL     1      -0.652  -0.431  23.581  0.00  0.00    +0.138 C 
ENDROOT
BRANCH  10   8
ATOM      1  O   UNL     1      -0.470   1.081  25.459  0.00  0.00    -0.371 OA
ATOM      6  C   UNL     1      -2.477   2.333  25.252  0.00  0.00    +0.113 C 
ATOM      7  C   UNL     1      -2.386   1.350  24.100  0.00  0.00    +0.164 C 
ATOM      8  C   UNL     1      -1.400   0.333  24.659  0.00  0.00    +0.165 C 
ATOM      9  C   UNL     1      -1.033   2.377  25.725  0.00  0.00    +0.181 C 
BRANCH   6   4
ATOM      4  N   UNL     1      -2.987   3.639  24.867  0.00  0.00    -0.301 NA
ATOM     11  C   UNL     1      -4.350   3.836  25.371  0.00  0.00    +0.105 C 
ATOM     12  C   UNL     1      -2.110   4.707  25.358  0.00  0.00    +0.105 C 
ENDBRANCH   6   4
BRANCH   7   2
ATOM      2  O   UNL     1      -3.632   0.760  23.786  0.00  0.00    -0.388 OA
ATOM     20  H   UNL     1      -4.312   1.455  23.806  0.00  0.00    +0.210 HD
ENDBRANCH   7   2
ENDBRANCH  10   8
BRANCH  10   5
ATOM      3  O   UNL     1       1.361  -0.358  21.534  0.00  0.00    -0.270 OA
ATOM      5  N   UNL     1       0.768  -0.355  23.778  0.00  0.00    -0.309 N 
ATOM     13  C   UNL     1       1.673  -0.323  22.721  0.00  0.00    +0.244 C 
ATOM     21  H   UNL     1       1.096  -0.395  24.736  0.00  0.00    +0.149 HD
BRANCH  13  14
ATOM     14  C   UNL     1       3.112  -0.270  23.092  0.00  0.00    +0.037 A 
ATOM     15  C   UNL     1       3.844   0.898  22.879  0.00  0.00    +0.013 A 
ATOM     16  C   UNL     1       3.727  -1.387  23.656  0.00  0.00    +0.013 A 
ATOM     17  C   UNL     1       5.194   0.947  23.229  0.00  0.00    +0.001 A 
ATOM     18  C   UNL     1       5.076  -1.338  24.005  0.00  0.00    +0.001 A 
ATOM     19  C   UNL     1       5.810  -0.171  23.792  0.00  0.00    +0.000 A 
ENDBRANCH  13  14
ENDBRANCH  10   5
TORSDOF 5
ENDMDL
MODEL 5
REMARK VINA RESULT:      -4.6      2.632      5.410
REMARK  Name = 75536612
REMARK  7 active torsions:
REMARK  status: ('A' for Active; 'I' for Inactive)
REMARK    1  A    between atoms: O_2  and  C_7
REMARK    2  A    between atoms: N_4  and  C_6
REMARK    3  A    between atoms: N_4  and  C_11
REMARK    4  A    between atoms: N_4  and  C_12
REMARK    5  A    between atoms: N_5  and  C_10
REMARK    6  A    between atoms: C_8  and  C_10
REMARK    7  A    between atoms: C_13  and  C_14
REMARK                            x       y       z     vdW  Elec       q    Type
REMARK                         _______ _______ _______ _____ _____    ______ ____
ROOT
ATOM     10  C   UNL     1       0.049   2.129  26.104  0.00  0.00    +0.138 C 
ENDROOT
BRANCH  10   8
ATOM      1  O   UNL     1      -0.308   3.836  24.430  0.00  0.00    -0.371 OA
ATOM      6  C   UNL     1      -2.576   4.418  24.826  0.00  0.00    +0.113 C 
ATOM      7  C   UNL     1      -2.182   3.294  25.765  0.00  0.00    +0.164 C 
ATOM      8  C   UNL     1      -0.665   3.424  25.759  0.00  0.00    +0.165 C 
ATOM      9  C   UNL     1      -1.489   4.321  23.768  0.00  0.00    +0.181 C 
BRANCH   6   4
ATOM      4  N   UNL     1      -3.915   4.278  24.276  0.00  0.00    -0.301 NA
ATOM     11  C   UNL     1      -3.992   3.120  23.380  0.00  0.00    +0.105 C 
ATOM     12  C   UNL     1      -4.909   4.153  25.346  0.00  0.00    +0.105 C 
ENDBRANCH   6   4
BRANCH   7   2
ATOM      2  O   UNL     1      -2.721   3.452  27.063  0.00  0.00    -0.388 OA
ATOM     20  H   UNL     1      -2.712   2.586  27.505  0.00  0.00    +0.210 HD
ENDBRANCH   7   2
ENDBRANCH  10   8
BRANCH  10   5
ATOM      3  O   UNL     1      -0.446   0.845  23.584  0.00  0.00    -0.270 OA
ATOM      5  N   UNL     1      -0.795   0.991  25.873  0.00  0.00    -0.309 N 
ATOM     13  C   UNL     1      -0.977   0.432  24.611  0.00  0.00    +0.244 C 
ATOM     21  H   UNL     1      -1.319   0.646  26.669  0.00  0.00    +0.149 HD
BRANCH  13  14
ATOM     14  C   UNL     1      -1.904  -0.727  24.535  0.00  0.00    +0.037 A 
ATOM     15  C   UNL     1      -1.409  -2.025  24.657  0.00  0.00    +0.013 A 
ATOM     16  C   UNL     1      -3.269  -0.515  24.345  0.00  0.00    +0.013 A 
ATOM     17  C   UNL     1      -2.280  -3.113  24.587  0.00  0.00    +0.001 A 
ATOM     18  C   UNL     1      -4.140  -1.602  24.275  0.00  0.00    +0.001 A 
ATOM     19  C   UNL     1      -3.645  -2.901  24.395  0.00  0.00    +0.000 A 
ENDBRANCH  13  14
ENDBRANCH  10   5
TORSDOF 5
ENDMDL
MODEL 6
REMARK VINA RESULT:      -3.9      2.460      5.202
REMARK  Name = 75536612
REMARK  7 active torsions:
REMARK  status: ('A' for Active; 'I' for Inactive)
REMARK    1  A    between atoms: O_2  and  C_7
REMARK    2  A    between atoms: N_4  and  C_6
REMARK    3  A    between atoms: N_4  and  C_11
REMARK    4  A    between atoms: N_4  and  C_12
REMARK    5  A    between atoms: N_5  and  C_10
REMARK    6  A    between atoms: C_8  and  C_10
REMARK    7  A    between atoms: C_13  and  C_14
REMARK                            x       y       z     vdW  Elec       q    Type
REMARK                         _______ _______ _______ _____ _____    ______ ____
ROOT
ATOM     10  C   UNL     1       0.649   1.335  24.236  0.00  0.00    +0.138 C 
ENDROOT
BRANCH  10   8
ATOM      1  O   UNL     1       0.241   3.652  23.676  0.00  0.00    -0.371 OA
ATOM      6  C   UNL     1      -1.408   4.241  25.280  0.00  0.00    +0.113 C 
ATOM      7  C   UNL     1      -1.062   2.773  25.442  0.00  0.00    +0.164 C 
ATOM      8  C   UNL     1       0.300   2.716  24.764  0.00  0.00    +0.165 C 
ATOM      9  C   UNL     1      -0.887   4.520  23.880  0.00  0.00    +0.181 C 
BRANCH   6   4
ATOM      4  N   UNL     1      -2.826   4.526  25.424  0.00  0.00    -0.301 NA
ATOM     11  C   UNL     1      -3.609   3.796  24.421  0.00  0.00    +0.105 C 
ATOM     12  C   UNL     1      -3.293   4.187  26.771  0.00  0.00    +0.105 C 
ENDBRANCH   6   4
BRANCH   7   2
ATOM      2  O   UNL     1      -0.995   2.374  26.798  0.00  0.00    -0.388 OA
ATOM     20  H   UNL     1      -1.721   2.806  27.279  0.00  0.00    +0.210 HD
ENDBRANCH   7   2
ENDBRANCH  10   8
BRANCH  10   5
ATOM      3  O   UNL     1      -0.529  -0.507  26.097  0.00  0.00    -0.270 OA
ATOM      5  N   UNL     1      -0.529   0.544  24.028  0.00  0.00    -0.309 N 
ATOM     13  C   UNL     1      -1.031  -0.327  24.991  0.00  0.00    +0.244 C 
ATOM     21  H   UNL     1      -0.952   0.592  23.108  0.00  0.00    +0.149 HD
BRANCH  13  14
ATOM     14  C   UNL     1      -2.245  -1.095  24.612  0.00  0.00    +0.037 A 
ATOM     15  C   UNL     1      -3.419  -0.423  24.272  0.00  0.00    +0.013 A 
ATOM     16  C   UNL     1      -2.209  -2.489  24.592  0.00  0.00    +0.013 A 
ATOM     17  C   UNL     1      -4.558  -1.145  23.914  0.00  0.00    +0.001 A 
ATOM     18  C   UNL     1      -3.347  -3.211  24.235  0.00  0.00    +0.001 A 
ATOM     19  C   UNL     1      -4.522  -2.539  23.896  0.00  0.00    +0.000 A 
ENDBRANCH  13  14
ENDBRANCH  10   5
TORSDOF 5
ENDMDL
MODEL 7
REMARK VINA RESULT:      -3.9      2.483      5.763
REMARK  Name = 75536612
REMARK  7 active torsions:
REMARK  status: ('A' for Active; 'I' for Inactive)
REMARK    1  A    between atoms: O_2  and  C_7
REMARK    2  A    between atoms: N_4  and  C_6
REMARK    3  A    between atoms: N_4  and  C_11
REMARK    4  A    between atoms: N_4  and  C_12
REMARK    5  A    between atoms: N_5  and  C_10
REMARK    6  A    between atoms: C_8  and  C_10
REMARK    7  A    between atoms: C_13  and  C_14
REMARK                            x       y       z     vdW  Elec       q    Type
REMARK                         _______ _______ _______ _____ _____    ______ ____
ROOT
ATOM     10  C   UNL     1      -0.638   2.676  25.608  0.00  0.00    +0.138 C 
ENDROOT
BRANCH  10   8
ATOM      1  O   UNL     1      -2.138   3.890  24.151  0.00  0.00    -0.371 OA
ATOM      6  C   UNL     1      -3.974   4.301  25.601  0.00  0.00    +0.113 C 
ATOM      7  C   UNL     1      -2.934   3.481  26.339  0.00  0.00    +0.164 C 
ATOM      8  C   UNL     1      -1.690   3.768  25.510  0.00  0.00    +0.165 C 
ATOM      9  C   UNL     1      -3.565   4.074  24.154  0.00  0.00    +0.181 C 
BRANCH   6   4
ATOM      4  N   UNL     1      -5.342   3.892  25.872  0.00  0.00    -0.301 NA
ATOM     11  C   UNL     1      -6.293   4.896  25.384  0.00  0.00    +0.105 C 
ATOM     12  C   UNL     1      -5.629   2.590  25.263  0.00  0.00    +0.105 C 
ENDBRANCH   6   4
BRANCH   7   2
ATOM      2  O   UNL     1      -2.776   3.884  27.686  0.00  0.00    -0.388 OA
ATOM     20  H   UNL     1      -1.863   4.198  27.805  0.00  0.00    +0.210 HD
ENDBRANCH   7   2
ENDBRANCH  10   8
BRANCH  10   5
ATOM      3  O   UNL     1      -1.347   1.293  23.194  0.00  0.00    -0.270 OA
ATOM      5  N   UNL     1      -1.230   1.373  25.510  0.00  0.00    -0.309 N 
ATOM     13  C   UNL     1      -1.541   0.777  24.291  0.00  0.00    +0.244 C 
ATOM     21  H   UNL     1      -1.483   0.922  26.382  0.00  0.00    +0.149 HD
BRANCH  13  14
ATOM     14  C   UNL     1      -2.175  -0.565  24.360  0.00  0.00    +0.037 A 
ATOM     15  C   UNL     1      -3.544  -0.703  24.126  0.00  0.00    +0.013 A 
ATOM     16  C   UNL     1      -1.401  -1.687  24.655  0.00  0.00    +0.013 A 
ATOM     17  C   UNL     1      -4.138  -1.964  24.189  0.00  0.00    +0.001 A 
ATOM     18  C   UNL     1      -1.995  -2.947  24.718  0.00  0.00    +0.001 A 
ATOM     19  C   UNL     1      -3.363  -3.086  24.485  0.00  0.00    +0.000 A 
ENDBRANCH  13  14
ENDBRANCH  10   5
TORSDOF 5
ENDMDL
MODEL 8
REMARK VINA RESULT:      -3.2      2.264      3.336
REMARK  Name = 75536612
REMARK  7 active torsions:
REMARK  status: ('A' for Active; 'I' for Inactive)
REMARK    1  A    between atoms: O_2  and  C_7
REMARK    2  A    between atoms: N_4  and  C_6
REMARK    3  A    between atoms: N_4  and  C_11
REMARK    4  A    between atoms: N_4  and  C_12
REMARK    5  A    between atoms: N_5  and  C_10
REMARK    6  A    between atoms: C_8  and  C_10
REMARK    7  A    between atoms: C_13  and  C_14
REMARK                            x       y       z     vdW  Elec       q    Type
REMARK                         _______ _______ _______ _____ _____    ______ ____
ROOT
ATOM     10  C   UNL     1      -4.795   0.509  24.677  0.00  0.00    +0.138 C 
ENDROOT
BRANCH  10   8
ATOM      1  O   UNL     1      -4.540  -1.795  23.990  0.00  0.00    -0.371 OA
ATOM      6  C   UNL     1      -2.382  -2.305  24.843  0.00  0.00    +0.113 C 
ATOM      7  C   UNL     1      -2.698  -0.850  25.133  0.00  0.00    +0.164 C 
ATOM      8  C   UNL     1      -4.217  -0.852  25.024  0.00  0.00    +0.165 C 
ATOM      9  C   UNL     1      -3.385  -2.617  23.744  0.00  0.00    +0.181 C 
BRANCH   6   4
ATOM      4  N   UNL     1      -1.006  -2.533  24.434  0.00  0.00    -0.301 NA
ATOM     11  C   UNL     1      -0.485  -1.381  23.692  0.00  0.00    +0.105 C 
ATOM     12  C   UNL     1      -0.155  -2.809  25.596  0.00  0.00    +0.105 C 
ENDBRANCH   6   4
BRANCH   7   2
ATOM      2  O   UNL     1      -2.261  -0.441  26.415  0.00  0.00    -0.388 OA
ATOM     20  H   UNL     1      -1.927   0.470  26.346  0.00  0.00    +0.210 HD
ENDBRANCH   7   2
ENDBRANCH  10   8
BRANCH  10   5
ATOM      3  O   UNL     1      -4.697   2.999  26.105  0.00  0.00    -0.270 OA
ATOM      5  N   UNL     1      -3.766   1.506  24.592  0.00  0.00    -0.309 N 
ATOM     13  C   UNL     1      -3.801   2.688  25.325  0.00  0.00    +0.244 C 
ATOM     21  H   UNL     1      -3.032   1.343  23.912  0.00  0.00    +0.149 HD
BRANCH  13  14
ATOM     14  C   UNL     1      -2.673   3.630  25.104  0.00  0.00    +0.037 A 
ATOM     15  C   UNL     1      -2.859   4.999  25.298  0.00  0.00    +0.013 A 
ATOM     16  C   UNL     1      -1.427   3.144  24.707  0.00  0.00    +0.013 A 
ATOM     17  C   UNL     1      -1.798   5.882  25.093  0.00  0.00    +0.001 A 
ATOM     18  C   UNL     1      -0.368   4.027  24.501  0.00  0.00    +0.001 A 
ATOM     19  C   UNL     1      -0.553   5.396  24.694  0.00  0.00    +0.000 A 
ENDBRANCH  13  14
ENDBRANCH  10   5
TORSDOF 5
ENDMDL
MODEL 9
REMARK VINA RESULT:      -3.0      2.038      4.121
REMARK  Name = 75536612
REMARK  7 active torsions:
REMARK  status: ('A' for Active; 'I' for Inactive)
REMARK    1  A    between atoms: O_2  and  C_7
REMARK    2  A    between atoms: N_4  and  C_6
REMARK    3  A    between atoms: N_4  and  C_11
REMARK    4  A    between atoms: N_4  and  C_12
REMARK    5  A    between atoms: N_5  and  C_10
REMARK    6  A    between atoms: C_8  and  C_10
REMARK    7  A    between atoms: C_13  and  C_14
REMARK                            x       y       z     vdW  Elec       q    Type
REMARK                         _______ _______ _______ _____ _____    ______ ____
ROOT
ATOM     10  C   UNL     1       0.146  -0.756  25.038  0.00  0.00    +0.138 C 
ENDROOT
BRANCH  10   8
ATOM      1  O   UNL     1      -1.721  -1.132  26.529  0.00  0.00    -0.371 OA
ATOM      6  C   UNL     1      -3.204  -2.348  25.128  0.00  0.00    +0.113 C 
ATOM      7  C   UNL     1      -1.973  -1.964  24.330  0.00  0.00    +0.164 C 
ATOM      8  C   UNL     1      -0.970  -1.703  25.445  0.00  0.00    +0.165 C 
ATOM      9  C   UNL     1      -3.119  -1.381  26.298  0.00  0.00    +0.181 C 
BRANCH   6   4
ATOM      4  N   UNL     1      -4.446  -2.225  24.382  0.00  0.00    -0.301 NA
ATOM     11  C   UNL     1      -4.614  -0.860  23.872  0.00  0.00    +0.105 C 
ATOM     12  C   UNL     1      -4.487  -3.184  23.274  0.00  0.00    +0.105 C 
ENDBRANCH   6   4
BRANCH   7   2
ATOM      2  O   UNL     1      -1.542  -2.995  23.462  0.00  0.00    -0.388 OA
ATOM     20  H   UNL     1      -0.926  -3.567  23.952  0.00  0.00    +0.210 HD
ENDBRANCH   7   2
ENDBRANCH  10   8
BRANCH  10   5
ATOM      3  O   UNL     1      -1.078   0.988  23.113  0.00  0.00    -0.270 OA
ATOM      5  N   UNL     1      -0.233   0.613  25.241  0.00  0.00    -0.309 N 
ATOM     13  C   UNL     1      -0.824   1.386  24.246  0.00  0.00    +0.244 C 
ATOM     21  H   UNL     1       0.015   1.025  26.134  0.00  0.00    +0.149 HD
BRANCH  13  14
ATOM     14  C   UNL     1      -1.132   2.795  24.607  0.00  0.00    +0.037 A 
ATOM     15  C   UNL     1      -0.283   3.822  24.193  0.00  0.00    +0.013 A 
ATOM     16  C   UNL     1      -2.271   3.089  25.355  0.00  0.00    +0.013 A 
ATOM     17  C   UNL     1      -0.574   5.144  24.530  0.00  0.00    +0.001 A 
ATOM     18  C   UNL     1      -2.561   4.411  25.692  0.00  0.00    +0.001 A 
ATOM     19  C   UNL     1      -1.713   5.438  25.279  0.00  0.00    +0.000 A 
ENDBRANCH  13  14
ENDBRANCH  10   5
TORSDOF 5
ENDMDL
MODEL 10
REMARK VINA RESULT:      -3.0      2.129      4.002
REMARK  Name = 75536612
REMARK  7 active torsions:
REMARK  status: ('A' for Active; 'I' for Inactive)
REMARK    1  A    between atoms: O_2  and  C_7
REMARK    2  A    between atoms: N_4  and  C_6
REMARK    3  A    between atoms: N_4  and  C_11
REMARK    4  A    between atoms: N_4  and  C_12
REMARK    5  A    between atoms: N_5  and  C_10
REMARK    6  A    between atoms: C_8  and  C_10
REMARK    7  A    between atoms: C_13  and  C_14
REMARK                            x       y       z     vdW  Elec       q    Type
REMARK                         _______ _______ _______ _____ _____    ______ ____
ROOT
ATOM     10  C   UNL     1       0.684   0.540  24.112  0.00  0.00    +0.138 C 
ENDROOT
BRANCH  10   8
ATOM      1  O   UNL     1       0.332  -1.779  24.695  0.00  0.00    -0.371 OA
ATOM      6  C   UNL     1      -2.006  -2.004  24.342  0.00  0.00    +0.113 C 
ATOM      7  C   UNL     1      -1.601  -0.566  24.077  0.00  0.00    +0.164 C 
ATOM      8  C   UNL     1      -0.108  -0.724  23.826  0.00  0.00    +0.165 C 
ATOM      9  C   UNL     1      -0.823  -2.505  25.153  0.00  0.00    +0.181 C 
BRANCH   6   4
ATOM      4  N   UNL     1      -3.271  -2.135  25.046  0.00  0.00    -0.301 NA
ATOM     11  C   UNL     1      -3.510  -0.972  25.908  0.00  0.00    +0.105 C 
ATOM     12  C   UNL     1      -4.381  -2.297  24.101  0.00  0.00    +0.105 C 
ENDBRANCH   6   4
BRANCH   7   2
ATOM      2  O   UNL     1      -2.268  -0.008  22.961  0.00  0.00    -0.388 OA
ATOM     20  H   UNL     1      -1.977   0.915  22.863  0.00  0.00    +0.210 HD
ENDBRANCH   7   2
ENDBRANCH  10   8
BRANCH  10   5
ATOM      3  O   UNL     1       0.656   2.326  26.361  0.00  0.00    -0.270 OA
ATOM      5  N   UNL     1      -0.184   1.668  24.301  0.00  0.00    -0.309 N 
ATOM     13  C   UNL     1      -0.127   2.482  25.428  0.00  0.00    +0.244 C 
ATOM     21  H   UNL     1      -0.902   1.809  23.599  0.00  0.00    +0.149 HD
BRANCH  13  14
ATOM     14  C   UNL     1      -1.112   3.593  25.485  0.00  0.00    +0.037 A 
ATOM     15  C   UNL     1      -2.358   3.390  26.079  0.00  0.00    +0.013 A 
ATOM     16  C   UNL     1      -0.790   4.839  24.948  0.00  0.00    +0.013 A 
ATOM     17  C   UNL     1      -3.282   4.434  26.134  0.00  0.00    +0.001 A 
ATOM     18  C   UNL     1      -1.714   5.882  25.003  0.00  0.00    +0.001 A 
ATOM     19  C   UNL     1      -2.960   5.679  25.596  0.00  0.00    +0.000 A 
ENDBRANCH  13  14
ENDBRANCH  10   5
TORSDOF 5
ENDMDL
