MODEL 1
REMARK VINA RESULT:      -1.8      0.000      0.000
REMARK  Name = 11885215
REMARK  8 active torsions:
REMARK  status: ('A' for Active; 'I' for Inactive)
REMARK    1  A    between atoms: S_1  and  C_21
REMARK    2  A    between atoms: S_1  and  C_25
REMARK    3  A    between atoms: S_2  and  C_28
REMARK    4  A    between atoms: S_2  and  C_30
REMARK    5  A    between atoms: O_5  and  C_29
REMARK    6  A    between atoms: C_18  and  C_21
REMARK    7  A    between atoms: C_19  and  C_22
REMARK    8  A    between atoms: C_25  and  C_29
REMARK                            x       y       z     vdW  Elec       q    Type
REMARK                         _______ _______ _______ _____ _____    ______ ____
ROOT
ATOM      3  O   UNL     1      16.581  -7.417  26.737  0.00  0.00    -0.267 OA
ATOM      4  O   UNL     1      12.498  -8.620  29.974  0.00  0.00    -0.275 OA
ATOM      7  N   UNL     1      14.516  -8.739  31.119  0.00  0.00    -0.300 N 
ATOM      8  N   UNL     1      16.749  -7.822  29.028  0.00  0.00    -0.311 N 
ATOM      9  C   UNL     1      16.301 -10.124  30.055  0.00  0.00    +0.027 C 
ATOM     10  C   UNL     1      16.923  -8.239  31.506  0.00  0.00    +0.054 C 
ATOM     11  C   UNL     1      17.278  -9.677  31.136  0.00  0.00    +0.018 C 
ATOM     12  C   UNL     1      14.855 -10.054  30.572  0.00  0.00    +0.113 C 
ATOM     13  C   UNL     1      16.511  -9.256  28.809  0.00  0.00    +0.130 C 
ATOM     14  C   UNL     1      15.491  -8.190  32.074  0.00  0.00    +0.117 C 
ATOM     15  C   UNL     1      17.029  -7.323  30.302  0.00  0.00    +0.027 A 
ATOM     16  C   UNL     1      17.361  -6.032  30.460  0.00  0.00    +0.022 A 
ATOM     17  C   UNL     1      16.788  -7.006  27.880  0.00  0.00    +0.259 A 
ATOM     18  C   UNL     1      13.302  -8.142  30.778  0.00  0.00    +0.225 C 
ATOM     19  C   UNL     1      17.128  -5.555  28.094  0.00  0.00    +0.047 A 
ATOM     20  C   UNL     1      17.405  -5.137  29.338  0.00  0.00    +0.015 A 
ENDROOT
BRANCH  19  22
ATOM     22  C   UNL     1      17.151  -4.603  26.971  0.00  0.00    -0.013 A 
ATOM     23  C   UNL     1      17.203  -3.231  27.219  0.00  0.00    +0.010 A 
ATOM     24  C   UNL     1      17.121  -5.072  25.657  0.00  0.00    +0.010 A 
ATOM     26  C   UNL     1      17.225  -2.329  26.155  0.00  0.00    +0.015 A 
ATOM     27  C   UNL     1      17.143  -4.170  24.593  0.00  0.00    +0.015 A 
ATOM     28  C   UNL     1      17.195  -2.798  24.842  0.00  0.00    +0.008 A 
BRANCH  28   2
ATOM      2  S   UNL     1      17.222  -1.647  23.483  0.00  0.00    -0.129 S 
ATOM     30  C   UNL     1      15.753  -2.147  22.543  0.00  0.00    +0.090 C 
ENDBRANCH  28   2
ENDBRANCH  19  22
BRANCH  18  21
ATOM     21  C   UNL     1      12.983  -6.829  31.447  0.00  0.00    +0.165 C 
BRANCH  21   1
ATOM      1  S   UNL     1      11.196  -6.632  31.440  0.00  0.00    -0.140 S 
BRANCH   1  25
ATOM     25  C   UNL     1      10.794  -7.680  32.859  0.00  0.00    +0.189 C 
BRANCH  25  29
ATOM      6  O   UNL     1       9.080  -9.098  31.929  0.00  0.00    -0.250 OA
ATOM     29  C   UNL     1      10.215  -8.978  32.373  0.00  0.00    +0.315 C 
BRANCH  29   5
ATOM      5  O   UNL     1      11.093 -10.009  32.463  0.00  0.00    -0.480 OA
ATOM     31  H   UNL     1      11.710 -10.030  31.701  0.00  0.00    +0.295 HD
ENDBRANCH  29   5
ENDBRANCH  25  29
ENDBRANCH   1  25
ENDBRANCH  21   1
ENDBRANCH  18  21
TORSDOF 7
ENDMDL
MODEL 2
REMARK VINA RESULT:       1.6     16.884     19.361
REMARK  Name = 11885215
REMARK  8 active torsions:
REMARK  status: ('A' for Active; 'I' for Inactive)
REMARK    1  A    between atoms: S_1  and  C_21
REMARK    2  A    between atoms: S_1  and  C_25
REMARK    3  A    between atoms: S_2  and  C_28
REMARK    4  A    between atoms: S_2  and  C_30
REMARK    5  A    between atoms: O_5  and  C_29
REMARK    6  A    between atoms: C_18  and  C_21
REMARK    7  A    between atoms: C_19  and  C_22
REMARK    8  A    between atoms: C_25  and  C_29
REMARK                            x       y       z     vdW  Elec       q    Type
REMARK                         _______ _______ _______ _____ _____    ______ ____
ROOT
ATOM      3  O   UNL     1       0.171   2.171  25.591  0.00  0.00    -0.267 OA
ATOM      4  O   UNL     1      -4.266  -0.622  26.644  0.00  0.00    -0.275 OA
ATOM      7  N   UNL     1      -4.727   1.136  25.196  0.00  0.00    -0.300 N 
ATOM      8  N   UNL     1      -1.912   2.524  24.604  0.00  0.00    -0.311 N 
ATOM      9  C   UNL     1      -3.930   3.390  25.920  0.00  0.00    +0.027 C 
ATOM     10  C   UNL     1      -4.159   2.889  23.525  0.00  0.00    +0.054 C 
ATOM     11  C   UNL     1      -4.379   3.967  24.584  0.00  0.00    +0.018 C 
ATOM     12  C   UNL     1      -4.747   2.134  26.268  0.00  0.00    +0.113 C 
ATOM     13  C   UNL     1      -2.427   3.100  25.855  0.00  0.00    +0.130 C 
ATOM     14  C   UNL     1      -5.024   1.657  23.853  0.00  0.00    +0.117 C 
ATOM     15  C   UNL     1      -2.698   2.486  23.450  0.00  0.00    +0.027 A 
ATOM     16  C   UNL     1      -2.169   2.068  22.290  0.00  0.00    +0.022 A 
ATOM     17  C   UNL     1      -0.563   2.119  24.602  0.00  0.00    +0.259 A 
ATOM     18  C   UNL     1      -4.514  -0.207  25.509  0.00  0.00    +0.225 C 
ATOM     19  C   UNL     1      -0.009   1.620  23.295  0.00  0.00    +0.047 A 
ATOM     20  C   UNL     1      -0.806   1.624  22.216  0.00  0.00    +0.015 A 
ENDROOT
BRANCH  19  22
ATOM     22  C   UNL     1       1.376   1.128  23.191  0.00  0.00    -0.013 A 
ATOM     23  C   UNL     1       1.631  -0.243  23.191  0.00  0.00    +0.010 A 
ATOM     24  C   UNL     1       2.432   2.034  23.092  0.00  0.00    +0.010 A 
ATOM     26  C   UNL     1       2.942  -0.709  23.093  0.00  0.00    +0.015 A 
ATOM     27  C   UNL     1       3.743   1.568  22.994  0.00  0.00    +0.015 A 
ATOM     28  C   UNL     1       3.999   0.196  22.994  0.00  0.00    +0.008 A 
BRANCH  28   2
ATOM      2  S   UNL     1       5.673  -0.398  22.869  0.00  0.00    -0.129 S 
ATOM     30  C   UNL     1       5.975  -1.015  24.549  0.00  0.00    +0.090 C 
ENDBRANCH  28   2
ENDBRANCH  19  22
BRANCH  18  21
ATOM     21  C   UNL     1      -4.594  -1.186  24.366  0.00  0.00    +0.165 C 
BRANCH  21   1
ATOM      1  S   UNL     1      -3.312  -2.422  24.616  0.00  0.00    -0.140 S 
BRANCH   1  25
ATOM     25  C   UNL     1      -1.863  -1.398  24.257  0.00  0.00    +0.189 C 
BRANCH  25  29
ATOM      6  O   UNL     1       0.019  -2.237  25.508  0.00  0.00    -0.250 OA
ATOM     29  C   UNL     1      -0.914  -1.450  25.420  0.00  0.00    +0.315 C 
BRANCH  29   5
ATOM      5  O   UNL     1      -1.192  -0.515  26.364  0.00  0.00    -0.480 OA
ATOM     31  H   UNL     1      -1.880   0.116  26.062  0.00  0.00    +0.295 HD
ENDBRANCH  29   5
ENDBRANCH  25  29
ENDBRANCH   1  25
ENDBRANCH  21   1
ENDBRANCH  18  21
TORSDOF 7
ENDMDL
