MODEL 1
REMARK VINA RESULT:       1.3      0.000      0.000
REMARK  Name = 38026953
REMARK  10 active torsions:
REMARK  status: ('A' for Active; 'I' for Inactive)
REMARK    1  A    between atoms: N_6  and  C_16
REMARK    2  A    between atoms: C_8  and  C_12
REMARK    3  A    between atoms: C_9  and  C_16
REMARK    4  A    between atoms: C_11  and  C_15
REMARK    5  A    between atoms: C_12  and  C_17
REMARK    6  A    between atoms: C_12  and  C_18
REMARK    7  A    between atoms: C_13  and  C_19
REMARK    8  A    between atoms: C_15  and  C_20
REMARK    9  A    between atoms: C_25  and  C_27
REMARK   10  A    between atoms: C_26  and  C_28
REMARK                            x       y       z     vdW  Elec       q    Type
REMARK                         _______ _______ _______ _____ _____    ______ ____
ROOT
ATOM      8  C   UNL     1      -1.592  -0.233  25.099  0.00  0.00    +0.000 C 
ATOM      9  C   UNL     1      -1.002  -1.503  24.436  0.00  0.00    +0.032 C 
ATOM     10  C   UNL     1      -2.687  -0.613  26.106  0.00  0.00    +0.012 C 
ATOM     11  C   UNL     1      -3.837  -1.399  25.447  0.00  0.00    +0.023 C 
ATOM     13  C   UNL     1      -3.321  -2.511  24.557  0.00  0.00    -0.073 C 
ATOM     14  C   UNL     1      -2.047  -2.547  24.125  0.00  0.00    -0.022 C 
ATOM     19  C   UNL     1      -4.292  -3.605  24.209  0.00  0.00    +0.039 C 
ENDROOT
BRANCH   8  12
ATOM     12  C   UNL     1      -0.511   0.599  25.797  0.00  0.00    -0.013 C 
ATOM     17  C   UNL     1       0.110   1.593  24.821  0.00  0.00    +0.007 C 
ATOM     18  C   UNL     1      -1.094   1.320  27.007  0.00  0.00    +0.007 C 
ENDBRANCH   8  12
BRANCH  11  15
ATOM     15  C   UNL     1      -4.772  -0.464  24.673  0.00  0.00    +0.103 C 
BRANCH  15  20
ATOM      2  O   UNL     1      -3.547  -0.183  22.664  0.00  0.00    -0.276 OA
ATOM      4  O   UNL     1      -2.768   5.894  26.344  0.00  0.00    -0.276 OA
ATOM      5  N   UNL     1      -3.777   1.696  24.009  0.00  0.00    -0.298 N 
ATOM      7  N   UNL     1      -2.482   3.999  25.033  0.00  0.00    -0.299 N 
ATOM     20  C   UNL     1      -3.978   0.355  23.687  0.00  0.00    +0.216 C 
ATOM     21  C   UNL     1      -3.012   2.559  23.106  0.00  0.00    +0.126 C 
ATOM     22  C   UNL     1      -4.338   2.384  25.180  0.00  0.00    +0.126 C 
ATOM     23  C   UNL     1      -1.921   3.312  23.863  0.00  0.00    +0.126 C 
ATOM     24  C   UNL     1      -3.247   3.137  25.937  0.00  0.00    +0.126 C 
ATOM     26  C   UNL     1      -2.284   5.341  25.354  0.00  0.00    +0.213 C 
ATOM     28  C   UNL     1      -1.422   6.140  24.409  0.00  0.00    +0.109 C 
ENDBRANCH  15  20
ENDBRANCH  11  15
BRANCH   9  16
ATOM     16  C   UNL     1      -0.234  -1.153  23.157  0.00  0.00    +0.112 C 
BRANCH  16   6
ATOM      3  O   UNL     1       1.772  -0.301  21.287  0.00  0.00    -0.270 OA
ATOM      6  N   UNL     1       1.122  -0.814  23.456  0.00  0.00    -0.311 N 
ATOM     25  C   UNL     1       2.035  -0.408  22.482  0.00  0.00    +0.244 C 
ATOM     34  H   UNL     1       1.389  -0.789  24.434  0.00  0.00    +0.149 HD
BRANCH  25  27
ATOM      1  F   UNL     1       6.134  -1.761  24.721  0.00  0.00    -0.205 F 
ATOM     27  C   UNL     1       3.414  -0.117  22.950  0.00  0.00    +0.039 A 
ATOM     29  C   UNL     1       4.141  -1.095  23.629  0.00  0.00    +0.051 A 
ATOM     30  C   UNL     1       3.983   1.135  22.712  0.00  0.00    +0.013 A 
ATOM     31  C   UNL     1       5.436  -0.822  24.069  0.00  0.00    +0.124 A 
ATOM     32  C   UNL     1       5.278   1.408  23.152  0.00  0.00    +0.004 A 
ATOM     33  C   UNL     1       6.004   0.429  23.830  0.00  0.00    +0.038 A 
ENDBRANCH  25  27
ENDBRANCH  16   6
ENDBRANCH   9  16
TORSDOF 6
ENDMDL
MODEL 2
REMARK VINA RESULT:       1.9      2.706      7.023
REMARK  Name = 38026953
REMARK  10 active torsions:
REMARK  status: ('A' for Active; 'I' for Inactive)
REMARK    1  A    between atoms: N_6  and  C_16
REMARK    2  A    between atoms: C_8  and  C_12
REMARK    3  A    between atoms: C_9  and  C_16
REMARK    4  A    between atoms: C_11  and  C_15
REMARK    5  A    between atoms: C_12  and  C_17
REMARK    6  A    between atoms: C_12  and  C_18
REMARK    7  A    between atoms: C_13  and  C_19
REMARK    8  A    between atoms: C_15  and  C_20
REMARK    9  A    between atoms: C_25  and  C_27
REMARK   10  A    between atoms: C_26  and  C_28
REMARK                            x       y       z     vdW  Elec       q    Type
REMARK                         _______ _______ _______ _____ _____    ______ ____
ROOT
ATOM      8  C   UNL     1      -3.886   3.645  25.750  0.00  0.00    +0.000 C 
ATOM      9  C   UNL     1      -3.907   4.105  24.271  0.00  0.00    +0.032 C 
ATOM     10  C   UNL     1      -2.929   4.522  26.570  0.00  0.00    +0.012 C 
ATOM     11  C   UNL     1      -1.489   4.480  26.026  0.00  0.00    +0.023 C 
ATOM     13  C   UNL     1      -1.450   4.660  24.522  0.00  0.00    -0.073 C 
ATOM     14  C   UNL     1      -2.544   4.501  23.755  0.00  0.00    -0.022 C 
ATOM     19  C   UNL     1      -0.134   5.072  23.922  0.00  0.00    +0.039 C 
ENDROOT
BRANCH   8  12
ATOM     12  C   UNL     1      -5.284   3.677  26.376  0.00  0.00    -0.013 C 
ATOM     17  C   UNL     1      -6.243   4.477  25.498  0.00  0.00    +0.007 C 
ATOM     18  C   UNL     1      -5.803   2.260  26.591  0.00  0.00    +0.007 C 
ENDBRANCH   8  12
BRANCH  11  15
ATOM     15  C   UNL     1      -0.778   3.188  26.442  0.00  0.00    +0.103 C 
BRANCH  15  20
ATOM      2  O   UNL     1      -2.365   1.488  25.984  0.00  0.00    -0.276 OA
ATOM      4  O   UNL     1       3.117   0.356  21.538  0.00  0.00    -0.276 OA
ATOM      5  N   UNL     1      -0.554   1.634  24.537  0.00  0.00    -0.298 N 
ATOM      7  N   UNL     1       1.342   0.169  23.024  0.00  0.00    -0.299 N 
ATOM     20  C   UNL     1      -1.310   2.028  25.639  0.00  0.00    +0.216 C 
ATOM     21  C   UNL     1      -1.000   0.513  23.706  0.00  0.00    +0.126 C 
ATOM     22  C   UNL     1       0.664   2.301  24.056  0.00  0.00    +0.126 C 
ATOM     23  C   UNL     1       0.125  -0.499  23.504  0.00  0.00    +0.126 C 
ATOM     24  C   UNL     1       1.789   1.290  23.854  0.00  0.00    +0.126 C 
ATOM     26  C   UNL     1       2.097  -0.223  21.920  0.00  0.00    +0.213 C 
ATOM     28  C   UNL     1       1.609  -1.433  21.164  0.00  0.00    +0.109 C 
ENDBRANCH  15  20
ENDBRANCH  11  15
BRANCH   9  16
ATOM     16  C   UNL     1      -4.501   3.022  23.364  0.00  0.00    +0.112 C 
BRANCH  16   6
ATOM      3  O   UNL     1      -6.136   0.842  24.270  0.00  0.00    -0.270 OA
ATOM      6  N   UNL     1      -4.050   1.725  23.760  0.00  0.00    -0.311 N 
ATOM     25  C   UNL     1      -4.916   0.719  24.189  0.00  0.00    +0.244 C 
ATOM     34  H   UNL     1      -3.065   1.517  23.632  0.00  0.00    +0.149 HD
BRANCH  25  27
ATOM      1  F   UNL     1      -3.651  -3.877  23.228  0.00  0.00    -0.205 F 
ATOM     27  C   UNL     1      -4.288  -0.565  24.592  0.00  0.00    +0.039 A 
ATOM     29  C   UNL     1      -4.263  -1.640  23.703  0.00  0.00    +0.051 A 
ATOM     30  C   UNL     1      -3.724  -0.698  25.862  0.00  0.00    +0.013 A 
ATOM     31  C   UNL     1      -3.674  -2.846  24.082  0.00  0.00    +0.124 A 
ATOM     32  C   UNL     1      -3.134  -1.904  26.240  0.00  0.00    +0.004 A 
ATOM     33  C   UNL     1      -3.110  -2.978  25.350  0.00  0.00    +0.038 A 
ENDBRANCH  25  27
ENDBRANCH  16   6
ENDBRANCH   9  16
TORSDOF 6
ENDMDL
MODEL 3
REMARK VINA RESULT:       2.3      1.698      4.839
REMARK  Name = 38026953
REMARK  10 active torsions:
REMARK  status: ('A' for Active; 'I' for Inactive)
REMARK    1  A    between atoms: N_6  and  C_16
REMARK    2  A    between atoms: C_8  and  C_12
REMARK    3  A    between atoms: C_9  and  C_16
REMARK    4  A    between atoms: C_11  and  C_15
REMARK    5  A    between atoms: C_12  and  C_17
REMARK    6  A    between atoms: C_12  and  C_18
REMARK    7  A    between atoms: C_13  and  C_19
REMARK    8  A    between atoms: C_15  and  C_20
REMARK    9  A    between atoms: C_25  and  C_27
REMARK   10  A    between atoms: C_26  and  C_28
REMARK                            x       y       z     vdW  Elec       q    Type
REMARK                         _______ _______ _______ _____ _____    ______ ____
ROOT
ATOM      8  C   UNL     1      -2.121   2.769  23.523  0.00  0.00    +0.000 C 
ATOM      9  C   UNL     1      -0.604   2.462  23.590  0.00  0.00    +0.032 C 
ATOM     10  C   UNL     1      -2.449   4.032  24.331  0.00  0.00    +0.012 C 
ATOM     11  C   UNL     1      -2.044   3.899  25.811  0.00  0.00    +0.023 C 
ATOM     13  C   UNL     1      -0.642   3.345  25.963  0.00  0.00    -0.073 C 
ATOM     14  C   UNL     1      -0.010   2.717  24.955  0.00  0.00    -0.022 C 
ATOM     19  C   UNL     1       0.035   3.568  27.287  0.00  0.00    +0.039 C 
ENDROOT
BRANCH   8  12
ATOM     12  C   UNL     1      -2.603   2.936  22.078  0.00  0.00    -0.013 C 
ATOM     17  C   UNL     1      -2.543   1.603  21.339  0.00  0.00    +0.007 C 
ATOM     18  C   UNL     1      -4.018   3.506  22.053  0.00  0.00    +0.007 C 
ENDBRANCH   8  12
BRANCH  11  15
ATOM     15  C   UNL     1      -3.057   3.051  26.587  0.00  0.00    +0.103 C 
BRANCH  15  20
ATOM      2  O   UNL     1      -5.082   3.065  25.356  0.00  0.00    -0.276 OA
ATOM      4  O   UNL     1      -2.332  -3.490  24.608  0.00  0.00    -0.276 OA
ATOM      5  N   UNL     1      -3.738   1.185  25.122  0.00  0.00    -0.298 N 
ATOM      7  N   UNL     1      -3.705  -1.639  24.894  0.00  0.00    -0.299 N 
ATOM     20  C   UNL     1      -4.054   2.442  25.634  0.00  0.00    +0.216 C 
ATOM     21  C   UNL     1      -4.656   0.522  24.192  0.00  0.00    +0.126 C 
ATOM     22  C   UNL     1      -2.491   0.450  25.374  0.00  0.00    +0.126 C 
ATOM     23  C   UNL     1      -4.952  -0.906  24.642  0.00  0.00    +0.126 C 
ATOM     24  C   UNL     1      -2.787  -0.978  25.824  0.00  0.00    +0.126 C 
ATOM     26  C   UNL     1      -3.388  -2.896  24.380  0.00  0.00    +0.213 C 
ATOM     28  C   UNL     1      -4.421  -3.541  23.490  0.00  0.00    +0.109 C 
ENDBRANCH  15  20
ENDBRANCH  11  15
BRANCH   9  16
ATOM     16  C   UNL     1      -0.311   1.019  23.168  0.00  0.00    +0.112 C 
BRANCH  16   6
ATOM      3  O   UNL     1       1.618  -0.204  21.428  0.00  0.00    -0.270 OA
ATOM      6  N   UNL     1       1.029   0.653  23.503  0.00  0.00    -0.311 N 
ATOM     25  C   UNL     1       1.904   0.060  22.593  0.00  0.00    +0.244 C 
ATOM     34  H   UNL     1       1.367   0.924  24.420  0.00  0.00    +0.149 HD
BRANCH  25  27
ATOM      1  F   UNL     1       6.467   1.309  23.718  0.00  0.00    -0.205 F 
ATOM     27  C   UNL     1       3.255  -0.285  23.105  0.00  0.00    +0.039 A 
ATOM     29  C   UNL     1       4.246   0.693  23.173  0.00  0.00    +0.051 A 
ATOM     30  C   UNL     1       3.533  -1.590  23.516  0.00  0.00    +0.013 A 
ATOM     31  C   UNL     1       5.516   0.369  23.653  0.00  0.00    +0.124 A 
ATOM     32  C   UNL     1       4.801  -1.914  23.997  0.00  0.00    +0.004 A 
ATOM     33  C   UNL     1       5.792  -0.935  24.065  0.00  0.00    +0.038 A 
ENDBRANCH  25  27
ENDBRANCH  16   6
ENDBRANCH   9  16
TORSDOF 6
ENDMDL
MODEL 4
REMARK VINA RESULT:       2.7      3.669      6.116
REMARK  Name = 38026953
REMARK  10 active torsions:
REMARK  status: ('A' for Active; 'I' for Inactive)
REMARK    1  A    between atoms: N_6  and  C_16
REMARK    2  A    between atoms: C_8  and  C_12
REMARK    3  A    between atoms: C_9  and  C_16
REMARK    4  A    between atoms: C_11  and  C_15
REMARK    5  A    between atoms: C_12  and  C_17
REMARK    6  A    between atoms: C_12  and  C_18
REMARK    7  A    between atoms: C_13  and  C_19
REMARK    8  A    between atoms: C_15  and  C_20
REMARK    9  A    between atoms: C_25  and  C_27
REMARK   10  A    between atoms: C_26  and  C_28
REMARK                            x       y       z     vdW  Elec       q    Type
REMARK                         _______ _______ _______ _____ _____    ______ ____
ROOT
ATOM      8  C   UNL     1      -2.988   3.079  23.645  0.00  0.00    +0.000 C 
ATOM      9  C   UNL     1      -1.797   3.870  24.241  0.00  0.00    +0.032 C 
ATOM     10  C   UNL     1      -4.318   3.740  24.034  0.00  0.00    +0.012 C 
ATOM     11  C   UNL     1      -4.504   3.824  25.560  0.00  0.00    +0.023 C 
ATOM     13  C   UNL     1      -3.261   4.350  26.250  0.00  0.00    -0.073 C 
ATOM     14  C   UNL     1      -2.062   4.375  25.639  0.00  0.00    -0.022 C 
ATOM     19  C   UNL     1      -3.436   4.889  27.643  0.00  0.00    +0.039 C 
ENDROOT
BRANCH   8  12
ATOM     12  C   UNL     1      -2.890   2.965  22.121  0.00  0.00    -0.013 C 
ATOM     17  C   UNL     1      -2.493   1.549  21.716  0.00  0.00    +0.007 C 
ATOM     18  C   UNL     1      -4.211   3.363  21.472  0.00  0.00    +0.007 C 
ENDBRANCH   8  12
BRANCH  11  15
ATOM     15  C   UNL     1      -4.923   2.470  26.142  0.00  0.00    +0.103 C 
BRANCH  15  20
ATOM      2  O   UNL     1      -6.330   1.601  24.445  0.00  0.00    -0.276 OA
ATOM      4  O   UNL     1      -0.820  -2.921  24.985  0.00  0.00    -0.276 OA
ATOM      5  N   UNL     1      -4.272   0.559  24.721  0.00  0.00    -0.298 N 
ATOM      7  N   UNL     1      -2.904  -1.922  24.754  0.00  0.00    -0.299 N 
ATOM     20  C   UNL     1      -5.245   1.510  25.026  0.00  0.00    +0.216 C 
ATOM     21  C   UNL     1      -4.508  -0.413  23.651  0.00  0.00    +0.126 C 
ATOM     22  C   UNL     1      -2.943   0.471  25.341  0.00  0.00    +0.126 C 
ATOM     23  C   UNL     1      -4.232  -1.834  24.134  0.00  0.00    +0.126 C 
ATOM     24  C   UNL     1      -2.666  -0.950  25.824  0.00  0.00    +0.126 C 
ATOM     26  C   UNL     1      -1.930  -2.870  24.448  0.00  0.00    +0.213 C 
ATOM     28  C   UNL     1      -2.283  -3.882  23.387  0.00  0.00    +0.109 C 
ENDBRANCH  15  20
ENDBRANCH  11  15
BRANCH   9  16
ATOM     16  C   UNL     1      -0.516   3.029  24.236  0.00  0.00    +0.112 C 
BRANCH  16   6
ATOM      3  O   UNL     1      -0.412   1.086  26.348  0.00  0.00    -0.270 OA
ATOM      6  N   UNL     1       0.179   3.156  25.479  0.00  0.00    -0.311 N 
ATOM     25  C   UNL     1       0.177   2.159  26.454  0.00  0.00    +0.244 C 
ATOM     34  H   UNL     1       0.764   3.976  25.601  0.00  0.00    +0.149 HD
BRANCH  25  27
ATOM      1  F   UNL     1       0.408   2.436  31.303  0.00  0.00    -0.205 F 
ATOM     27  C   UNL     1       0.926   2.455  27.703  0.00  0.00    +0.039 A 
ATOM     29  C   UNL     1       0.304   2.303  28.941  0.00  0.00    +0.051 A 
ATOM     30  C   UNL     1       2.251   2.886  27.636  0.00  0.00    +0.013 A 
ATOM     31  C   UNL     1       1.006   2.581  30.114  0.00  0.00    +0.124 A 
ATOM     32  C   UNL     1       2.954   3.164  28.809  0.00  0.00    +0.004 A 
ATOM     33  C   UNL     1       2.331   3.012  30.047  0.00  0.00    +0.038 A 
ENDBRANCH  25  27
ENDBRANCH  16   6
ENDBRANCH   9  16
TORSDOF 6
ENDMDL
MODEL 5
REMARK VINA RESULT:       2.9      2.281      5.260
REMARK  Name = 38026953
REMARK  10 active torsions:
REMARK  status: ('A' for Active; 'I' for Inactive)
REMARK    1  A    between atoms: N_6  and  C_16
REMARK    2  A    between atoms: C_8  and  C_12
REMARK    3  A    between atoms: C_9  and  C_16
REMARK    4  A    between atoms: C_11  and  C_15
REMARK    5  A    between atoms: C_12  and  C_17
REMARK    6  A    between atoms: C_12  and  C_18
REMARK    7  A    between atoms: C_13  and  C_19
REMARK    8  A    between atoms: C_15  and  C_20
REMARK    9  A    between atoms: C_25  and  C_27
REMARK   10  A    between atoms: C_26  and  C_28
REMARK                            x       y       z     vdW  Elec       q    Type
REMARK                         _______ _______ _______ _____ _____    ______ ____
ROOT
ATOM      8  C   UNL     1      -3.155   2.832  23.700  0.00  0.00    +0.000 C 
ATOM      9  C   UNL     1      -2.696   4.203  24.257  0.00  0.00    +0.032 C 
ATOM     10  C   UNL     1      -4.674   2.828  23.473  0.00  0.00    +0.012 C 
ATOM     11  C   UNL     1      -5.458   3.116  24.767  0.00  0.00    +0.023 C 
ATOM     13  C   UNL     1      -4.890   4.304  25.516  0.00  0.00    -0.073 C 
ATOM     14  C   UNL     1      -3.658   4.784  25.265  0.00  0.00    -0.022 C 
ATOM     19  C   UNL     1      -5.787   4.957  26.531  0.00  0.00    +0.039 C 
ENDROOT
BRANCH   8  12
ATOM     12  C   UNL     1      -2.435   2.477  22.395  0.00  0.00    -0.013 C 
ATOM     17  C   UNL     1      -2.353   0.963  22.227  0.00  0.00    +0.007 C 
ATOM     18  C   UNL     1      -3.143   3.117  21.206  0.00  0.00    +0.007 C 
ENDBRANCH   8  12
BRANCH  11  15
ATOM     15  C   UNL     1      -5.515   1.876  25.666  0.00  0.00    +0.103 C 
BRANCH  15  20
ATOM      2  O   UNL     1      -6.558   0.243  24.302  0.00  0.00    -0.276 OA
ATOM      4  O   UNL     1       0.080  -2.113  25.520  0.00  0.00    -0.276 OA
ATOM      5  N   UNL     1      -4.282  -0.022  24.681  0.00  0.00    -0.298 N 
ATOM      7  N   UNL     1      -2.209  -1.883  25.196  0.00  0.00    -0.299 N 
ATOM     20  C   UNL     1      -5.507   0.628  24.820  0.00  0.00    +0.216 C 
ATOM     21  C   UNL     1      -4.189  -1.244  23.878  0.00  0.00    +0.126 C 
ATOM     22  C   UNL     1      -3.000   0.450  25.222  0.00  0.00    +0.126 C 
ATOM     23  C   UNL     1      -3.489  -2.356  24.655  0.00  0.00    +0.126 C 
ATOM     24  C   UNL     1      -2.300  -0.662  25.999  0.00  0.00    +0.126 C 
ATOM     26  C   UNL     1      -0.983  -2.532  25.055  0.00  0.00    +0.213 C 
ATOM     28  C   UNL     1      -0.989  -3.824  24.276  0.00  0.00    +0.109 C 
ENDBRANCH  15  20
ENDBRANCH  11  15
BRANCH   9  16
ATOM     16  C   UNL     1      -1.299   4.106  24.880  0.00  0.00    +0.112 C 
BRANCH  16   6
ATOM      3  O   UNL     1       0.169   1.871  25.926  0.00  0.00    -0.270 OA
ATOM      6  N   UNL     1      -0.474   3.205  24.138  0.00  0.00    -0.311 N 
ATOM     25  C   UNL     1       0.207   2.140  24.728  0.00  0.00    +0.244 C 
ATOM     34  H   UNL     1      -0.465   3.309  23.129  0.00  0.00    +0.149 HD
BRANCH  25  27
ATOM      1  F   UNL     1       4.488   1.113  22.662  0.00  0.00    -0.205 F 
ATOM     27  C   UNL     1       1.047   1.312  23.825  0.00  0.00    +0.039 A 
ATOM     29  C   UNL     1       2.400   1.607  23.664  0.00  0.00    +0.051 A 
ATOM     30  C   UNL     1       0.480   0.239  23.135  0.00  0.00    +0.013 A 
ATOM     31  C   UNL     1       3.189   0.830  22.816  0.00  0.00    +0.124 A 
ATOM     32  C   UNL     1       1.268  -0.539  22.287  0.00  0.00    +0.004 A 
ATOM     33  C   UNL     1       2.622  -0.243  22.127  0.00  0.00    +0.038 A 
ENDBRANCH  25  27
ENDBRANCH  16   6
ENDBRANCH   9  16
TORSDOF 6
ENDMDL
MODEL 6
REMARK VINA RESULT:       4.8      2.305      6.877
REMARK  Name = 38026953
REMARK  10 active torsions:
REMARK  status: ('A' for Active; 'I' for Inactive)
REMARK    1  A    between atoms: N_6  and  C_16
REMARK    2  A    between atoms: C_8  and  C_12
REMARK    3  A    between atoms: C_9  and  C_16
REMARK    4  A    between atoms: C_11  and  C_15
REMARK    5  A    between atoms: C_12  and  C_17
REMARK    6  A    between atoms: C_12  and  C_18
REMARK    7  A    between atoms: C_13  and  C_19
REMARK    8  A    between atoms: C_15  and  C_20
REMARK    9  A    between atoms: C_25  and  C_27
REMARK   10  A    between atoms: C_26  and  C_28
REMARK                            x       y       z     vdW  Elec       q    Type
REMARK                         _______ _______ _______ _____ _____    ______ ____
ROOT
ATOM      8  C   UNL     1      -4.081   3.262  25.290  0.00  0.00    +0.000 C 
ATOM      9  C   UNL     1      -5.172   2.855  24.268  0.00  0.00    +0.032 C 
ATOM     10  C   UNL     1      -2.992   4.101  24.606  0.00  0.00    +0.012 C 
ATOM     11  C   UNL     1      -2.316   3.345  23.447  0.00  0.00    +0.023 C 
ATOM     13  C   UNL     1      -3.332   2.685  22.537  0.00  0.00    -0.073 C 
ATOM     14  C   UNL     1      -4.607   2.486  22.917  0.00  0.00    -0.022 C 
ATOM     19  C   UNL     1      -2.860   2.299  21.162  0.00  0.00    +0.039 C 
ENDROOT
BRANCH   8  12
ATOM     12  C   UNL     1      -4.670   4.040  26.471  0.00  0.00    -0.013 C 
ATOM     17  C   UNL     1      -3.571   4.792  27.215  0.00  0.00    +0.007 C 
ATOM     18  C   UNL     1      -5.752   5.000  25.989  0.00  0.00    +0.007 C 
ENDBRANCH   8  12
BRANCH  11  15
ATOM     15  C   UNL     1      -1.302   2.322  23.971  0.00  0.00    +0.103 C 
BRANCH  15  20
ATOM      2  O   UNL     1       0.271   4.017  23.452  0.00  0.00    -0.276 OA
ATOM      4  O   UNL     1       3.950  -2.104  23.737  0.00  0.00    -0.276 OA
ATOM      5  N   UNL     1       1.132   1.911  23.917  0.00  0.00    -0.298 N 
ATOM      7  N   UNL     1       3.085  -0.016  23.207  0.00  0.00    -0.299 N 
ATOM     20  C   UNL     1       0.100   2.834  23.756  0.00  0.00    +0.216 C 
ATOM     21  C   UNL     1       2.523   2.326  23.723  0.00  0.00    +0.126 C 
ATOM     22  C   UNL     1       0.968   0.516  24.351  0.00  0.00    +0.126 C 
ATOM     23  C   UNL     1       3.249   1.378  22.773  0.00  0.00    +0.126 C 
ATOM     24  C   UNL     1       1.694  -0.433  23.401  0.00  0.00    +0.126 C 
ATOM     26  C   UNL     1       4.117  -0.939  23.371  0.00  0.00    +0.213 C 
ATOM     28  C   UNL     1       5.512  -0.449  23.078  0.00  0.00    +0.109 C 
ENDBRANCH  15  20
ENDBRANCH  11  15
BRANCH   9  16
ATOM     16  C   UNL     1      -6.023   1.696  24.799  0.00  0.00    +0.112 C 
BRANCH  16   6
ATOM      3  O   UNL     1      -3.491   0.856  25.860  0.00  0.00    -0.270 OA
ATOM      6  N   UNL     1      -5.375   0.443  24.569  0.00  0.00    -0.311 N 
ATOM     25  C   UNL     1      -4.139   0.114  25.126  0.00  0.00    +0.244 C 
ATOM     34  H   UNL     1      -5.892  -0.257  24.047  0.00  0.00    +0.149 HD
BRANCH  25  27
ATOM      1  F   UNL     1      -0.521  -3.134  25.170  0.00  0.00    -0.205 F 
ATOM     27  C   UNL     1      -3.586  -1.217  24.768  0.00  0.00    +0.039 A 
ATOM     29  C   UNL     1      -2.287  -1.557  25.144  0.00  0.00    +0.051 A 
ATOM     30  C   UNL     1      -4.366  -2.127  24.053  0.00  0.00    +0.013 A 
ATOM     31  C   UNL     1      -1.768  -2.807  24.808  0.00  0.00    +0.124 A 
ATOM     32  C   UNL     1      -3.847  -3.377  23.717  0.00  0.00    +0.004 A 
ATOM     33  C   UNL     1      -2.548  -3.717  24.094  0.00  0.00    +0.038 A 
ENDBRANCH  25  27
ENDBRANCH  16   6
ENDBRANCH   9  16
TORSDOF 6
ENDMDL
MODEL 7
REMARK VINA RESULT:       5.2      1.798      4.885
REMARK  Name = 38026953
REMARK  10 active torsions:
REMARK  status: ('A' for Active; 'I' for Inactive)
REMARK    1  A    between atoms: N_6  and  C_16
REMARK    2  A    between atoms: C_8  and  C_12
REMARK    3  A    between atoms: C_9  and  C_16
REMARK    4  A    between atoms: C_11  and  C_15
REMARK    5  A    between atoms: C_12  and  C_17
REMARK    6  A    between atoms: C_12  and  C_18
REMARK    7  A    between atoms: C_13  and  C_19
REMARK    8  A    between atoms: C_15  and  C_20
REMARK    9  A    between atoms: C_25  and  C_27
REMARK   10  A    between atoms: C_26  and  C_28
REMARK                            x       y       z     vdW  Elec       q    Type
REMARK                         _______ _______ _______ _____ _____    ______ ____
ROOT
ATOM      8  C   UNL     1      -2.927   2.427  23.401  0.00  0.00    +0.000 C 
ATOM      9  C   UNL     1      -1.706   2.600  24.338  0.00  0.00    +0.032 C 
ATOM     10  C   UNL     1      -3.712   3.743  23.296  0.00  0.00    +0.012 C 
ATOM     11  C   UNL     1      -4.215   4.233  24.667  0.00  0.00    +0.023 C 
ATOM     13  C   UNL     1      -3.126   4.177  25.718  0.00  0.00    -0.073 C 
ATOM     14  C   UNL     1      -2.005   3.452  25.548  0.00  0.00    -0.022 C 
ATOM     19  C   UNL     1      -3.332   5.011  26.953  0.00  0.00    +0.039 C 
ENDROOT
BRANCH   8  12
ATOM     12  C   UNL     1      -2.510   1.959  22.003  0.00  0.00    -0.013 C 
ATOM     17  C   UNL     1      -3.299   2.707  20.933  0.00  0.00    +0.007 C 
ATOM     18  C   UNL     1      -1.010   2.151  21.803  0.00  0.00    +0.007 C 
ENDBRANCH   8  12
BRANCH  11  15
ATOM     15  C   UNL     1      -5.451   3.446  25.115  0.00  0.00    +0.103 C 
BRANCH  15  20
ATOM      2  O   UNL     1      -4.799   2.720  27.275  0.00  0.00    -0.276 OA
ATOM      4  O   UNL     1      -4.125  -2.948  22.973  0.00  0.00    -0.276 OA
ATOM      5  N   UNL     1      -4.993   1.078  25.643  0.00  0.00    -0.298 N 
ATOM      7  N   UNL     1      -3.868  -1.298  24.586  0.00  0.00    -0.299 N 
ATOM     20  C   UNL     1      -5.052   2.389  26.113  0.00  0.00    +0.216 C 
ATOM     21  C   UNL     1      -4.609  -0.008  26.549  0.00  0.00    +0.126 C 
ATOM     22  C   UNL     1      -5.359   0.641  24.289  0.00  0.00    +0.126 C 
ATOM     23  C   UNL     1      -3.501  -0.862  25.940  0.00  0.00    +0.126 C 
ATOM     24  C   UNL     1      -4.250  -0.213  23.680  0.00  0.00    +0.126 C 
ATOM     26  C   UNL     1      -3.810  -2.609  24.116  0.00  0.00    +0.213 C 
ATOM     28  C   UNL     1      -3.334  -3.655  25.092  0.00  0.00    +0.109 C 
ENDBRANCH  15  20
ENDBRANCH  11  15
BRANCH   9  16
ATOM     16  C   UNL     1      -1.161   1.241  24.793  0.00  0.00    +0.112 C 
BRANCH  16   6
ATOM      3  O   UNL     1       0.048  -0.794  23.168  0.00  0.00    -0.270 OA
ATOM      6  N   UNL     1       0.226   1.117  24.473  0.00  0.00    -0.311 N 
ATOM     25  C   UNL     1       0.732   0.093  23.672  0.00  0.00    +0.244 C 
ATOM     34  H   UNL     1       0.840   1.865  24.778  0.00  0.00    +0.149 HD
BRANCH  25  27
ATOM      1  F   UNL     1       5.060  -2.103  23.965  0.00  0.00    -0.205 F 
ATOM     27  C   UNL     1       2.201   0.088  23.456  0.00  0.00    +0.039 A 
ATOM     29  C   UNL     1       2.956  -1.027  23.819  0.00  0.00    +0.051 A 
ATOM     30  C   UNL     1       2.827   1.200  22.892  0.00  0.00    +0.013 A 
ATOM     31  C   UNL     1       4.336  -1.032  23.616  0.00  0.00    +0.124 A 
ATOM     32  C   UNL     1       4.207   1.195  22.688  0.00  0.00    +0.004 A 
ATOM     33  C   UNL     1       4.961   0.079  23.051  0.00  0.00    +0.038 A 
ENDBRANCH  25  27
ENDBRANCH  16   6
ENDBRANCH   9  16
TORSDOF 6
ENDMDL
MODEL 8
REMARK VINA RESULT:       5.2      1.729      2.280
REMARK  Name = 38026953
REMARK  10 active torsions:
REMARK  status: ('A' for Active; 'I' for Inactive)
REMARK    1  A    between atoms: N_6  and  C_16
REMARK    2  A    between atoms: C_8  and  C_12
REMARK    3  A    between atoms: C_9  and  C_16
REMARK    4  A    between atoms: C_11  and  C_15
REMARK    5  A    between atoms: C_12  and  C_17
REMARK    6  A    between atoms: C_12  and  C_18
REMARK    7  A    between atoms: C_13  and  C_19
REMARK    8  A    between atoms: C_15  and  C_20
REMARK    9  A    between atoms: C_25  and  C_27
REMARK   10  A    between atoms: C_26  and  C_28
REMARK                            x       y       z     vdW  Elec       q    Type
REMARK                         _______ _______ _______ _____ _____    ______ ____
ROOT
ATOM      8  C   UNL     1      -1.836   1.072  25.158  0.00  0.00    +0.000 C 
ATOM      9  C   UNL     1      -0.495   0.344  24.890  0.00  0.00    +0.032 C 
ATOM     10  C   UNL     1      -2.778   0.178  25.977  0.00  0.00    +0.012 C 
ATOM     11  C   UNL     1      -3.080  -1.155  25.267  0.00  0.00    +0.023 C 
ATOM     13  C   UNL     1      -1.820  -1.808  24.736  0.00  0.00    -0.073 C 
ATOM     14  C   UNL     1      -0.671  -1.125  24.586  0.00  0.00    -0.022 C 
ATOM     19  C   UNL     1      -1.898  -3.276  24.421  0.00  0.00    +0.039 C 
ENDROOT
BRANCH   8  12
ATOM     12  C   UNL     1      -1.625   2.405  25.883  0.00  0.00    -0.013 C 
ATOM     17  C   UNL     1      -0.384   2.340  26.768  0.00  0.00    +0.007 C 
ATOM     18  C   UNL     1      -1.513   3.546  24.877  0.00  0.00    +0.007 C 
ENDBRANCH   8  12
BRANCH  11  15
ATOM     15  C   UNL     1      -4.113  -0.966  24.151  0.00  0.00    +0.103 C 
BRANCH  15  20
ATOM      2  O   UNL     1      -3.007   0.397  22.559  0.00  0.00    -0.276 OA
ATOM      4  O   UNL     1      -7.054   4.791  26.484  0.00  0.00    -0.276 OA
ATOM      5  N   UNL     1      -4.646   1.425  23.844  0.00  0.00    -0.298 N 
ATOM      7  N   UNL     1      -5.370   3.779  25.246  0.00  0.00    -0.299 N 
ATOM     20  C   UNL     1      -3.867   0.342  23.442  0.00  0.00    +0.216 C 
ATOM     21  C   UNL     1      -4.467   2.732  23.208  0.00  0.00    +0.126 C 
ATOM     22  C   UNL     1      -5.727   1.375  24.838  0.00  0.00    +0.126 C 
ATOM     23  C   UNL     1      -4.290   3.830  24.253  0.00  0.00    +0.126 C 
ATOM     24  C   UNL     1      -5.550   2.473  25.884  0.00  0.00    +0.126 C 
ATOM     26  C   UNL     1      -6.151   4.862  25.647  0.00  0.00    +0.213 C 
ATOM     28  C   UNL     1      -5.851   6.188  24.995  0.00  0.00    +0.109 C 
ENDBRANCH  15  20
ENDBRANCH  11  15
BRANCH   9  16
ATOM     16  C   UNL     1       0.279   1.013  23.750  0.00  0.00    +0.112 C 
BRANCH  16   6
ATOM      3  O   UNL     1       1.891  -0.666  22.068  0.00  0.00    -0.270 OA
ATOM      6  N   UNL     1       1.682   0.771  23.879  0.00  0.00    -0.311 N 
ATOM     25  C   UNL     1       2.391  -0.063  23.014  0.00  0.00    +0.244 C 
ATOM     34  H   UNL     1       2.182   1.306  24.581  0.00  0.00    +0.149 HD
BRANCH  25  27
ATOM      1  F   UNL     1       6.819   1.802  23.762  0.00  0.00    -0.205 F 
ATOM     27  C   UNL     1       3.839  -0.232  23.298  0.00  0.00    +0.039 A 
ATOM     29  C   UNL     1       4.665   0.886  23.399  0.00  0.00    +0.051 A 
ATOM     30  C   UNL     1       4.373  -1.511  23.464  0.00  0.00    +0.013 A 
ATOM     31  C   UNL     1       6.025   0.728  23.666  0.00  0.00    +0.124 A 
ATOM     32  C   UNL     1       5.732  -1.670  23.731  0.00  0.00    +0.004 A 
ATOM     33  C   UNL     1       6.558  -0.551  23.832  0.00  0.00    +0.038 A 
ENDBRANCH  25  27
ENDBRANCH  16   6
ENDBRANCH   9  16
TORSDOF 6
ENDMDL
