MODEL 1
REMARK VINA RESULT:      -2.1      0.000      0.000
REMARK  Name = 7662948
REMARK  7 active torsions:
REMARK  status: ('A' for Active; 'I' for Inactive)
REMARK    1  A    between atoms: S_1  and  C_22
REMARK    2  A    between atoms: S_1  and  C_28
REMARK    3  A    between atoms: O_4  and  C_30
REMARK    4  A    between atoms: C_16  and  C_21
REMARK    5  A    between atoms: C_18  and  C_22
REMARK    6  A    between atoms: C_25  and  C_29
REMARK    7  A    between atoms: C_28  and  C_30
REMARK                            x       y       z     vdW  Elec       q    Type
REMARK                         _______ _______ _______ _____ _____    ______ ____
ROOT
ATOM      2  O   UNL     1      -2.492   4.695  26.872  0.00  0.00    -0.268 OA
ATOM      3  O   UNL     1      -5.451   0.403  26.112  0.00  0.00    -0.275 OA
ATOM      6  N   UNL     1      -4.230   0.864  24.189  0.00  0.00    -0.300 N 
ATOM      7  N   UNL     1      -2.406   3.358  24.951  0.00  0.00    -0.311 N 
ATOM      9  C   UNL     1      -4.392   3.198  23.337  0.00  0.00    +0.027 C 
ATOM     10  C   UNL     1      -2.357   1.889  22.911  0.00  0.00    +0.054 C 
ATOM     11  C   UNL     1      -3.332   2.888  22.292  0.00  0.00    +0.018 C 
ATOM     12  C   UNL     1      -5.142   1.922  23.752  0.00  0.00    +0.113 C 
ATOM     13  C   UNL     1      -3.715   3.876  24.530  0.00  0.00    +0.130 C 
ATOM     14  C   UNL     1      -3.112   0.594  23.278  0.00  0.00    +0.117 C 
ATOM     15  C   UNL     1      -1.665   2.467  24.149  0.00  0.00    +0.034 A 
ATOM     16  C   UNL     1      -0.397   2.133  24.504  0.00  0.00    +0.002 A 
ATOM     17  C   UNL     1      -1.895   3.903  26.142  0.00  0.00    +0.252 A 
ATOM     18  C   UNL     1      -4.504   0.158  25.361  0.00  0.00    +0.225 C 
ATOM     19  C   UNL     1       0.162   2.672  25.729  0.00  0.00    +0.015 A 
ATOM     20  C   UNL     1      -0.524   3.493  26.523  0.00  0.00    +0.071 A 
ENDROOT
BRANCH  16  21
ATOM     21  C   UNL     1       0.426   1.216  23.684  0.00  0.00    -0.015 A 
ATOM     23  C   UNL     1       1.814   1.283  23.754  0.00  0.00    +0.027 A 
ATOM     24  C   UNL     1      -0.195   0.293  22.848  0.00  0.00    +0.008 A 
ATOM     25  C   UNL     1       2.588   0.418  22.980  0.00  0.00    +0.052 A 
ATOM     26  C   UNL     1       0.579  -0.572  22.074  0.00  0.00    +0.002 A 
ATOM     27  C   UNL     1       1.971  -0.509  22.140  0.00  0.00    +0.019 A 
BRANCH  25  29
ATOM      8  N   UNL     1       5.174   0.533  23.102  0.00  0.00    -0.191 NA
ATOM     29  C   UNL     1       4.015   0.482  23.046  0.00  0.00    +0.099 C 
ENDBRANCH  25  29
ENDBRANCH  16  21
BRANCH  18  22
ATOM     22  C   UNL     1      -3.560  -0.965  25.709  0.00  0.00    +0.165 C 
BRANCH  22   1
ATOM      1  S   UNL     1      -3.348  -1.977  24.237  0.00  0.00    -0.140 S 
BRANCH   1  28
ATOM     28  C   UNL     1      -1.722  -2.678  24.611  0.00  0.00    +0.189 C 
BRANCH  28  30
ATOM      5  O   UNL     1      -1.422  -0.762  26.042  0.00  0.00    -0.250 OA
ATOM     30  C   UNL     1      -0.927  -1.692  25.419  0.00  0.00    +0.315 C 
BRANCH  30   4
ATOM      4  O   UNL     1       0.405  -1.951  25.397  0.00  0.00    -0.480 OA
ATOM     31  H   UNL     1       0.723  -2.155  24.492  0.00  0.00    +0.295 HD
ENDBRANCH  30   4
ENDBRANCH  28  30
ENDBRANCH   1  28
ENDBRANCH  22   1
ENDBRANCH  18  22
TORSDOF 7
ENDMDL
MODEL 2
REMARK VINA RESULT:      -1.0      2.600      4.639
REMARK  Name = 7662948
REMARK  7 active torsions:
REMARK  status: ('A' for Active; 'I' for Inactive)
REMARK    1  A    between atoms: S_1  and  C_22
REMARK    2  A    between atoms: S_1  and  C_28
REMARK    3  A    between atoms: O_4  and  C_30
REMARK    4  A    between atoms: C_16  and  C_21
REMARK    5  A    between atoms: C_18  and  C_22
REMARK    6  A    between atoms: C_25  and  C_29
REMARK    7  A    between atoms: C_28  and  C_30
REMARK                            x       y       z     vdW  Elec       q    Type
REMARK                         _______ _______ _______ _____ _____    ______ ____
ROOT
ATOM      2  O   UNL     1      -3.810   4.248  21.207  0.00  0.00    -0.268 OA
ATOM      3  O   UNL     1      -0.835   5.169  25.455  0.00  0.00    -0.275 OA
ATOM      6  N   UNL     1      -2.388   3.508  25.931  0.00  0.00    -0.300 N 
ATOM      7  N   UNL     1      -3.923   3.006  23.190  0.00  0.00    -0.311 N 
ATOM      9  C   UNL     1      -4.755   4.048  25.379  0.00  0.00    +0.027 C 
ATOM     10  C   UNL     1      -4.003   1.709  25.342  0.00  0.00    +0.054 C 
ATOM     11  C   UNL     1      -5.160   2.625  25.733  0.00  0.00    +0.018 C 
ATOM     12  C   UNL     1      -3.481   4.458  26.135  0.00  0.00    +0.113 C 
ATOM     13  C   UNL     1      -4.574   4.138  23.863  0.00  0.00    +0.130 C 
ATOM     14  C   UNL     1      -2.744   2.100  26.143  0.00  0.00    +0.117 C 
ATOM     15  C   UNL     1      -3.715   1.773  23.839  0.00  0.00    +0.034 A 
ATOM     16  C   UNL     1      -3.250   0.708  23.135  0.00  0.00    +0.002 A 
ATOM     17  C   UNL     1      -3.635   3.198  21.827  0.00  0.00    +0.252 A 
ATOM     18  C   UNL     1      -1.110   3.979  25.629  0.00  0.00    +0.225 C 
ATOM     19  C   UNL     1      -2.937   0.870  21.728  0.00  0.00    +0.015 A 
ATOM     20  C   UNL     1      -3.095   2.031  21.093  0.00  0.00    +0.071 A 
ENDROOT
BRANCH  16  21
ATOM     21  C   UNL     1      -3.034  -0.611  23.770  0.00  0.00    -0.015 A 
ATOM     23  C   UNL     1      -1.772  -0.948  24.252  0.00  0.00    +0.027 A 
ATOM     24  C   UNL     1      -4.093  -1.506  23.880  0.00  0.00    +0.008 A 
ATOM     25  C   UNL     1      -1.569  -2.192  24.850  0.00  0.00    +0.052 A 
ATOM     26  C   UNL     1      -3.891  -2.750  24.478  0.00  0.00    +0.002 A 
ATOM     27  C   UNL     1      -2.629  -3.093  24.964  0.00  0.00    +0.019 A 
BRANCH  25  29
ATOM      8  N   UNL     1       0.775  -2.832  25.750  0.00  0.00    -0.191 NA
ATOM     29  C   UNL     1      -0.277  -2.545  25.347  0.00  0.00    +0.099 C 
ENDBRANCH  25  29
ENDBRANCH  16  21
BRANCH  18  22
ATOM     22  C   UNL     1      -0.020   2.945  25.505  0.00  0.00    +0.165 C 
BRANCH  22   1
ATOM      1  S   UNL     1       0.057   2.437  23.781  0.00  0.00    -0.140 S 
BRANCH   1  28
ATOM     28  C   UNL     1       0.742   0.777  24.010  0.00  0.00    +0.189 C 
BRANCH  28  30
ATOM      5  O   UNL     1       1.612  -0.246  22.009  0.00  0.00    -0.250 OA
ATOM     30  C   UNL     1       1.777   0.514  22.954  0.00  0.00    +0.315 C 
BRANCH  30   4
ATOM      4  O   UNL     1       2.917   1.224  23.150  0.00  0.00    -0.480 OA
ATOM     31  H   UNL     1       3.155   1.758  22.362  0.00  0.00    +0.295 HD
ENDBRANCH  30   4
ENDBRANCH  28  30
ENDBRANCH   1  28
ENDBRANCH  22   1
ENDBRANCH  18  22
TORSDOF 7
ENDMDL
MODEL 3
REMARK VINA RESULT:       1.3      3.248      4.898
REMARK  Name = 7662948
REMARK  7 active torsions:
REMARK  status: ('A' for Active; 'I' for Inactive)
REMARK    1  A    between atoms: S_1  and  C_22
REMARK    2  A    between atoms: S_1  and  C_28
REMARK    3  A    between atoms: O_4  and  C_30
REMARK    4  A    between atoms: C_16  and  C_21
REMARK    5  A    between atoms: C_18  and  C_22
REMARK    6  A    between atoms: C_25  and  C_29
REMARK    7  A    between atoms: C_28  and  C_30
REMARK                            x       y       z     vdW  Elec       q    Type
REMARK                         _______ _______ _______ _____ _____    ______ ____
ROOT
ATOM      2  O   UNL     1      -3.857   4.296  21.199  0.00  0.00    -0.268 OA
ATOM      3  O   UNL     1      -0.841   5.269  25.406  0.00  0.00    -0.275 OA
ATOM      6  N   UNL     1      -2.366   3.589  25.908  0.00  0.00    -0.300 N 
ATOM      7  N   UNL     1      -3.930   3.060  23.187  0.00  0.00    -0.311 N 
ATOM      9  C   UNL     1      -4.747   4.097  25.384  0.00  0.00    +0.027 C 
ATOM     10  C   UNL     1      -3.965   1.767  25.344  0.00  0.00    +0.054 C 
ATOM     11  C   UNL     1      -5.129   2.671  25.747  0.00  0.00    +0.018 C 
ATOM     12  C   UNL     1      -3.469   4.526  26.123  0.00  0.00    +0.113 C 
ATOM     13  C   UNL     1      -4.586   4.185  23.865  0.00  0.00    +0.130 C 
ATOM     14  C   UNL     1      -2.701   2.177  26.128  0.00  0.00    +0.117 C 
ATOM     15  C   UNL     1      -3.697   1.831  23.837  0.00  0.00    +0.034 A 
ATOM     16  C   UNL     1      -3.227   0.770  23.130  0.00  0.00    +0.002 A 
ATOM     17  C   UNL     1      -3.661   3.251  21.820  0.00  0.00    +0.252 A 
ATOM     18  C   UNL     1      -1.098   4.076  25.587  0.00  0.00    +0.225 C 
ATOM     19  C   UNL     1      -2.935   0.932  21.719  0.00  0.00    +0.015 A 
ATOM     20  C   UNL     1      -3.116   2.088  21.083  0.00  0.00    +0.071 A 
ENDROOT
BRANCH  16  21
ATOM     21  C   UNL     1      -2.986  -0.545  23.766  0.00  0.00    -0.015 A 
ATOM     23  C   UNL     1      -1.713  -0.867  24.225  0.00  0.00    +0.027 A 
ATOM     24  C   UNL     1      -4.035  -1.449  23.900  0.00  0.00    +0.008 A 
ATOM     25  C   UNL     1      -1.486  -2.107  24.824  0.00  0.00    +0.052 A 
ATOM     26  C   UNL     1      -3.809  -2.689  24.499  0.00  0.00    +0.002 A 
ATOM     27  C   UNL     1      -2.534  -3.017  24.961  0.00  0.00    +0.019 A 
BRANCH  25  29
ATOM      8  N   UNL     1       0.881  -2.720  25.681  0.00  0.00    -0.191 NA
ATOM     29  C   UNL     1      -0.181  -2.445  25.298  0.00  0.00    +0.099 C 
ENDBRANCH  25  29
ENDBRANCH  16  21
BRANCH  18  22
ATOM     22  C   UNL     1       0.003   3.056  25.452  0.00  0.00    +0.165 C 
BRANCH  22   1
ATOM      1  S   UNL     1       0.068   2.115  26.984  0.00  0.00    -0.140 S 
BRANCH   1  28
ATOM     28  C   UNL     1       1.467   2.955  27.767  0.00  0.00    +0.189 C 
BRANCH  28  30
ATOM      5  O   UNL     1       0.725   2.656  30.040  0.00  0.00    -0.250 OA
ATOM     30  C   UNL     1       1.592   2.495  29.191  0.00  0.00    +0.315 C 
BRANCH  30   4
ATOM      4  O   UNL     1       2.768   1.864  29.436  0.00  0.00    -0.480 OA
ATOM     31  H   UNL     1       2.634   0.998  29.877  0.00  0.00    +0.295 HD
ENDBRANCH  30   4
ENDBRANCH  28  30
ENDBRANCH   1  28
ENDBRANCH  22   1
ENDBRANCH  18  22
TORSDOF 7
ENDMDL
