MODEL 1
REMARK VINA RESULT:      -4.2      0.000      0.000
REMARK  Name = 38028161
REMARK  9 active torsions:
REMARK  status: ('A' for Active; 'I' for Inactive)
REMARK    1  A    between atoms: N_4  and  C_15
REMARK    2  A    between atoms: C_8  and  C_12
REMARK    3  A    between atoms: C_9  and  C_15
REMARK    4  A    between atoms: C_11  and  C_16
REMARK    5  A    between atoms: C_12  and  C_17
REMARK    6  A    between atoms: C_12  and  C_18
REMARK    7  A    between atoms: C_13  and  C_19
REMARK    8  A    between atoms: C_16  and  C_20
REMARK    9  A    between atoms: C_23  and  C_26
REMARK                            x       y       z     vdW  Elec       q    Type
REMARK                         _______ _______ _______ _____ _____    ______ ____
ROOT
ATOM      8  C   UNL     1      -1.606   0.405  24.976  0.00  0.00    +0.000 C 
ATOM      9  C   UNL     1      -0.957  -0.895  24.438  0.00  0.00    +0.032 C 
ATOM     10  C   UNL     1      -2.757   0.072  25.936  0.00  0.00    +0.012 C 
ATOM     11  C   UNL     1      -3.851  -0.777  25.262  0.00  0.00    +0.023 C 
ATOM     13  C   UNL     1      -3.264  -1.935  24.481  0.00  0.00    -0.073 C 
ATOM     14  C   UNL     1      -1.966  -1.977  24.134  0.00  0.00    -0.022 C 
ATOM     19  C   UNL     1      -4.195  -3.068  24.149  0.00  0.00    +0.039 C 
ENDROOT
BRANCH   8  12
ATOM     12  C   UNL     1      -0.584   1.301  25.683  0.00  0.00    -0.013 C 
ATOM     17  C   UNL     1       0.264   2.052  24.660  0.00  0.00    +0.007 C 
ATOM     18  C   UNL     1      -1.289   2.275  26.622  0.00  0.00    +0.007 C 
ENDBRANCH   8  12
BRANCH   9  15
ATOM     15  C   UNL     1      -0.115  -0.616  23.188  0.00  0.00    +0.112 C 
BRANCH  15   4
ATOM      3  O   UNL     1       2.060  -0.179  21.365  0.00  0.00    -0.270 OA
ATOM      4  N   UNL     1       1.273  -0.528  23.520  0.00  0.00    -0.311 N 
ATOM     23  C   UNL     1       2.269  -0.313  22.567  0.00  0.00    +0.247 C 
ATOM     30  H   UNL     1       1.520  -0.551  24.505  0.00  0.00    +0.149 HD
BRANCH  23  26
ATOM      6  N   UNL     1       5.510  -1.354  24.179  0.00  0.00    -0.243 NA
ATOM      7  N   UNL     1       5.740   0.905  23.377  0.00  0.00    -0.243 NA
ATOM     26  C   UNL     1       3.666  -0.276  23.071  0.00  0.00    +0.073 A 
ATOM     27  C   UNL     1       4.245  -1.354  23.709  0.00  0.00    +0.127 A 
ATOM     28  C   UNL     1       4.469   0.837  22.931  0.00  0.00    +0.127 A 
ATOM     29  C   UNL     1       6.191  -0.210  23.982  0.00  0.00    +0.221 A 
ENDBRANCH  23  26
ENDBRANCH  15   4
ENDBRANCH   9  15
BRANCH  11  16
ATOM     16  C   UNL     1      -4.749   0.087  24.370  0.00  0.00    +0.103 C 
BRANCH  16  20
ATOM      1  O   UNL     1      -6.024   1.152  26.060  0.00  0.00    -0.276 OA
ATOM      2  O   UNL     1      -3.172   4.882  24.508  0.00  0.00    -0.377 OA
ATOM      5  N   UNL     1      -4.702   2.527  24.737  0.00  0.00    -0.297 N 
ATOM     20  C   UNL     1      -5.222   1.297  25.135  0.00  0.00    +0.216 C 
ATOM     21  C   UNL     1      -5.105   3.750  25.429  0.00  0.00    +0.136 C 
ATOM     22  C   UNL     1      -3.847   2.751  23.566  0.00  0.00    +0.136 C 
ATOM     24  C   UNL     1      -3.890   4.622  25.717  0.00  0.00    +0.179 C 
ATOM     25  C   UNL     1      -2.687   3.668  23.928  0.00  0.00    +0.179 C 
ENDBRANCH  16  20
ENDBRANCH  11  16
TORSDOF 6
ENDMDL
