MODEL 1
REMARK VINA RESULT:      -5.6      0.000      0.000
REMARK  Name = 75536620
REMARK  7 active torsions:
REMARK  status: ('A' for Active; 'I' for Inactive)
REMARK    1  A    between atoms: O_2  and  C_7
REMARK    2  A    between atoms: N_4  and  C_6
REMARK    3  A    between atoms: N_4  and  C_11
REMARK    4  A    between atoms: N_5  and  C_10
REMARK    5  A    between atoms: C_8  and  C_10
REMARK    6  A    between atoms: C_11  and  C_12
REMARK    7  A    between atoms: C_13  and  C_16
REMARK                            x       y       z     vdW  Elec       q    Type
REMARK                         _______ _______ _______ _____ _____    ______ ____
ROOT
ATOM      1  O   UNL     1      -1.678  -2.491  23.831  0.00  0.00    -0.371 OA
ATOM      6  C   UNL     1      -0.027  -1.015  24.688  0.00  0.00    +0.111 C 
ATOM      7  C   UNL     1      -1.269  -0.926  25.557  0.00  0.00    +0.164 C 
ATOM      8  C   UNL     1      -1.957  -2.242  25.218  0.00  0.00    +0.165 C 
ATOM      9  C   UNL     1      -0.587  -1.645  23.425  0.00  0.00    +0.181 C 
ENDROOT
BRANCH   7   2
ATOM      2  O   UNL     1      -0.966  -0.828  26.934  0.00  0.00    -0.388 OA
ATOM     26  H   UNL     1      -0.018  -0.632  27.026  0.00  0.00    +0.210 HD
ENDBRANCH   7   2
BRANCH   6   4
ATOM      4  N   UNL     1       0.608   0.271  24.447  0.00  0.00    -0.305 NA
ATOM     25  H   UNL     1       1.505   0.118  23.986  0.00  0.00    +0.123 HD
BRANCH   4  11
ATOM     11  C   UNL     1      -0.222   1.115  23.596  0.00  0.00    +0.116 C 
BRANCH  11  12
ATOM     12  C   UNL     1      -0.635   2.382  24.296  0.00  0.00    -0.034 A 
ATOM     14  C   UNL     1      -1.226   2.322  25.558  0.00  0.00    +0.005 A 
ATOM     15  C   UNL     1      -0.428   3.617  23.682  0.00  0.00    +0.005 A 
ATOM     17  C   UNL     1      -1.608   3.496  26.207  0.00  0.00    +0.000 A 
ATOM     18  C   UNL     1      -0.810   4.791  24.330  0.00  0.00    +0.000 A 
ATOM     19  C   UNL     1      -1.401   4.731  25.593  0.00  0.00    +0.000 A 
ENDBRANCH  11  12
ENDBRANCH   4  11
ENDBRANCH   6   4
BRANCH   8  10
ATOM     10  C   UNL     1      -3.458  -2.208  25.442  0.00  0.00    +0.138 C 
BRANCH  10   5
ATOM      3  O   UNL     1      -3.932  -0.363  23.294  0.00  0.00    -0.270 OA
ATOM      5  N   UNL     1      -3.938  -0.861  25.561  0.00  0.00    -0.309 N 
ATOM     13  C   UNL     1      -4.139  -0.034  24.460  0.00  0.00    +0.244 C 
ATOM     27  H   UNL     1      -4.061  -0.503  26.502  0.00  0.00    +0.149 HD
BRANCH  13  16
ATOM     16  C   UNL     1      -4.615   1.343  24.751  0.00  0.00    +0.037 A 
ATOM     20  C   UNL     1      -5.507   1.565  25.800  0.00  0.00    +0.013 A 
ATOM     21  C   UNL     1      -4.170   2.413  23.976  0.00  0.00    +0.013 A 
ATOM     22  C   UNL     1      -5.953   2.858  26.074  0.00  0.00    +0.001 A 
ATOM     23  C   UNL     1      -4.616   3.706  24.249  0.00  0.00    +0.001 A 
ATOM     24  C   UNL     1      -5.508   3.928  25.299  0.00  0.00    +0.000 A 
ENDBRANCH  13  16
ENDBRANCH  10   5
ENDBRANCH   8  10
TORSDOF 7
ENDMDL
MODEL 2
REMARK VINA RESULT:      -5.4      2.096      5.019
REMARK  Name = 75536620
REMARK  7 active torsions:
REMARK  status: ('A' for Active; 'I' for Inactive)
REMARK    1  A    between atoms: O_2  and  C_7
REMARK    2  A    between atoms: N_4  and  C_6
REMARK    3  A    between atoms: N_4  and  C_11
REMARK    4  A    between atoms: N_5  and  C_10
REMARK    5  A    between atoms: C_8  and  C_10
REMARK    6  A    between atoms: C_11  and  C_12
REMARK    7  A    between atoms: C_13  and  C_16
REMARK                            x       y       z     vdW  Elec       q    Type
REMARK                         _______ _______ _______ _____ _____    ______ ____
ROOT
ATOM      1  O   UNL     1      -4.239   3.663  26.778  0.00  0.00    -0.371 OA
ATOM      6  C   UNL     1      -2.411   4.391  25.448  0.00  0.00    +0.111 C 
ATOM      7  C   UNL     1      -3.475   3.797  24.543  0.00  0.00    +0.164 C 
ATOM      8  C   UNL     1      -4.704   3.889  25.438  0.00  0.00    +0.165 C 
ATOM      9  C   UNL     1      -2.809   3.819  26.798  0.00  0.00    +0.181 C 
ENDROOT
BRANCH   7   2
ATOM      2  O   UNL     1      -3.640   4.524  23.343  0.00  0.00    -0.388 OA
ATOM     26  H   UNL     1      -3.251   4.009  22.616  0.00  0.00    +0.210 HD
ENDBRANCH   7   2
BRANCH   6   4
ATOM      4  N   UNL     1      -1.054   4.040  25.061  0.00  0.00    -0.305 NA
ATOM     25  H   UNL     1      -0.459   4.863  25.148  0.00  0.00    +0.123 HD
BRANCH   4  11
ATOM     11  C   UNL     1      -0.524   2.980  25.911  0.00  0.00    +0.116 C 
BRANCH  11  12
ATOM     12  C   UNL     1      -0.286   1.709  25.140  0.00  0.00    -0.034 A 
ATOM     14  C   UNL     1       0.354   1.753  23.902  0.00  0.00    +0.005 A 
ATOM     15  C   UNL     1      -0.707   0.487  25.665  0.00  0.00    +0.005 A 
ATOM     17  C   UNL     1       0.574   0.575  23.188  0.00  0.00    +0.000 A 
ATOM     18  C   UNL     1      -0.486  -0.691  24.952  0.00  0.00    +0.000 A 
ATOM     19  C   UNL     1       0.153  -0.647  23.712  0.00  0.00    +0.000 A 
ENDBRANCH  11  12
ENDBRANCH   4  11
ENDBRANCH   6   4
BRANCH   8  10
ATOM     10  C   UNL     1      -5.778   2.874  25.088  0.00  0.00    +0.138 C 
BRANCH  10   5
ATOM      3  O   UNL     1      -3.980   1.461  23.353  0.00  0.00    -0.270 OA
ATOM      5  N   UNL     1      -5.302   1.531  25.258  0.00  0.00    -0.309 N 
ATOM     13  C   UNL     1      -4.427   0.924  24.362  0.00  0.00    +0.244 C 
ATOM     27  H   UNL     1      -5.690   1.006  26.034  0.00  0.00    +0.149 HD
BRANCH  13  16
ATOM     16  C   UNL     1      -4.048  -0.480  24.666  0.00  0.00    +0.037 A 
ATOM     20  C   UNL     1      -4.069  -1.443  23.657  0.00  0.00    +0.013 A 
ATOM     21  C   UNL     1      -3.670  -0.836  25.960  0.00  0.00    +0.013 A 
ATOM     22  C   UNL     1      -3.711  -2.760  23.942  0.00  0.00    +0.001 A 
ATOM     23  C   UNL     1      -3.312  -2.154  26.246  0.00  0.00    +0.001 A 
ATOM     24  C   UNL     1      -3.333  -3.116  25.236  0.00  0.00    +0.000 A 
ENDBRANCH  13  16
ENDBRANCH  10   5
ENDBRANCH   8  10
TORSDOF 7
ENDMDL
MODEL 3
REMARK VINA RESULT:      -5.1      2.301      6.271
REMARK  Name = 75536620
REMARK  7 active torsions:
REMARK  status: ('A' for Active; 'I' for Inactive)
REMARK    1  A    between atoms: O_2  and  C_7
REMARK    2  A    between atoms: N_4  and  C_6
REMARK    3  A    between atoms: N_4  and  C_11
REMARK    4  A    between atoms: N_5  and  C_10
REMARK    5  A    between atoms: C_8  and  C_10
REMARK    6  A    between atoms: C_11  and  C_12
REMARK    7  A    between atoms: C_13  and  C_16
REMARK                            x       y       z     vdW  Elec       q    Type
REMARK                         _______ _______ _______ _____ _____    ______ ____
ROOT
ATOM      1  O   UNL     1      -3.134   4.391  23.820  0.00  0.00    -0.371 OA
ATOM      6  C   UNL     1      -4.526   3.314  25.414  0.00  0.00    +0.111 C 
ATOM      7  C   UNL     1      -3.156   3.540  26.027  0.00  0.00    +0.164 C 
ATOM      8  C   UNL     1      -2.616   4.650  25.135  0.00  0.00    +0.165 C 
ATOM      9  C   UNL     1      -4.221   3.456  23.933  0.00  0.00    +0.181 C 
ENDROOT
BRANCH   7   2
ATOM      2  O   UNL     1      -3.223   3.937  27.382  0.00  0.00    -0.388 OA
ATOM     26  H   UNL     1      -2.708   4.754  27.488  0.00  0.00    +0.210 HD
ENDBRANCH   7   2
BRANCH   6   4
ATOM      4  N   UNL     1      -5.111   2.026  25.752  0.00  0.00    -0.305 NA
ATOM     25  H   UNL     1      -6.054   2.172  26.110  0.00  0.00    +0.123 HD
BRANCH   4  11
ATOM     11  C   UNL     1      -5.179   1.158  24.582  0.00  0.00    +0.116 C 
BRANCH  11  12
ATOM     12  C   UNL     1      -4.297  -0.053  24.731  0.00  0.00    -0.034 A 
ATOM     14  C   UNL     1      -3.237  -0.038  25.638  0.00  0.00    +0.005 A 
ATOM     15  C   UNL     1      -4.539  -1.190  23.960  0.00  0.00    +0.005 A 
ATOM     17  C   UNL     1      -2.420  -1.160  25.775  0.00  0.00    +0.000 A 
ATOM     18  C   UNL     1      -3.722  -2.312  24.098  0.00  0.00    +0.000 A 
ATOM     19  C   UNL     1      -2.662  -2.297  25.005  0.00  0.00    +0.000 A 
ENDBRANCH  11  12
ENDBRANCH   4  11
ENDBRANCH   6   4
BRANCH   8  10
ATOM     10  C   UNL     1      -1.099   4.700  25.090  0.00  0.00    +0.138 C 
BRANCH  10   5
ATOM      3  O   UNL     1       0.403   2.509  26.181  0.00  0.00    -0.270 OA
ATOM      5  N   UNL     1      -0.562   3.584  24.365  0.00  0.00    -0.309 N 
ATOM     13  C   UNL     1       0.157   2.563  24.979  0.00  0.00    +0.244 C 
ATOM     27  H   UNL     1      -0.669   3.603  23.357  0.00  0.00    +0.149 HD
BRANCH  13  16
ATOM     16  C   UNL     1       0.668   1.491  24.086  0.00  0.00    +0.037 A 
ATOM     20  C   UNL     1      -0.165   0.436  23.714  0.00  0.00    +0.013 A 
ATOM     21  C   UNL     1       1.981   1.541  23.618  0.00  0.00    +0.013 A 
ATOM     22  C   UNL     1       0.314  -0.569  22.875  0.00  0.00    +0.001 A 
ATOM     23  C   UNL     1       2.461   0.535  22.779  0.00  0.00    +0.001 A 
ATOM     24  C   UNL     1       1.627  -0.520  22.407  0.00  0.00    +0.000 A 
ENDBRANCH  13  16
ENDBRANCH  10   5
ENDBRANCH   8  10
TORSDOF 7
ENDMDL
MODEL 4
REMARK VINA RESULT:      -5.0      1.992      4.930
REMARK  Name = 75536620
REMARK  7 active torsions:
REMARK  status: ('A' for Active; 'I' for Inactive)
REMARK    1  A    between atoms: O_2  and  C_7
REMARK    2  A    between atoms: N_4  and  C_6
REMARK    3  A    between atoms: N_4  and  C_11
REMARK    4  A    between atoms: N_5  and  C_10
REMARK    5  A    between atoms: C_8  and  C_10
REMARK    6  A    between atoms: C_11  and  C_12
REMARK    7  A    between atoms: C_13  and  C_16
REMARK                            x       y       z     vdW  Elec       q    Type
REMARK                         _______ _______ _______ _____ _____    ______ ____
ROOT
ATOM      1  O   UNL     1       0.299   3.240  23.500  0.00  0.00    -0.371 OA
ATOM      6  C   UNL     1      -0.751   3.862  25.537  0.00  0.00    +0.111 C 
ATOM      7  C   UNL     1      -0.381   2.392  25.601  0.00  0.00    +0.164 C 
ATOM      8  C   UNL     1       0.694   2.314  24.525  0.00  0.00    +0.165 C 
ATOM      9  C   UNL     1      -0.701   4.122  24.041  0.00  0.00    +0.181 C 
ENDROOT
BRANCH   7   2
ATOM      2  O   UNL     1       0.112   2.007  26.869  0.00  0.00    -0.388 OA
ATOM     26  H   UNL     1       0.640   2.740  27.227  0.00  0.00    +0.210 HD
ENDBRANCH   7   2
BRANCH   6   4
ATOM      4  N   UNL     1      -2.048   4.163  26.121  0.00  0.00    -0.305 NA
ATOM     25  H   UNL     1      -1.959   4.975  26.732  0.00  0.00    +0.123 HD
BRANCH   4  11
ATOM     11  C   UNL     1      -3.034   4.456  25.087  0.00  0.00    +0.116 C 
BRANCH  11  12
ATOM     12  C   UNL     1      -4.178   3.478  25.110  0.00  0.00    -0.034 A 
ATOM     14  C   UNL     1      -5.003   3.394  26.232  0.00  0.00    +0.005 A 
ATOM     15  C   UNL     1      -4.413   2.654  24.009  0.00  0.00    +0.005 A 
ATOM     17  C   UNL     1      -6.062   2.487  26.253  0.00  0.00    +0.000 A 
ATOM     18  C   UNL     1      -5.473   1.748  24.030  0.00  0.00    +0.000 A 
ATOM     19  C   UNL     1      -6.297   1.664  25.152  0.00  0.00    +0.000 A 
ENDBRANCH  11  12
ENDBRANCH   4  11
ENDBRANCH   6   4
BRANCH   8  10
ATOM     10  C   UNL     1       0.849   0.925  23.931  0.00  0.00    +0.138 C 
BRANCH  10   5
ATOM      3  O   UNL     1       0.101  -1.441  25.376  0.00  0.00    -0.270 OA
ATOM      5  N   UNL     1      -0.412   0.243  23.864  0.00  0.00    -0.309 N 
ATOM     13  C   UNL     1      -0.688  -0.903  24.604  0.00  0.00    +0.244 C 
ATOM     27  H   UNL     1      -1.084   0.594  23.191  0.00  0.00    +0.149 HD
BRANCH  13  16
ATOM     16  C   UNL     1      -2.031  -1.506  24.404  0.00  0.00    +0.037 A 
ATOM     20  C   UNL     1      -2.192  -2.890  24.463  0.00  0.00    +0.013 A 
ATOM     21  C   UNL     1      -3.133  -0.687  24.157  0.00  0.00    +0.013 A 
ATOM     22  C   UNL     1      -3.453  -3.455  24.276  0.00  0.00    +0.001 A 
ATOM     23  C   UNL     1      -4.395  -1.251  23.970  0.00  0.00    +0.001 A 
ATOM     24  C   UNL     1      -4.554  -2.636  24.029  0.00  0.00    +0.000 A 
ENDBRANCH  13  16
ENDBRANCH  10   5
ENDBRANCH   8  10
TORSDOF 7
ENDMDL
MODEL 5
REMARK VINA RESULT:      -4.8      2.357      3.469
REMARK  Name = 75536620
REMARK  7 active torsions:
REMARK  status: ('A' for Active; 'I' for Inactive)
REMARK    1  A    between atoms: O_2  and  C_7
REMARK    2  A    between atoms: N_4  and  C_6
REMARK    3  A    between atoms: N_4  and  C_11
REMARK    4  A    between atoms: N_5  and  C_10
REMARK    5  A    between atoms: C_8  and  C_10
REMARK    6  A    between atoms: C_11  and  C_12
REMARK    7  A    between atoms: C_13  and  C_16
REMARK                            x       y       z     vdW  Elec       q    Type
REMARK                         _______ _______ _______ _____ _____    ______ ____
ROOT
ATOM      1  O   UNL     1      -1.709  -2.669  23.953  0.00  0.00    -0.371 OA
ATOM      6  C   UNL     1      -0.026  -1.050  24.384  0.00  0.00    +0.111 C 
ATOM      7  C   UNL     1      -1.216  -0.780  25.287  0.00  0.00    +0.164 C 
ATOM      8  C   UNL     1      -1.909  -2.135  25.271  0.00  0.00    +0.165 C 
ATOM      9  C   UNL     1      -0.653  -1.928  23.315  0.00  0.00    +0.181 C 
ENDROOT
BRANCH   7   2
ATOM      2  O   UNL     1      -0.833  -0.397  26.594  0.00  0.00    -0.388 OA
ATOM     26  H   UNL     1      -0.883  -1.179  27.169  0.00  0.00    +0.210 HD
ENDBRANCH   7   2
BRANCH   6   4
ATOM      4  N   UNL     1       0.580   0.156  23.843  0.00  0.00    -0.305 NA
ATOM     25  H   UNL     1       1.155   0.593  24.563  0.00  0.00    +0.123 HD
BRANCH   4  11
ATOM     11  C   UNL     1       1.419  -0.150  22.690  0.00  0.00    +0.116 C 
BRANCH  11  12
ATOM     12  C   UNL     1       2.880  -0.175  23.051  0.00  0.00    -0.034 A 
ATOM     14  C   UNL     1       3.448  -1.331  23.585  0.00  0.00    +0.005 A 
ATOM     15  C   UNL     1       3.666   0.960  22.852  0.00  0.00    +0.005 A 
ATOM     17  C   UNL     1       4.802  -1.354  23.919  0.00  0.00    +0.000 A 
ATOM     18  C   UNL     1       5.020   0.938  23.186  0.00  0.00    +0.000 A 
ATOM     19  C   UNL     1       5.588  -0.219  23.721  0.00  0.00    +0.000 A 
ENDBRANCH  11  12
ENDBRANCH   4  11
ENDBRANCH   6   4
BRANCH   8  10
ATOM     10  C   UNL     1      -3.395  -2.053  25.574  0.00  0.00    +0.138 C 
BRANCH  10   5
ATOM      3  O   UNL     1      -4.046  -0.287  23.406  0.00  0.00    -0.270 OA
ATOM      5  N   UNL     1      -3.830  -0.690  25.681  0.00  0.00    -0.309 N 
ATOM     13  C   UNL     1      -4.125   0.096  24.571  0.00  0.00    +0.244 C 
ATOM     27  H   UNL     1      -3.848  -0.291  26.613  0.00  0.00    +0.149 HD
BRANCH  13  16
ATOM     16  C   UNL     1      -4.538   1.495  24.849  0.00  0.00    +0.037 A 
ATOM     20  C   UNL     1      -5.754   1.751  25.482  0.00  0.00    +0.013 A 
ATOM     21  C   UNL     1      -3.710   2.554  24.476  0.00  0.00    +0.013 A 
ATOM     22  C   UNL     1      -6.141   3.065  25.744  0.00  0.00    +0.001 A 
ATOM     23  C   UNL     1      -4.097   3.868  24.737  0.00  0.00    +0.001 A 
ATOM     24  C   UNL     1      -5.313   4.124  25.371  0.00  0.00    +0.000 A 
ENDBRANCH  13  16
ENDBRANCH  10   5
ENDBRANCH   8  10
TORSDOF 7
ENDMDL
MODEL 6
REMARK VINA RESULT:      -3.7      2.284      4.843
REMARK  Name = 75536620
REMARK  7 active torsions:
REMARK  status: ('A' for Active; 'I' for Inactive)
REMARK    1  A    between atoms: O_2  and  C_7
REMARK    2  A    between atoms: N_4  and  C_6
REMARK    3  A    between atoms: N_4  and  C_11
REMARK    4  A    between atoms: N_5  and  C_10
REMARK    5  A    between atoms: C_8  and  C_10
REMARK    6  A    between atoms: C_11  and  C_12
REMARK    7  A    between atoms: C_13  and  C_16
REMARK                            x       y       z     vdW  Elec       q    Type
REMARK                         _______ _______ _______ _____ _____    ______ ____
ROOT
ATOM      1  O   UNL     1       0.165   3.733  26.005  0.00  0.00    -0.371 OA
ATOM      6  C   UNL     1       0.418   1.703  24.799  0.00  0.00    +0.111 C 
ATOM      7  C   UNL     1      -0.651   2.546  24.129  0.00  0.00    +0.164 C 
ATOM      8  C   UNL     1      -0.309   3.931  24.663  0.00  0.00    +0.165 C 
ATOM      9  C   UNL     1       0.486   2.341  26.176  0.00  0.00    +0.181 C 
ENDROOT
BRANCH   7   2
ATOM      2  O   UNL     1      -0.583   2.493  22.718  0.00  0.00    -0.388 OA
ATOM     26  H   UNL     1      -1.114   3.223  22.358  0.00  0.00    +0.210 HD
ENDBRANCH   7   2
BRANCH   6   4
ATOM      4  N   UNL     1       0.096   0.285  24.847  0.00  0.00    -0.305 NA
ATOM     25  H   UNL     1       0.916  -0.232  25.164  0.00  0.00    +0.123 HD
BRANCH   4  11
ATOM     11  C   UNL     1      -1.007   0.028  25.765  0.00  0.00    +0.116 C 
BRANCH  11  12
ATOM     12  C   UNL     1      -2.057  -0.855  25.146  0.00  0.00    -0.034 A 
ATOM     14  C   UNL     1      -3.327  -0.346  24.876  0.00  0.00    +0.005 A 
ATOM     15  C   UNL     1      -1.759  -2.183  24.842  0.00  0.00    +0.005 A 
ATOM     17  C   UNL     1      -4.300  -1.164  24.303  0.00  0.00    +0.000 A 
ATOM     18  C   UNL     1      -2.731  -3.002  24.268  0.00  0.00    +0.000 A 
ATOM     19  C   UNL     1      -4.002  -2.493  23.998  0.00  0.00    +0.000 A 
ENDBRANCH  11  12
ENDBRANCH   4  11
ENDBRANCH   6   4
BRANCH   8  10
ATOM     10  C   UNL     1      -1.494   4.881  24.671  0.00  0.00    +0.138 C 
BRANCH  10   5
ATOM      3  O   UNL     1      -2.965   3.898  26.932  0.00  0.00    -0.270 OA
ATOM      5  N   UNL     1      -2.736   4.164  24.638  0.00  0.00    -0.309 N 
ATOM     13  C   UNL     1      -3.382   3.723  25.790  0.00  0.00    +0.244 C 
ATOM     27  H   UNL     1      -3.099   3.924  23.722  0.00  0.00    +0.149 HD
BRANCH  13  16
ATOM     16  C   UNL     1      -4.648   2.973  25.586  0.00  0.00    +0.037 A 
ATOM     20  C   UNL     1      -5.007   2.543  24.309  0.00  0.00    +0.013 A 
ATOM     21  C   UNL     1      -5.478   2.699  26.673  0.00  0.00    +0.013 A 
ATOM     22  C   UNL     1      -6.195   1.838  24.119  0.00  0.00    +0.001 A 
ATOM     23  C   UNL     1      -6.666   1.995  26.483  0.00  0.00    +0.001 A 
ATOM     24  C   UNL     1      -7.025   1.564  25.205  0.00  0.00    +0.000 A 
ENDBRANCH  13  16
ENDBRANCH  10   5
ENDBRANCH   8  10
TORSDOF 7
ENDMDL
MODEL 7
REMARK VINA RESULT:      -3.0      1.971      5.065
REMARK  Name = 75536620
REMARK  7 active torsions:
REMARK  status: ('A' for Active; 'I' for Inactive)
REMARK    1  A    between atoms: O_2  and  C_7
REMARK    2  A    between atoms: N_4  and  C_6
REMARK    3  A    between atoms: N_4  and  C_11
REMARK    4  A    between atoms: N_5  and  C_10
REMARK    5  A    between atoms: C_8  and  C_10
REMARK    6  A    between atoms: C_11  and  C_12
REMARK    7  A    between atoms: C_13  and  C_16
REMARK                            x       y       z     vdW  Elec       q    Type
REMARK                         _______ _______ _______ _____ _____    ______ ____
ROOT
ATOM      1  O   UNL     1      -6.152   3.049  26.003  0.00  0.00    -0.371 OA
ATOM      6  C   UNL     1      -4.556   4.200  24.673  0.00  0.00    +0.111 C 
ATOM      7  C   UNL     1      -4.491   2.718  24.352  0.00  0.00    +0.164 C 
ATOM      8  C   UNL     1      -5.854   2.252  24.846  0.00  0.00    +0.165 C 
ATOM      9  C   UNL     1      -5.271   4.187  26.013  0.00  0.00    +0.181 C 
ENDROOT
BRANCH   7   2
ATOM      2  O   UNL     1      -4.314   2.466  22.972  0.00  0.00    -0.388 OA
ATOM     26  H   UNL     1      -3.414   2.737  22.724  0.00  0.00    +0.210 HD
ENDBRANCH   7   2
BRANCH   6   4
ATOM      4  N   UNL     1      -3.252   4.841  24.733  0.00  0.00    -0.305 NA
ATOM     25  H   UNL     1      -3.379   5.848  24.834  0.00  0.00    +0.123 HD
BRANCH   4  11
ATOM     11  C   UNL     1      -2.476   4.348  25.865  0.00  0.00    +0.116 C 
BRANCH  11  12
ATOM     12  C   UNL     1      -1.364   3.433  25.426  0.00  0.00    -0.034 A 
ATOM     14  C   UNL     1      -1.235   3.085  24.082  0.00  0.00    +0.005 A 
ATOM     15  C   UNL     1      -0.461   2.933  26.365  0.00  0.00    +0.005 A 
ATOM     17  C   UNL     1      -0.205   2.238  23.675  0.00  0.00    +0.000 A 
ATOM     18  C   UNL     1       0.570   2.086  25.959  0.00  0.00    +0.000 A 
ATOM     19  C   UNL     1       0.698   1.738  24.614  0.00  0.00    +0.000 A 
ENDBRANCH  11  12
ENDBRANCH   4  11
ENDBRANCH   6   4
BRANCH   8  10
ATOM     10  C   UNL     1      -5.887   0.779  25.213  0.00  0.00    +0.138 C 
BRANCH  10   5
ATOM      3  O   UNL     1      -4.820  -1.502  23.834  0.00  0.00    -0.270 OA
ATOM      5  N   UNL     1      -4.562   0.244  25.341  0.00  0.00    -0.309 N 
ATOM     13  C   UNL     1      -4.128  -0.871  24.630  0.00  0.00    +0.244 C 
ATOM     27  H   UNL     1      -3.962   0.675  26.036  0.00  0.00    +0.149 HD
BRANCH  13  16
ATOM     16  C   UNL     1      -2.736  -1.317  24.893  0.00  0.00    +0.037 A 
ATOM     20  C   UNL     1      -2.211  -2.411  24.205  0.00  0.00    +0.013 A 
ATOM     21  C   UNL     1      -1.953  -0.641  25.828  0.00  0.00    +0.013 A 
ATOM     22  C   UNL     1      -0.904  -2.828  24.451  0.00  0.00    +0.001 A 
ATOM     23  C   UNL     1      -0.645  -1.058  26.075  0.00  0.00    +0.001 A 
ATOM     24  C   UNL     1      -0.120  -2.152  25.386  0.00  0.00    +0.000 A 
ENDBRANCH  13  16
ENDBRANCH  10   5
ENDBRANCH   8  10
TORSDOF 7
ENDMDL
MODEL 8
REMARK VINA RESULT:      -2.8      2.206      3.793
REMARK  Name = 75536620
REMARK  7 active torsions:
REMARK  status: ('A' for Active; 'I' for Inactive)
REMARK    1  A    between atoms: O_2  and  C_7
REMARK    2  A    between atoms: N_4  and  C_6
REMARK    3  A    between atoms: N_4  and  C_11
REMARK    4  A    between atoms: N_5  and  C_10
REMARK    5  A    between atoms: C_8  and  C_10
REMARK    6  A    between atoms: C_11  and  C_12
REMARK    7  A    between atoms: C_13  and  C_16
REMARK                            x       y       z     vdW  Elec       q    Type
REMARK                         _______ _______ _______ _____ _____    ______ ____
ROOT
ATOM      1  O   UNL     1      -2.983  -2.218  24.170  0.00  0.00    -0.371 OA
ATOM      6  C   UNL     1      -0.819  -2.074  25.138  0.00  0.00    +0.111 C 
ATOM      7  C   UNL     1      -1.654  -0.902  25.618  0.00  0.00    +0.164 C 
ATOM      8  C   UNL     1      -3.063  -1.422  25.363  0.00  0.00    +0.165 C 
ATOM      9  C   UNL     1      -1.600  -2.519  23.913  0.00  0.00    +0.181 C 
ENDROOT
BRANCH   7   2
ATOM      2  O   UNL     1      -1.441  -0.603  26.983  0.00  0.00    -0.388 OA
ATOM     26  H   UNL     1      -1.581  -1.414  27.500  0.00  0.00    +0.210 HD
ENDBRANCH   7   2
BRANCH   6   4
ATOM      4  N   UNL     1       0.559  -1.723  24.835  0.00  0.00    -0.305 NA
ATOM     25  H   UNL     1       1.061  -2.562  24.544  0.00  0.00    +0.123 HD
BRANCH   4  11
ATOM     11  C   UNL     1       0.626  -0.737  23.763  0.00  0.00    +0.116 C 
BRANCH  11  12
ATOM     12  C   UNL     1       2.043  -0.324  23.468  0.00  0.00    -0.034 A 
ATOM     14  C   UNL     1       3.093  -1.210  23.711  0.00  0.00    +0.005 A 
ATOM     15  C   UNL     1       2.307   0.945  22.952  0.00  0.00    +0.005 A 
ATOM     17  C   UNL     1       4.406  -0.827  23.438  0.00  0.00    +0.000 A 
ATOM     18  C   UNL     1       3.619   1.328  22.679  0.00  0.00    +0.000 A 
ATOM     19  C   UNL     1       4.670   0.442  22.922  0.00  0.00    +0.000 A 
ENDBRANCH  11  12
ENDBRANCH   4  11
ENDBRANCH   6   4
BRANCH   8  10
ATOM     10  C   UNL     1      -4.086  -0.316  25.177  0.00  0.00    +0.138 C 
BRANCH  10   5
ATOM      3  O   UNL     1      -2.899   1.218  23.060  0.00  0.00    -0.270 OA
ATOM      5  N   UNL     1      -3.481   0.980  25.294  0.00  0.00    -0.309 N 
ATOM     13  C   UNL     1      -2.927   1.652  24.209  0.00  0.00    +0.244 C 
ATOM     27  H   UNL     1      -3.407   1.364  26.229  0.00  0.00    +0.149 HD
BRANCH  13  16
ATOM     16  C   UNL     1      -2.315   2.975  24.499  0.00  0.00    +0.037 A 
ATOM     20  C   UNL     1      -3.087   3.993  25.060  0.00  0.00    +0.013 A 
ATOM     21  C   UNL     1      -0.969   3.198  24.211  0.00  0.00    +0.013 A 
ATOM     22  C   UNL     1      -2.512   5.233  25.334  0.00  0.00    +0.001 A 
ATOM     23  C   UNL     1      -0.394   4.440  24.484  0.00  0.00    +0.001 A 
ATOM     24  C   UNL     1      -1.166   5.457  25.046  0.00  0.00    +0.000 A 
ENDBRANCH  13  16
ENDBRANCH  10   5
ENDBRANCH   8  10
TORSDOF 7
ENDMDL
MODEL 9
REMARK VINA RESULT:      -2.7      1.937      5.134
REMARK  Name = 75536620
REMARK  7 active torsions:
REMARK  status: ('A' for Active; 'I' for Inactive)
REMARK    1  A    between atoms: O_2  and  C_7
REMARK    2  A    between atoms: N_4  and  C_6
REMARK    3  A    between atoms: N_4  and  C_11
REMARK    4  A    between atoms: N_5  and  C_10
REMARK    5  A    between atoms: C_8  and  C_10
REMARK    6  A    between atoms: C_11  and  C_12
REMARK    7  A    between atoms: C_13  and  C_16
REMARK                            x       y       z     vdW  Elec       q    Type
REMARK                         _______ _______ _______ _____ _____    ______ ____
ROOT
ATOM      1  O   UNL     1      -5.378   0.254  25.372  0.00  0.00    -0.371 OA
ATOM      6  C   UNL     1      -5.094   2.475  24.580  0.00  0.00    +0.111 C 
ATOM      7  C   UNL     1      -3.827   1.687  24.304  0.00  0.00    +0.164 C 
ATOM      8  C   UNL     1      -4.353   0.258  24.365  0.00  0.00    +0.165 C 
ATOM      9  C   UNL     1      -5.760   1.615  25.640  0.00  0.00    +0.181 C 
ENDROOT
BRANCH   7   2
ATOM      2  O   UNL     1      -3.260   1.988  23.045  0.00  0.00    -0.388 OA
ATOM     26  H   UNL     1      -2.304   2.112  23.162  0.00  0.00    +0.210 HD
ENDBRANCH   7   2
BRANCH   6   4
ATOM      4  N   UNL     1      -4.847   3.836  25.028  0.00  0.00    -0.305 NA
ATOM     25  H   UNL     1      -5.736   4.274  25.270  0.00  0.00    +0.123 HD
BRANCH   4  11
ATOM     11  C   UNL     1      -3.979   3.854  26.200  0.00  0.00    +0.116 C 
BRANCH  11  12
ATOM     12  C   UNL     1      -2.525   3.929  25.818  0.00  0.00    -0.034 A 
ATOM     14  C   UNL     1      -1.649   2.913  26.199  0.00  0.00    +0.005 A 
ATOM     15  C   UNL     1      -2.053   5.017  25.083  0.00  0.00    +0.005 A 
ATOM     17  C   UNL     1      -0.302   2.983  25.845  0.00  0.00    +0.000 A 
ATOM     18  C   UNL     1      -0.706   5.087  24.728  0.00  0.00    +0.000 A 
ATOM     19  C   UNL     1       0.170   4.070  25.110  0.00  0.00    +0.000 A 
ENDBRANCH  11  12
ENDBRANCH   4  11
ENDBRANCH   6   4
BRANCH   8  10
ATOM     10  C   UNL     1      -3.283  -0.760  24.716  0.00  0.00    +0.138 C 
BRANCH  10   5
ATOM      3  O   UNL     1      -0.638  -0.538  25.810  0.00  0.00    -0.270 OA
ATOM      5  N   UNL     1      -2.072  -0.516  23.986  0.00  0.00    -0.309 N 
ATOM     13  C   UNL     1      -0.827  -0.423  24.602  0.00  0.00    +0.244 C 
ATOM     27  H   UNL     1      -2.167  -0.341  22.992  0.00  0.00    +0.149 HD
BRANCH  13  16
ATOM     16  C   UNL     1       0.327  -0.141  23.710  0.00  0.00    +0.037 A 
ATOM     20  C   UNL     1       0.473  -0.844  22.514  0.00  0.00    +0.013 A 
ATOM     21  C   UNL     1       1.265   0.826  24.069  0.00  0.00    +0.013 A 
ATOM     22  C   UNL     1       1.556  -0.579  21.677  0.00  0.00    +0.001 A 
ATOM     23  C   UNL     1       2.349   1.091  23.232  0.00  0.00    +0.001 A 
ATOM     24  C   UNL     1       2.494   0.389  22.036  0.00  0.00    +0.000 A 
ENDBRANCH  13  16
ENDBRANCH  10   5
ENDBRANCH   8  10
TORSDOF 7
ENDMDL
MODEL 10
REMARK VINA RESULT:      -2.1      1.480      2.118
REMARK  Name = 75536620
REMARK  7 active torsions:
REMARK  status: ('A' for Active; 'I' for Inactive)
REMARK    1  A    between atoms: O_2  and  C_7
REMARK    2  A    between atoms: N_4  and  C_6
REMARK    3  A    between atoms: N_4  and  C_11
REMARK    4  A    between atoms: N_5  and  C_10
REMARK    5  A    between atoms: C_8  and  C_10
REMARK    6  A    between atoms: C_11  and  C_12
REMARK    7  A    between atoms: C_13  and  C_16
REMARK                            x       y       z     vdW  Elec       q    Type
REMARK                         _______ _______ _______ _____ _____    ______ ____
ROOT
ATOM      1  O   UNL     1      -0.014  -1.286  22.977  0.00  0.00    -0.371 OA
ATOM      6  C   UNL     1       0.698   0.501  24.370  0.00  0.00    +0.111 C 
ATOM      7  C   UNL     1      -0.573  -0.097  24.944  0.00  0.00    +0.164 C 
ATOM      8  C   UNL     1      -0.572  -1.472  24.287  0.00  0.00    +0.165 C 
ATOM      9  C   UNL     1       0.654  -0.013  22.941  0.00  0.00    +0.181 C 
ENDROOT
BRANCH   7   2
ATOM      2  O   UNL     1      -0.546  -0.186  26.354  0.00  0.00    -0.388 OA
ATOM     26  H   UNL     1      -0.075  -0.999  26.601  0.00  0.00    +0.210 HD
ENDBRANCH   7   2
BRANCH   6   4
ATOM      4  N   UNL     1       0.747   1.952  24.450  0.00  0.00    -0.305 NA
ATOM     25  H   UNL     1       0.402   2.346  23.575  0.00  0.00    +0.123 HD
BRANCH   4  11
ATOM     11  C   UNL     1      -0.077   2.445  25.547  0.00  0.00    +0.116 C 
BRANCH  11  12
ATOM     12  C   UNL     1      -1.390   2.996  25.058  0.00  0.00    -0.034 A 
ATOM     14  C   UNL     1      -1.951   2.517  23.875  0.00  0.00    +0.005 A 
ATOM     15  C   UNL     1      -2.045   3.988  25.789  0.00  0.00    +0.005 A 
ATOM     17  C   UNL     1      -3.168   3.028  23.423  0.00  0.00    +0.000 A 
ATOM     18  C   UNL     1      -3.261   4.499  25.337  0.00  0.00    +0.000 A 
ATOM     19  C   UNL     1      -3.822   4.020  24.153  0.00  0.00    +0.000 A 
ENDBRANCH  11  12
ENDBRANCH   4  11
ENDBRANCH   6   4
BRANCH   8  10
ATOM     10  C   UNL     1      -1.957  -2.084  24.175  0.00  0.00    +0.138 C 
BRANCH  10   5
ATOM      3  O   UNL     1      -3.419  -1.317  26.524  0.00  0.00    -0.270 OA
ATOM      5  N   UNL     1      -2.979  -1.080  24.258  0.00  0.00    -0.309 N 
ATOM     13  C   UNL     1      -3.638  -0.773  25.444  0.00  0.00    +0.244 C 
ATOM     27  H   UNL     1      -3.258  -0.643  23.386  0.00  0.00    +0.149 HD
BRANCH  13  16
ATOM     16  C   UNL     1      -4.689   0.273  25.359  0.00  0.00    +0.037 A 
ATOM     20  C   UNL     1      -4.815   1.221  26.375  0.00  0.00    +0.013 A 
ATOM     21  C   UNL     1      -5.551   0.308  24.264  0.00  0.00    +0.013 A 
ATOM     22  C   UNL     1      -5.801   2.203  26.294  0.00  0.00    +0.001 A 
ATOM     23  C   UNL     1      -6.538   1.290  24.183  0.00  0.00    +0.001 A 
ATOM     24  C   UNL     1      -6.663   2.238  25.199  0.00  0.00    +0.000 A 
ENDBRANCH  13  16
ENDBRANCH  10   5
ENDBRANCH   8  10
TORSDOF 7
ENDMDL
