MODEL 1
REMARK VINA RESULT:       8.3      0.000      0.000
REMARK  Name = 44716689
REMARK  14 active torsions:
REMARK  status: ('A' for Active; 'I' for Inactive)
REMARK    1  A    between atoms: O_2  and  C_10
REMARK    2  A    between atoms: N_6  and  C_24
REMARK    3  A    between atoms: N_6  and  C_25
REMARK    4  A    between atoms: C_8  and  C_16
REMARK    5  A    between atoms: C_11  and  C_17
REMARK    6  A    between atoms: C_13  and  C_20
REMARK    7  A    between atoms: C_17  and  C_21
REMARK    8  A    between atoms: C_17  and  C_22
REMARK    9  A    between atoms: C_24  and  C_28
REMARK   10  A    between atoms: C_26  and  C_27
REMARK   11  A    between atoms: C_27  and  C_29
REMARK   12  A    between atoms: C_29  and  C_30
REMARK   13  A    between atoms: C_29  and  C_31
REMARK   14  A    between atoms: C_29  and  C_32
REMARK                            x       y       z     vdW  Elec       q    Type
REMARK                         _______ _______ _______ _____ _____    ______ ____
ROOT
ATOM      1  S   UNL     1       1.156  -1.820  23.741  0.00  0.00    -0.057 S 
ATOM      4  O   UNL     1       3.807   1.775  22.329  0.00  0.00    -0.275 OA
ATOM      5  N   UNL     1       1.130   0.716  23.236  0.00  0.00    -0.229 NA
ATOM      7  N   UNL     1       3.225  -0.434  22.920  0.00  0.00    -0.265 N 
ATOM      8  C   UNL     1      -2.536  -0.518  25.002  0.00  0.00    -0.022 C 
ATOM      9  C   UNL     1      -2.649   0.674  23.970  0.00  0.00    +0.033 C 
ATOM     10  C   UNL     1      -3.783   1.661  24.367  0.00  0.00    +0.123 C 
ATOM     11  C   UNL     1      -5.132   0.951  24.616  0.00  0.00    +0.029 C 
ATOM     12  C   UNL     1      -3.919  -1.187  25.177  0.00  0.00    +0.008 C 
ATOM     13  C   UNL     1      -1.253   1.382  23.729  0.00  0.00    +0.042 C 
ATOM     14  C   UNL     1      -5.007  -0.211  25.602  0.00  0.00    +0.007 C 
ATOM     15  C   UNL     1      -1.559  -1.603  24.450  0.00  0.00    +0.051 C 
ATOM     16  C   UNL     1      -2.026  -0.042  26.387  0.00  0.00    +0.012 C 
ATOM     18  C   UNL     1      -0.149   0.357  23.625  0.00  0.00    +0.057 A 
ATOM     19  C   UNL     1      -0.303  -0.972  23.961  0.00  0.00    +0.015 A 
ATOM     20  C   UNL     1      -1.240   2.291  22.490  0.00  0.00    +0.014 C 
ATOM     23  C   UNL     1       1.897  -0.352  23.249  0.00  0.00    +0.165 A 
ATOM     26  C   UNL     1       4.101   0.593  22.488  0.00  0.00    +0.219 C 
ATOM     35  H   UNL     1       3.614  -1.369  23.002  0.00  0.00    +0.157 HD
ENDROOT
BRANCH  10   2
ATOM      2  O   UNL     1      -3.986   2.598  23.310  0.00  0.00    -0.391 OA
ATOM     34  H   UNL     1      -4.712   2.269  22.752  0.00  0.00    +0.210 HD
ENDBRANCH  10   2
BRANCH  11  17
ATOM     17  C   UNL     1      -6.207   1.928  25.108  0.00  0.00    +0.078 C 
ATOM     21  C   UNL     1      -6.384   3.050  24.084  0.00  0.00    +0.017 C 
BRANCH  17  22
ATOM      3  O   UNL     1      -6.445   2.149  27.480  0.00  0.00    -0.275 OA
ATOM      6  N   UNL     1      -4.742   3.391  26.527  0.00  0.00    -0.301 N 
ATOM     22  C   UNL     1      -5.810   2.489  26.476  0.00  0.00    +0.219 C 
ATOM     25  C   UNL     1      -4.353   3.961  27.812  0.00  0.00    +0.132 C 
BRANCH   6  24
ATOM     24  C   UNL     1      -3.919   3.817  25.396  0.00  0.00    +0.134 C 
BRANCH  24  28
ATOM     28  C   UNL     1      -2.590   4.269  25.904  0.00  0.00    -0.016 C 
ATOM     33  C   UNL     1      -1.652   4.835  25.137  0.00  0.00    +0.005 C 
ENDBRANCH  24  28
ENDBRANCH   6  24
ENDBRANCH  17  22
ENDBRANCH  11  17
BRANCH  26  27
ATOM     27  C   UNL     1       5.522   0.110  22.223  0.00  0.00    +0.102 C 
BRANCH  27  29
ATOM     29  C   UNL     1       6.288  -0.364  23.482  0.00  0.00    -0.029 C 
ATOM     30  C   UNL     1       5.810  -1.755  23.930  0.00  0.00    +0.011 C 
ATOM     31  C   UNL     1       7.805  -0.403  23.238  0.00  0.00    +0.011 C 
ATOM     32  C   UNL     1       6.003   0.638  24.618  0.00  0.00    +0.011 C 
ENDBRANCH  27  29
ENDBRANCH  26  27
TORSDOF 7
ENDMDL
MODEL 2
REMARK VINA RESULT:       9.7      0.970      1.051
REMARK  Name = 44716689
REMARK  14 active torsions:
REMARK  status: ('A' for Active; 'I' for Inactive)
REMARK    1  A    between atoms: O_2  and  C_10
REMARK    2  A    between atoms: N_6  and  C_24
REMARK    3  A    between atoms: N_6  and  C_25
REMARK    4  A    between atoms: C_8  and  C_16
REMARK    5  A    between atoms: C_11  and  C_17
REMARK    6  A    between atoms: C_13  and  C_20
REMARK    7  A    between atoms: C_17  and  C_21
REMARK    8  A    between atoms: C_17  and  C_22
REMARK    9  A    between atoms: C_24  and  C_28
REMARK   10  A    between atoms: C_26  and  C_27
REMARK   11  A    between atoms: C_27  and  C_29
REMARK   12  A    between atoms: C_29  and  C_30
REMARK   13  A    between atoms: C_29  and  C_31
REMARK   14  A    between atoms: C_29  and  C_32
REMARK                            x       y       z     vdW  Elec       q    Type
REMARK                         _______ _______ _______ _____ _____    ______ ____
ROOT
ATOM      1  S   UNL     1       1.029  -1.714  23.561  0.00  0.00    -0.057 S 
ATOM      4  O   UNL     1       3.863   1.855  22.476  0.00  0.00    -0.275 OA
ATOM      5  N   UNL     1       1.140   0.858  23.315  0.00  0.00    -0.229 NA
ATOM      7  N   UNL     1       3.163  -0.367  22.850  0.00  0.00    -0.265 N 
ATOM      8  C   UNL     1      -2.570  -0.345  25.006  0.00  0.00    -0.022 C 
ATOM      9  C   UNL     1      -2.627   0.949  24.102  0.00  0.00    +0.033 C 
ATOM     10  C   UNL     1      -3.700   1.952  24.614  0.00  0.00    +0.123 C 
ATOM     11  C   UNL     1      -5.083   1.297  24.813  0.00  0.00    +0.029 C 
ATOM     12  C   UNL     1      -3.987  -0.952  25.136  0.00  0.00    +0.008 C 
ATOM     13  C   UNL     1      -1.196   1.601  23.910  0.00  0.00    +0.042 C 
ATOM     14  C   UNL     1      -5.014   0.035  25.675  0.00  0.00    +0.007 C 
ATOM     15  C   UNL     1      -1.662  -1.420  24.332  0.00  0.00    +0.051 C 
ATOM     16  C   UNL     1      -2.020  -0.041  26.424  0.00  0.00    +0.012 C 
ATOM     18  C   UNL     1      -0.153   0.532  23.686  0.00  0.00    +0.057 A 
ATOM     19  C   UNL     1      -0.378  -0.814  23.889  0.00  0.00    +0.015 A 
ATOM     20  C   UNL     1      -1.145   2.628  22.770  0.00  0.00    +0.014 C 
ATOM     23  C   UNL     1       1.846  -0.247  23.207  0.00  0.00    +0.165 A 
ATOM     26  C   UNL     1       4.091   0.648  22.509  0.00  0.00    +0.219 C 
ATOM     35  H   UNL     1       3.500  -1.326  22.831  0.00  0.00    +0.157 HD
ENDROOT
BRANCH  10   2
ATOM      2  O   UNL     1      -3.861   3.001  23.661  0.00  0.00    -0.391 OA
ATOM     34  H   UNL     1      -4.654   3.509  23.904  0.00  0.00    +0.210 HD
ENDBRANCH  10   2
BRANCH  11  17
ATOM     17  C   UNL     1      -6.096   2.276  25.418  0.00  0.00    +0.078 C 
ATOM     21  C   UNL     1      -7.435   2.140  24.691  0.00  0.00    +0.017 C 
BRANCH  17  22
ATOM      3  O   UNL     1      -6.168   4.538  24.636  0.00  0.00    -0.275 OA
ATOM      6  N   UNL     1      -4.373   4.006  25.995  0.00  0.00    -0.301 N 
ATOM     22  C   UNL     1      -5.559   3.705  25.317  0.00  0.00    +0.219 C 
ATOM     25  C   UNL     1      -3.822   5.354  25.901  0.00  0.00    +0.132 C 
BRANCH   6  24
ATOM     24  C   UNL     1      -3.612   3.095  26.847  0.00  0.00    +0.134 C 
BRANCH  24  28
ATOM     28  C   UNL     1      -2.253   3.666  27.080  0.00  0.00    -0.016 C 
ATOM     33  C   UNL     1      -1.154   3.266  26.430  0.00  0.00    +0.005 C 
ENDBRANCH  24  28
ENDBRANCH   6  24
ENDBRANCH  17  22
ENDBRANCH  11  17
BRANCH  26  27
ATOM     27  C   UNL     1       5.480   0.117  22.174  0.00  0.00    +0.102 C 
BRANCH  27  29
ATOM     29  C   UNL     1       6.289  -0.389  23.392  0.00  0.00    -0.029 C 
ATOM     30  C   UNL     1       5.777  -1.760  23.867  0.00  0.00    +0.011 C 
ATOM     31  C   UNL     1       7.789  -0.491  23.072  0.00  0.00    +0.011 C 
ATOM     32  C   UNL     1       6.104   0.623  24.540  0.00  0.00    +0.011 C 
ENDBRANCH  27  29
ENDBRANCH  26  27
TORSDOF 7
ENDMDL
