MODEL 1
REMARK VINA RESULT:      -3.3      0.000      0.000
REMARK  Name = 26744570
REMARK  5 active torsions:
REMARK  status: ('A' for Active; 'I' for Inactive)
REMARK    1  A    between atoms: O_3  and  C_14
REMARK    2  A    between atoms: N_5  and  C_8
REMARK    3  A    between atoms: C_9  and  C_18
REMARK    4  A    between atoms: C_19  and  C_20
REMARK    5  A    between atoms: C_20  and  C_21
REMARK                            x       y       z     vdW  Elec       q    Type
REMARK                         _______ _______ _______ _____ _____    ______ ____
ROOT
ATOM      4  O   UNL     1      -0.462   1.025  24.735  0.00  0.00    -0.336 OA
ATOM      6  N   UNL     1      -0.204  -0.664  23.287  0.00  0.00    -0.194 NA
ATOM      7  N   UNL     1       0.729   1.283  24.045  0.00  0.00    -0.061 NA
ATOM     18  C   UNL     1      -0.947  -0.139  24.229  0.00  0.00    +0.245 A 
ATOM     19  C   UNL     1       0.811   0.242  23.209  0.00  0.00    +0.176 A 
ENDROOT
BRANCH  18   9
ATOM      5  N   UNL     1      -3.430   0.047  24.257  0.00  0.00    -0.286 NA
ATOM      9  C   UNL     1      -2.249  -0.642  24.817  0.00  0.00    +0.149 C 
ATOM     10  C   UNL     1      -4.531  -0.912  24.311  0.00  0.00    +0.116 C 
ATOM     13  C   UNL     1      -2.493  -2.136  24.534  0.00  0.00    +0.061 C 
ATOM     14  C   UNL     1      -3.855  -2.191  23.854  0.00  0.00    +0.130 C 
BRANCH   5   8
ATOM      8  C   UNL     1      -3.751   1.294  24.948  0.00  0.00    +0.058 C 
ATOM     11  C   UNL     1      -3.415   2.489  24.050  0.00  0.00    +0.019 C 
ATOM     12  C   UNL     1      -5.230   1.301  25.349  0.00  0.00    +0.019 C 
ATOM     15  C   UNL     1      -3.809   3.810  24.711  0.00  0.00    +0.002 C 
ATOM     16  C   UNL     1      -5.622   2.623  26.007  0.00  0.00    +0.002 C 
ATOM     17  C   UNL     1      -5.279   3.817  25.122  0.00  0.00    +0.000 C 
ENDBRANCH   5   8
BRANCH  14   3
ATOM      3  O   UNL     1      -4.573  -3.339  24.262  0.00  0.00    -0.390 OA
ATOM     27  H   UNL     1      -5.008  -3.127  25.105  0.00  0.00    +0.210 HD
ENDBRANCH  14   3
ENDBRANCH  18   9
BRANCH  19  20
ATOM     20  C   UNL     1       1.926   0.090  22.268  0.00  0.00    +0.116 C 
BRANCH  20  21
ATOM      1 CL   UNL     1       3.974   2.414  22.320  0.00  0.00    -0.083 Cl
ATOM      2  F   UNL     1       6.925  -0.925  24.707  0.00  0.00    -0.205 F 
ATOM     21  C   UNL     1       3.284  -0.154  22.919  0.00  0.00    -0.021 A 
ATOM     22  C   UNL     1       4.257   0.844  22.979  0.00  0.00    +0.047 A 
ATOM     23  C   UNL     1       3.541  -1.412  23.463  0.00  0.00    +0.008 A 
ATOM     24  C   UNL     1       5.486   0.584  23.584  0.00  0.00    +0.058 A 
ATOM     25  C   UNL     1       4.771  -1.672  24.067  0.00  0.00    +0.039 A 
ATOM     26  C   UNL     1       5.744  -0.675  24.128  0.00  0.00    +0.125 A 
ENDBRANCH  20  21
ENDBRANCH  19  20
TORSDOF 5
ENDMDL
MODEL 2
REMARK VINA RESULT:      -3.0      4.082      7.362
REMARK  Name = 26744570
REMARK  5 active torsions:
REMARK  status: ('A' for Active; 'I' for Inactive)
REMARK    1  A    between atoms: O_3  and  C_14
REMARK    2  A    between atoms: N_5  and  C_8
REMARK    3  A    between atoms: C_9  and  C_18
REMARK    4  A    between atoms: C_19  and  C_20
REMARK    5  A    between atoms: C_20  and  C_21
REMARK                            x       y       z     vdW  Elec       q    Type
REMARK                         _______ _______ _______ _____ _____    ______ ____
ROOT
ATOM      4  O   UNL     1       0.564   3.536  24.089  0.00  0.00    -0.336 OA
ATOM      6  N   UNL     1      -1.281   2.583  24.925  0.00  0.00    -0.194 NA
ATOM      7  N   UNL     1      -0.357   4.574  24.279  0.00  0.00    -0.061 NA
ATOM     18  C   UNL     1      -0.059   2.399  24.493  0.00  0.00    +0.245 A 
ATOM     19  C   UNL     1      -1.420   3.931  24.776  0.00  0.00    +0.176 A 
ENDROOT
BRANCH  18   9
ATOM      5  N   UNL     1       0.009   0.051  23.668  0.00  0.00    -0.286 NA
ATOM      9  C   UNL     1       0.739   1.116  24.387  0.00  0.00    +0.149 C 
ATOM     10  C   UNL     1       1.023  -0.784  23.027  0.00  0.00    +0.116 C 
ATOM     13  C   UNL     1       2.051   1.294  23.602  0.00  0.00    +0.061 C 
ATOM     14  C   UNL     1       1.988   0.255  22.488  0.00  0.00    +0.130 C 
BRANCH   5   8
ATOM      8  C   UNL     1      -0.877  -0.725  24.533  0.00  0.00    +0.058 C 
ATOM     11  C   UNL     1      -2.230  -0.018  24.662  0.00  0.00    +0.019 C 
ATOM     12  C   UNL     1      -1.044  -2.141  23.971  0.00  0.00    +0.019 C 
ATOM     15  C   UNL     1      -3.210  -0.840  25.499  0.00  0.00    +0.002 C 
ATOM     16  C   UNL     1      -2.025  -2.960  24.809  0.00  0.00    +0.002 C 
ATOM     17  C   UNL     1      -3.370  -2.254  24.950  0.00  0.00    +0.000 C 
ENDBRANCH   5   8
BRANCH  14   3
ATOM      3  O   UNL     1       3.268  -0.295  22.243  0.00  0.00    -0.390 OA
ATOM     27  H   UNL     1       3.858   0.437  21.999  0.00  0.00    +0.210 HD
ENDBRANCH  14   3
ENDBRANCH  18   9
BRANCH  19  20
ATOM     20  C   UNL     1      -2.654   4.637  25.136  0.00  0.00    +0.116 C 
BRANCH  20  21
ATOM      1 CL   UNL     1      -3.401   3.003  22.612  0.00  0.00    -0.083 Cl
ATOM      2  F   UNL     1      -7.296   1.420  25.419  0.00  0.00    -0.205 F 
ATOM     21  C   UNL     1      -3.902   3.759  25.182  0.00  0.00    -0.021 A 
ATOM     22  C   UNL     1      -4.301   2.997  24.085  0.00  0.00    +0.047 A 
ATOM     23  C   UNL     1      -4.648   3.732  26.359  0.00  0.00    +0.008 A 
ATOM     24  C   UNL     1      -5.447   2.206  24.165  0.00  0.00    +0.058 A 
ATOM     25  C   UNL     1      -5.795   2.941  26.440  0.00  0.00    +0.039 A 
ATOM     26  C   UNL     1      -6.195   2.178  25.342  0.00  0.00    +0.125 A 
ENDBRANCH  20  21
ENDBRANCH  19  20
TORSDOF 5
ENDMDL
MODEL 3
REMARK VINA RESULT:      -2.8     13.895     15.356
REMARK  Name = 26744570
REMARK  5 active torsions:
REMARK  status: ('A' for Active; 'I' for Inactive)
REMARK    1  A    between atoms: O_3  and  C_14
REMARK    2  A    between atoms: N_5  and  C_8
REMARK    3  A    between atoms: C_9  and  C_18
REMARK    4  A    between atoms: C_19  and  C_20
REMARK    5  A    between atoms: C_20  and  C_21
REMARK                            x       y       z     vdW  Elec       q    Type
REMARK                         _______ _______ _______ _____ _____    ______ ____
ROOT
ATOM      4  O   UNL     1      -5.161 -10.531  14.827  0.00  0.00    -0.336 OA
ATOM      6  N   UNL     1      -6.231 -10.645  12.863  0.00  0.00    -0.194 NA
ATOM      7  N   UNL     1      -4.165 -10.617  13.845  0.00  0.00    -0.061 NA
ATOM     18  C   UNL     1      -6.347 -10.554  14.165  0.00  0.00    +0.245 A 
ATOM     19  C   UNL     1      -4.877 -10.680  12.715  0.00  0.00    +0.176 A 
ENDROOT
BRANCH  18   9
ATOM      5  N   UNL     1      -7.409  -9.644  16.225  0.00  0.00    -0.286 NA
ATOM      9  C   UNL     1      -7.597 -10.470  15.014  0.00  0.00    +0.149 C 
ATOM     10  C   UNL     1      -8.715  -9.068  16.538  0.00  0.00    +0.116 C 
ATOM     13  C   UNL     1      -8.779  -9.819  14.272  0.00  0.00    +0.061 C 
ATOM     14  C   UNL     1      -9.216  -8.664  15.165  0.00  0.00    +0.130 C 
BRANCH   5   8
ATOM      8  C   UNL     1      -6.852 -10.392  17.350  0.00  0.00    +0.058 C 
ATOM     11  C   UNL     1      -5.360 -10.076  17.498  0.00  0.00    +0.019 C 
ATOM     12  C   UNL     1      -7.619 -10.049  18.632  0.00  0.00    +0.019 C 
ATOM     15  C   UNL     1      -4.760 -10.781  18.713  0.00  0.00    +0.002 C 
ATOM     16  C   UNL     1      -7.016 -10.755  19.846  0.00  0.00    +0.002 C 
ATOM     17  C   UNL     1      -5.528 -10.453  19.991  0.00  0.00    +0.000 C 
ENDBRANCH   5   8
BRANCH  14   3
ATOM      3  O   UNL     1     -10.623  -8.517  15.141  0.00  0.00    -0.390 OA
ATOM     27  H   UNL     1     -10.817  -7.565  15.126  0.00  0.00    +0.210 HD
ENDBRANCH  14   3
ENDBRANCH  18   9
BRANCH  19  20
ATOM     20  C   UNL     1      -4.235 -10.781  11.400  0.00  0.00    +0.116 C 
BRANCH  20  21
ATOM      1 CL   UNL     1      -3.817  -8.620   9.219  0.00  0.00    -0.083 Cl
ATOM      2  F   UNL     1       0.857  -8.337  11.124  0.00  0.00    -0.205 F 
ATOM     21  C   UNL     1      -2.871 -10.103  11.301  0.00  0.00    -0.021 A 
ATOM     22  C   UNL     1      -2.608  -9.123  10.344  0.00  0.00    +0.047 A 
ATOM     23  C   UNL     1      -1.875 -10.487  12.198  0.00  0.00    +0.008 A 
ATOM     24  C   UNL     1      -1.350  -8.526  10.284  0.00  0.00    +0.058 A 
ATOM     25  C   UNL     1      -0.615  -9.890  12.138  0.00  0.00    +0.039 A 
ATOM     26  C   UNL     1      -0.352  -8.909  11.181  0.00  0.00    +0.125 A 
ENDBRANCH  20  21
ENDBRANCH  19  20
TORSDOF 5
ENDMDL
MODEL 4
REMARK VINA RESULT:      -2.8      1.589      3.372
REMARK  Name = 26744570
REMARK  5 active torsions:
REMARK  status: ('A' for Active; 'I' for Inactive)
REMARK    1  A    between atoms: O_3  and  C_14
REMARK    2  A    between atoms: N_5  and  C_8
REMARK    3  A    between atoms: C_9  and  C_18
REMARK    4  A    between atoms: C_19  and  C_20
REMARK    5  A    between atoms: C_20  and  C_21
REMARK                            x       y       z     vdW  Elec       q    Type
REMARK                         _______ _______ _______ _____ _____    ______ ____
ROOT
ATOM      4  O   UNL     1      -0.364   1.674  24.596  0.00  0.00    -0.336 OA
ATOM      6  N   UNL     1      -0.730   0.613  22.659  0.00  0.00    -0.194 NA
ATOM      7  N   UNL     1       0.886   1.216  24.161  0.00  0.00    -0.061 NA
ATOM     18  C   UNL     1      -1.260   1.277  23.656  0.00  0.00    +0.245 A 
ATOM     19  C   UNL     1       0.586   0.601  23.013  0.00  0.00    +0.176 A 
ENDROOT
BRANCH  18   9
ATOM      5  N   UNL     1      -3.203   1.200  25.211  0.00  0.00    -0.286 NA
ATOM      9  C   UNL     1      -2.706   1.656  23.896  0.00  0.00    +0.149 C 
ATOM     10  C   UNL     1      -4.232   2.155  25.617  0.00  0.00    +0.116 C 
ATOM     13  C   UNL     1      -2.931   3.179  23.896  0.00  0.00    +0.061 C 
ATOM     14  C   UNL     1      -3.599   3.479  25.232  0.00  0.00    +0.130 C 
BRANCH   5   8
ATOM      8  C   UNL     1      -3.702  -0.174  25.193  0.00  0.00    +0.058 C 
ATOM     11  C   UNL     1      -4.013  -0.597  23.754  0.00  0.00    +0.019 C 
ATOM     12  C   UNL     1      -2.671  -1.109  25.835  0.00  0.00    +0.019 C 
ATOM     15  C   UNL     1      -4.465  -2.055  23.689  0.00  0.00    +0.002 C 
ATOM     16  C   UNL     1      -3.125  -2.566  25.766  0.00  0.00    +0.002 C 
ATOM     17  C   UNL     1      -3.447  -2.989  24.336  0.00  0.00    +0.000 C 
ENDBRANCH   5   8
BRANCH  14   3
ATOM      3  O   UNL     1      -4.566   4.501  25.091  0.00  0.00    -0.390 OA
ATOM     27  H   UNL     1      -4.100   5.308  24.813  0.00  0.00    +0.210 HD
ENDBRANCH  14   3
ENDBRANCH  18   9
BRANCH  19  20
ATOM     20  C   UNL     1       1.613  -0.044  22.188  0.00  0.00    +0.116 C 
BRANCH  20  21
ATOM      1 CL   UNL     1       3.570   2.357  22.266  0.00  0.00    -0.083 Cl
ATOM      2  F   UNL     1       6.584  -0.842  24.763  0.00  0.00    -0.205 F 
ATOM     21  C   UNL     1       2.963  -0.229  22.876  0.00  0.00    -0.021 A 
ATOM     22  C   UNL     1       3.895   0.805  22.949  0.00  0.00    +0.047 A 
ATOM     23  C   UNL     1       3.253  -1.471  23.440  0.00  0.00    +0.008 A 
ATOM     24  C   UNL     1       5.118   0.599  23.587  0.00  0.00    +0.058 A 
ATOM     25  C   UNL     1       4.477  -1.678  24.078  0.00  0.00    +0.039 A 
ATOM     26  C   UNL     1       5.409  -0.643  24.152  0.00  0.00    +0.125 A 
ENDBRANCH  20  21
ENDBRANCH  19  20
TORSDOF 5
ENDMDL
MODEL 5
REMARK VINA RESULT:      -2.2      2.109      3.870
REMARK  Name = 26744570
REMARK  5 active torsions:
REMARK  status: ('A' for Active; 'I' for Inactive)
REMARK    1  A    between atoms: O_3  and  C_14
REMARK    2  A    between atoms: N_5  and  C_8
REMARK    3  A    between atoms: C_9  and  C_18
REMARK    4  A    between atoms: C_19  and  C_20
REMARK    5  A    between atoms: C_20  and  C_21
REMARK                            x       y       z     vdW  Elec       q    Type
REMARK                         _______ _______ _______ _____ _____    ______ ____
ROOT
ATOM      4  O   UNL     1      -1.434   1.742  25.516  0.00  0.00    -0.336 OA
ATOM      6  N   UNL     1      -1.301   2.148  23.318  0.00  0.00    -0.194 NA
ATOM      7  N   UNL     1      -0.068   1.808  25.214  0.00  0.00    -0.061 NA
ATOM     18  C   UNL     1      -2.090   1.953  24.345  0.00  0.00    +0.245 A 
ATOM     19  C   UNL     1      -0.072   2.051  23.899  0.00  0.00    +0.176 A 
ENDROOT
BRANCH  18   9
ATOM      5  N   UNL     1      -4.116   1.179  25.568  0.00  0.00    -0.286 NA
ATOM      9  C   UNL     1      -3.602   1.932  24.404  0.00  0.00    +0.149 C 
ATOM     10  C   UNL     1      -5.398   1.786  25.918  0.00  0.00    +0.116 C 
ATOM     13  C   UNL     1      -4.214   3.338  24.543  0.00  0.00    +0.061 C 
ATOM     14  C   UNL     1      -5.090   3.266  25.788  0.00  0.00    +0.130 C 
BRANCH   5   8
ATOM      8  C   UNL     1      -4.236  -0.256  25.318  0.00  0.00    +0.058 C 
ATOM     11  C   UNL     1      -4.171  -0.531  23.813  0.00  0.00    +0.019 C 
ATOM     12  C   UNL     1      -3.129  -1.007  26.066  0.00  0.00    +0.019 C 
ATOM     15  C   UNL     1      -4.216  -2.030  23.518  0.00  0.00    +0.002 C 
ATOM     16  C   UNL     1      -3.175  -2.505  25.769  0.00  0.00    +0.002 C 
ATOM     17  C   UNL     1      -3.122  -2.784  24.270  0.00  0.00    +0.000 C 
ENDBRANCH   5   8
BRANCH  14   3
ATOM      3  O   UNL     1      -6.266   4.034  25.618  0.00  0.00    -0.390 OA
ATOM     27  H   UNL     1      -6.885   3.506  25.086  0.00  0.00    +0.210 HD
ENDBRANCH  14   3
ENDBRANCH  18   9
BRANCH  19  20
ATOM     20  C   UNL     1       1.170   2.203  23.135  0.00  0.00    +0.116 C 
BRANCH  20  21
ATOM      1 CL   UNL     1       0.035  -0.663  23.440  0.00  0.00    -0.083 Cl
ATOM      2  F   UNL     1       4.903  -2.014  23.646  0.00  0.00    -0.205 F 
ATOM     21  C   UNL     1       2.153   1.044  23.275  0.00  0.00    -0.021 A 
ATOM     22  C   UNL     1       1.716  -0.272  23.418  0.00  0.00    +0.047 A 
ATOM     23  C   UNL     1       3.518   1.329  23.257  0.00  0.00    +0.008 A 
ATOM     24  C   UNL     1       2.645  -1.306  23.542  0.00  0.00    +0.058 A 
ATOM     25  C   UNL     1       4.447   0.295  23.383  0.00  0.00    +0.039 A 
ATOM     26  C   UNL     1       4.011  -1.022  23.525  0.00  0.00    +0.125 A 
ENDBRANCH  20  21
ENDBRANCH  19  20
TORSDOF 5
ENDMDL
MODEL 6
REMARK VINA RESULT:      -1.7      1.282      1.877
REMARK  Name = 26744570
REMARK  5 active torsions:
REMARK  status: ('A' for Active; 'I' for Inactive)
REMARK    1  A    between atoms: O_3  and  C_14
REMARK    2  A    between atoms: N_5  and  C_8
REMARK    3  A    between atoms: C_9  and  C_18
REMARK    4  A    between atoms: C_19  and  C_20
REMARK    5  A    between atoms: C_20  and  C_21
REMARK                            x       y       z     vdW  Elec       q    Type
REMARK                         _______ _______ _______ _____ _____    ______ ____
ROOT
ATOM      4  O   UNL     1      -0.623   1.521  25.669  0.00  0.00    -0.336 OA
ATOM      6  N   UNL     1      -0.385   0.564  23.659  0.00  0.00    -0.194 NA
ATOM      7  N   UNL     1       0.568   2.028  25.135  0.00  0.00    -0.061 NA
ATOM     18  C   UNL     1      -1.121   0.667  24.737  0.00  0.00    +0.245 A 
ATOM     19  C   UNL     1       0.638   1.417  23.948  0.00  0.00    +0.176 A 
ENDROOT
BRANCH  18   9
ATOM      5  N   UNL     1      -3.434   0.105  24.007  0.00  0.00    -0.286 NA
ATOM      9  C   UNL     1      -2.425  -0.023  25.079  0.00  0.00    +0.149 C 
ATOM     10  C   UNL     1      -4.276  -1.086  24.089  0.00  0.00    +0.116 C 
ATOM     13  C   UNL     1      -2.261  -1.539  25.287  0.00  0.00    +0.061 C 
ATOM     14  C   UNL     1      -3.250  -2.179  24.321  0.00  0.00    +0.130 C 
BRANCH   5   8
ATOM      8  C   UNL     1      -4.214   1.339  24.095  0.00  0.00    +0.058 C 
ATOM     11  C   UNL     1      -4.999   1.367  25.410  0.00  0.00    +0.019 C 
ATOM     12  C   UNL     1      -3.283   2.551  23.979  0.00  0.00    +0.019 C 
ATOM     15  C   UNL     1      -5.767   2.678  25.571  0.00  0.00    +0.002 C 
ATOM     16  C   UNL     1      -4.054   3.860  24.141  0.00  0.00    +0.002 C 
ATOM     17  C   UNL     1      -4.847   3.889  25.445  0.00  0.00    +0.000 C 
ENDBRANCH   5   8
BRANCH  14   3
ATOM      3  O   UNL     1      -3.833  -3.334  24.892  0.00  0.00    -0.390 OA
ATOM     27  H   UNL     1      -3.184  -3.715  25.506  0.00  0.00    +0.210 HD
ENDBRANCH  14   3
ENDBRANCH  18   9
BRANCH  19  20
ATOM     20  C   UNL     1       1.748   1.652  23.019  0.00  0.00    +0.116 C 
BRANCH  20  21
ATOM      1 CL   UNL     1       1.300  -1.374  23.508  0.00  0.00    -0.083 Cl
ATOM      2  F   UNL     1       6.341  -1.544  23.836  0.00  0.00    -0.205 F 
ATOM     21  C   UNL     1       2.969   0.764  23.243  0.00  0.00    -0.021 A 
ATOM     22  C   UNL     1       2.845  -0.606  23.471  0.00  0.00    +0.047 A 
ATOM     23  C   UNL     1       4.231   1.355  23.215  0.00  0.00    +0.008 A 
ATOM     24  C   UNL     1       3.984  -1.386  23.670  0.00  0.00    +0.058 A 
ATOM     25  C   UNL     1       5.371   0.575  23.416  0.00  0.00    +0.039 A 
ATOM     26  C   UNL     1       5.247  -0.796  23.643  0.00  0.00    +0.125 A 
ENDBRANCH  20  21
ENDBRANCH  19  20
TORSDOF 5
ENDMDL
MODEL 7
REMARK VINA RESULT:      -0.8      1.522      2.022
REMARK  Name = 26744570
REMARK  5 active torsions:
REMARK  status: ('A' for Active; 'I' for Inactive)
REMARK    1  A    between atoms: O_3  and  C_14
REMARK    2  A    between atoms: N_5  and  C_8
REMARK    3  A    between atoms: C_9  and  C_18
REMARK    4  A    between atoms: C_19  and  C_20
REMARK    5  A    between atoms: C_20  and  C_21
REMARK                            x       y       z     vdW  Elec       q    Type
REMARK                         _______ _______ _______ _____ _____    ______ ____
ROOT
ATOM      4  O   UNL     1      -0.502  -1.186  24.983  0.00  0.00    -0.336 OA
ATOM      6  N   UNL     1      -0.404   0.455  23.462  0.00  0.00    -0.194 NA
ATOM      7  N   UNL     1       0.680  -1.395  24.260  0.00  0.00    -0.061 NA
ATOM     18  C   UNL     1      -1.079  -0.078  24.450  0.00  0.00    +0.245 A 
ATOM     19  C   UNL     1       0.666  -0.386  23.383  0.00  0.00    +0.176 A 
ENDROOT
BRANCH  18   9
ATOM      5  N   UNL     1      -2.884   1.637  24.498  0.00  0.00    -0.286 NA
ATOM      9  C   UNL     1      -2.389   0.365  25.066  0.00  0.00    +0.149 C 
ATOM     10  C   UNL     1      -4.341   1.592  24.592  0.00  0.00    +0.116 C 
ATOM     13  C   UNL     1      -3.530  -0.642  24.830  0.00  0.00    +0.061 C 
ATOM     14  C   UNL     1      -4.638   0.167  24.166  0.00  0.00    +0.130 C 
BRANCH   5   8
ATOM      8  C   UNL     1      -2.325   2.817  25.156  0.00  0.00    +0.058 C 
ATOM     11  C   UNL     1      -1.218   3.422  24.287  0.00  0.00    +0.019 C 
ATOM     12  C   UNL     1      -3.437   3.836  25.426  0.00  0.00    +0.019 C 
ATOM     15  C   UNL     1      -0.663   4.704  24.907  0.00  0.00    +0.002 C 
ATOM     16  C   UNL     1      -2.878   5.117  26.045  0.00  0.00    +0.002 C 
ATOM     17  C   UNL     1      -1.768   5.718  25.189  0.00  0.00    +0.000 C 
ENDBRANCH   5   8
BRANCH  14   3
ATOM      3  O   UNL     1      -5.909  -0.262  24.616  0.00  0.00    -0.390 OA
ATOM     27  H   UNL     1      -6.221   0.387  25.269  0.00  0.00    +0.210 HD
ENDBRANCH  14   3
ENDBRANCH  18   9
BRANCH  19  20
ATOM     20  C   UNL     1       1.737  -0.200  22.398  0.00  0.00    +0.116 C 
BRANCH  20  21
ATOM      1 CL   UNL     1       3.503   2.345  22.364  0.00  0.00    -0.083 Cl
ATOM      2  F   UNL     1       6.955  -0.645  24.533  0.00  0.00    -0.205 F 
ATOM     21  C   UNL     1       3.151  -0.289  22.968  0.00  0.00    -0.021 A 
ATOM     22  C   UNL     1       4.003   0.814  22.985  0.00  0.00    +0.047 A 
ATOM     23  C   UNL     1       3.582  -1.512  23.479  0.00  0.00    +0.008 A 
ATOM     24  C   UNL     1       5.288   0.695  23.514  0.00  0.00    +0.058 A 
ATOM     25  C   UNL     1       4.867  -1.633  24.008  0.00  0.00    +0.039 A 
ATOM     26  C   UNL     1       5.721  -0.529  24.026  0.00  0.00    +0.125 A 
ENDBRANCH  20  21
ENDBRANCH  19  20
TORSDOF 5
ENDMDL
MODEL 8
REMARK VINA RESULT:      -0.2      2.207      3.735
REMARK  Name = 26744570
REMARK  5 active torsions:
REMARK  status: ('A' for Active; 'I' for Inactive)
REMARK    1  A    between atoms: O_3  and  C_14
REMARK    2  A    between atoms: N_5  and  C_8
REMARK    3  A    between atoms: C_9  and  C_18
REMARK    4  A    between atoms: C_19  and  C_20
REMARK    5  A    between atoms: C_20  and  C_21
REMARK                            x       y       z     vdW  Elec       q    Type
REMARK                         _______ _______ _______ _____ _____    ______ ____
ROOT
ATOM      4  O   UNL     1      -0.966   0.581  24.995  0.00  0.00    -0.336 OA
ATOM      6  N   UNL     1      -0.049   1.184  23.043  0.00  0.00    -0.194 NA
ATOM      7  N   UNL     1      -0.093  -0.454  24.640  0.00  0.00    -0.061 NA
ATOM     18  C   UNL     1      -0.881   1.505  24.003  0.00  0.00    +0.245 A 
ATOM     19  C   UNL     1       0.410  -0.024  23.478  0.00  0.00    +0.176 A 
ENDROOT
BRANCH  18   9
ATOM      5  N   UNL     1      -2.332   2.863  25.502  0.00  0.00    -0.286 NA
ATOM      9  C   UNL     1      -1.742   2.741  24.153  0.00  0.00    +0.149 C 
ATOM     10  C   UNL     1      -2.495   4.293  25.754  0.00  0.00    +0.116 C 
ATOM     13  C   UNL     1      -0.950   4.046  23.950  0.00  0.00    +0.061 C 
ATOM     14  C   UNL     1      -1.193   4.856  25.217  0.00  0.00    +0.130 C 
BRANCH   5   8
ATOM      8  C   UNL     1      -3.588   2.130  25.650  0.00  0.00    +0.058 C 
ATOM     11  C   UNL     1      -4.727   3.106  25.960  0.00  0.00    +0.019 C 
ATOM     12  C   UNL     1      -3.875   1.329  24.375  0.00  0.00    +0.019 C 
ATOM     15  C   UNL     1      -6.071   2.382  26.046  0.00  0.00    +0.002 C 
ATOM     16  C   UNL     1      -5.220   0.609  24.463  0.00  0.00    +0.002 C 
ATOM     17  C   UNL     1      -6.356   1.574  24.783  0.00  0.00    +0.000 C 
ENDBRANCH   5   8
BRANCH  14   3
ATOM      3  O   UNL     1      -1.300   6.234  24.919  0.00  0.00    -0.390 OA
ATOM     27  H   UNL     1      -0.790   6.719  25.589  0.00  0.00    +0.210 HD
ENDBRANCH  14   3
ENDBRANCH  18   9
BRANCH  19  20
ATOM     20  C   UNL     1       1.394  -0.806  22.722  0.00  0.00    +0.116 C 
BRANCH  20  21
ATOM      1 CL   UNL     1       3.076  -2.699  24.507  0.00  0.00    -0.083 Cl
ATOM      2  F   UNL     1       6.774   0.646  23.679  0.00  0.00    -0.205 F 
ATOM     21  C   UNL     1       2.850  -0.441  22.998  0.00  0.00    -0.021 A 
ATOM     22  C   UNL     1       3.667  -1.243  23.793  0.00  0.00    +0.047 A 
ATOM     23  C   UNL     1       3.357   0.728  22.433  0.00  0.00    +0.008 A 
ATOM     24  C   UNL     1       4.993  -0.877  24.023  0.00  0.00    +0.058 A 
ATOM     25  C   UNL     1       4.683   1.096  22.663  0.00  0.00    +0.039 A 
ATOM     26  C   UNL     1       5.502   0.293  23.458  0.00  0.00    +0.125 A 
ENDBRANCH  20  21
ENDBRANCH  19  20
TORSDOF 5
ENDMDL
MODEL 9
REMARK VINA RESULT:      -0.0      2.760      4.341
REMARK  Name = 26744570
REMARK  5 active torsions:
REMARK  status: ('A' for Active; 'I' for Inactive)
REMARK    1  A    between atoms: O_3  and  C_14
REMARK    2  A    between atoms: N_5  and  C_8
REMARK    3  A    between atoms: C_9  and  C_18
REMARK    4  A    between atoms: C_19  and  C_20
REMARK    5  A    between atoms: C_20  and  C_21
REMARK                            x       y       z     vdW  Elec       q    Type
REMARK                         _______ _______ _______ _____ _____    ______ ____
ROOT
ATOM      4  O   UNL     1      -1.763   3.278  26.071  0.00  0.00    -0.336 OA
ATOM      6  N   UNL     1      -1.257   2.000  24.304  0.00  0.00    -0.194 NA
ATOM      7  N   UNL     1      -0.369   3.138  26.078  0.00  0.00    -0.061 NA
ATOM     18  C   UNL     1      -2.207   2.578  24.995  0.00  0.00    +0.245 A 
ATOM     19  C   UNL     1      -0.149   2.371  25.005  0.00  0.00    +0.176 A 
ENDROOT
BRANCH  18   9
ATOM      5  N   UNL     1      -4.424   1.699  25.711  0.00  0.00    -0.286 NA
ATOM      9  C   UNL     1      -3.703   2.573  24.762  0.00  0.00    +0.149 C 
ATOM     10  C   UNL     1      -5.754   2.281  25.880  0.00  0.00    +0.116 C 
ATOM     13  C   UNL     1      -4.340   3.963  24.946  0.00  0.00    +0.061 C 
ATOM     14  C   UNL     1      -5.437   3.760  25.983  0.00  0.00    +0.130 C 
BRANCH   5   8
ATOM      8  C   UNL     1      -4.483   0.304  25.277  0.00  0.00    +0.058 C 
ATOM     11  C   UNL     1      -4.072   0.198  23.805  0.00  0.00    +0.019 C 
ATOM     12  C   UNL     1      -3.580  -0.556  26.168  0.00  0.00    +0.019 C 
ATOM     15  C   UNL     1      -4.048  -1.257  23.338  0.00  0.00    +0.002 C 
ATOM     16  C   UNL     1      -3.556  -2.009  25.698  0.00  0.00    +0.002 C 
ATOM     17  C   UNL     1      -3.159  -2.120  24.229  0.00  0.00    +0.000 C 
ENDBRANCH   5   8
BRANCH  14   3
ATOM      3  O   UNL     1      -6.564   4.561  25.684  0.00  0.00    -0.390 OA
ATOM     27  H   UNL     1      -6.419   5.432  26.089  0.00  0.00    +0.210 HD
ENDBRANCH  14   3
ENDBRANCH  18   9
BRANCH  19  20
ATOM     20  C   UNL     1       1.203   1.959  24.611  0.00  0.00    +0.116 C 
BRANCH  20  21
ATOM      1 CL   UNL     1       3.883   1.558  23.110  0.00  0.00    -0.083 Cl
ATOM      2  F   UNL     1       1.280  -1.850  20.433  0.00  0.00    -0.205 F 
ATOM     21  C   UNL     1       1.255   0.938  23.478  0.00  0.00    -0.021 A 
ATOM     22  C   UNL     1       2.425   0.704  22.757  0.00  0.00    +0.047 A 
ATOM     23  C   UNL     1       0.093   0.231  23.172  0.00  0.00    +0.008 A 
ATOM     24  C   UNL     1       2.434  -0.238  21.728  0.00  0.00    +0.058 A 
ATOM     25  C   UNL     1       0.101  -0.711  22.142  0.00  0.00    +0.039 A 
ATOM     26  C   UNL     1       1.272  -0.946  21.421  0.00  0.00    +0.125 A 
ENDBRANCH  20  21
ENDBRANCH  19  20
TORSDOF 5
ENDMDL
MODEL 10
REMARK VINA RESULT:       0.1      3.780      7.232
REMARK  Name = 26744570
REMARK  5 active torsions:
REMARK  status: ('A' for Active; 'I' for Inactive)
REMARK    1  A    between atoms: O_3  and  C_14
REMARK    2  A    between atoms: N_5  and  C_8
REMARK    3  A    between atoms: C_9  and  C_18
REMARK    4  A    between atoms: C_19  and  C_20
REMARK    5  A    between atoms: C_20  and  C_21
REMARK                            x       y       z     vdW  Elec       q    Type
REMARK                         _______ _______ _______ _____ _____    ______ ____
ROOT
ATOM      4  O   UNL     1      -0.878  -1.334  23.900  0.00  0.00    -0.336 OA
ATOM      6  N   UNL     1      -2.190   0.481  23.913  0.00  0.00    -0.194 NA
ATOM      7  N   UNL     1      -2.130  -1.763  24.357  0.00  0.00    -0.061 NA
ATOM     18  C   UNL     1      -0.999  -0.002  23.662  0.00  0.00    +0.245 A 
ATOM     19  C   UNL     1      -2.849  -0.636  24.336  0.00  0.00    +0.176 A 
ENDROOT
BRANCH  18   9
ATOM      5  N   UNL     1       1.075   1.247  24.242  0.00  0.00    -0.286 NA
ATOM      9  C   UNL     1       0.236   0.709  23.151  0.00  0.00    +0.149 C 
ATOM     10  C   UNL     1       2.450   1.241  23.747  0.00  0.00    +0.116 C 
ATOM     13  C   UNL     1       1.172  -0.219  22.355  0.00  0.00    +0.061 C 
ATOM     14  C   UNL     1       2.525  -0.102  23.047  0.00  0.00    +0.130 C 
BRANCH   5   8
ATOM      8  C   UNL     1       0.656   2.574  24.690  0.00  0.00    +0.058 C 
ATOM     11  C   UNL     1      -0.016   3.326  23.537  0.00  0.00    +0.019 C 
ATOM     12  C   UNL     1      -0.288   2.443  25.890  0.00  0.00    +0.019 C 
ATOM     15  C   UNL     1      -0.536   4.689  23.990  0.00  0.00    +0.002 C 
ATOM     16  C   UNL     1      -0.808   3.807  26.340  0.00  0.00    +0.002 C 
ATOM     17  C   UNL     1      -1.468   4.565  25.192  0.00  0.00    +0.000 C 
ENDBRANCH   5   8
BRANCH  14   3
ATOM      3  O   UNL     1       3.576  -0.144  22.102  0.00  0.00    -0.390 OA
ATOM     27  H   UNL     1       4.127  -0.917  22.312  0.00  0.00    +0.210 HD
ENDBRANCH  14   3
ENDBRANCH  18   9
BRANCH  19  20
ATOM     20  C   UNL     1      -4.258  -0.607  24.743  0.00  0.00    +0.116 C 
BRANCH  20  21
ATOM      1 CL   UNL     1      -3.456   1.699  22.835  0.00  0.00    -0.083 Cl
ATOM      2  F   UNL     1      -6.387   4.516  25.841  0.00  0.00    -0.205 F 
ATOM     21  C   UNL     1      -4.817   0.788  25.014  0.00  0.00    -0.021 A 
ATOM     22  C   UNL     1      -4.499   1.874  24.199  0.00  0.00    +0.047 A 
ATOM     23  C   UNL     1      -5.665   0.960  26.107  0.00  0.00    +0.008 A 
ATOM     24  C   UNL     1      -5.030   3.133  24.478  0.00  0.00    +0.058 A 
ATOM     25  C   UNL     1      -6.195   2.219  26.387  0.00  0.00    +0.039 A 
ATOM     26  C   UNL     1      -5.878   3.307  25.572  0.00  0.00    +0.125 A 
ENDBRANCH  20  21
ENDBRANCH  19  20
TORSDOF 5
ENDMDL
