MODEL 1
REMARK VINA RESULT:      -6.1      0.000      0.000
REMARK  Name = 71694388
REMARK  10 active torsions:
REMARK  status: ('A' for Active; 'I' for Inactive)
REMARK    1  A    between atoms: O_3  and  C_17
REMARK    2  A    between atoms: O_3  and  C_18
REMARK    3  A    between atoms: N_4  and  C_6
REMARK    4  A    between atoms: N_4  and  C_10
REMARK    5  A    between atoms: C_6  and  C_9
REMARK    6  A    between atoms: C_9  and  C_12
REMARK    7  A    between atoms: C_10  and  C_11
REMARK    8  A    between atoms: C_11  and  C_13
REMARK    9  A    between atoms: C_11  and  C_14
REMARK   10  A    between atoms: C_16  and  C_17
REMARK                            x       y       z     vdW  Elec       q    Type
REMARK                         _______ _______ _______ _____ _____    ______ ____
ROOT
ATOM      1  O   UNL     1      -3.638   3.113  23.168  0.00  0.00    -0.376 OA
ATOM      6  C   UNL     1      -3.121   1.355  24.266  0.00  0.00    +0.072 C 
ATOM      7  C   UNL     1      -2.840   1.936  22.873  0.00  0.00    +0.184 C 
ATOM      8  C   UNL     1      -4.159   2.479  24.366  0.00  0.00    +0.184 C 
ENDROOT
BRANCH   6   4
ATOM      4  N   UNL     1      -3.831   0.082  24.106  0.00  0.00    -0.306 NA
ATOM     19  H   UNL     1      -4.827   0.158  23.907  0.00  0.00    +0.123 HD
BRANCH   4  10
ATOM     10  C   UNL     1      -3.614  -0.743  25.290  0.00  0.00    +0.084 C 
BRANCH  10  11
ATOM     11  C   UNL     1      -3.428  -2.231  24.943  0.00  0.00    -0.003 C 
ATOM     13  C   UNL     1      -1.968  -2.589  24.655  0.00  0.00    +0.008 C 
ATOM     14  C   UNL     1      -4.296  -2.591  23.734  0.00  0.00    +0.008 C 
ENDBRANCH  10  11
ENDBRANCH   4  10
ENDBRANCH   6   4
BRANCH   6   9
ATOM      9  C   UNL     1      -2.008   1.291  25.280  0.00  0.00    +0.085 C 
BRANCH   9  12
ATOM      2  O   UNL     1       1.276   1.924  23.921  0.00  0.00    -0.357 OA
ATOM      5  N   UNL     1       0.151   2.300  24.643  0.00  0.00    -0.083 NA
ATOM     12  C   UNL     1      -0.664   1.242  24.589  0.00  0.00    +0.086 A 
ATOM     15  C   UNL     1      -0.112   0.180  23.853  0.00  0.00    +0.073 A 
ATOM     16  C   UNL     1       1.109   0.660  23.455  0.00  0.00    +0.163 A 
BRANCH  16  17
ATOM     17  C   UNL     1       2.212   0.101  22.664  0.00  0.00    +0.236 C 
BRANCH  17   3
ATOM      3  O   UNL     1       3.336   0.986  22.685  0.00  0.00    -0.375 OA
ATOM     18  C   UNL     1       4.520   0.302  23.061  0.00  0.00    +0.194 C 
ENDBRANCH  17   3
ENDBRANCH  16  17
ENDBRANCH   9  12
ENDBRANCH   6   9
TORSDOF 7
ENDMDL
MODEL 2
REMARK VINA RESULT:      -5.9      2.750      4.469
REMARK  Name = 71694388
REMARK  10 active torsions:
REMARK  status: ('A' for Active; 'I' for Inactive)
REMARK    1  A    between atoms: O_3  and  C_17
REMARK    2  A    between atoms: O_3  and  C_18
REMARK    3  A    between atoms: N_4  and  C_6
REMARK    4  A    between atoms: N_4  and  C_10
REMARK    5  A    between atoms: C_6  and  C_9
REMARK    6  A    between atoms: C_9  and  C_12
REMARK    7  A    between atoms: C_10  and  C_11
REMARK    8  A    between atoms: C_11  and  C_13
REMARK    9  A    between atoms: C_11  and  C_14
REMARK   10  A    between atoms: C_16  and  C_17
REMARK                            x       y       z     vdW  Elec       q    Type
REMARK                         _______ _______ _______ _____ _____    ______ ____
ROOT
ATOM      1  O   UNL     1      -0.922   5.367  25.014  0.00  0.00    -0.376 OA
ATOM      6  C   UNL     1      -1.384   3.284  24.912  0.00  0.00    +0.072 C 
ATOM      7  C   UNL     1      -0.407   4.255  24.235  0.00  0.00    +0.184 C 
ATOM      8  C   UNL     1      -2.040   4.556  25.462  0.00  0.00    +0.184 C 
ENDROOT
BRANCH   6   4
ATOM      4  N   UNL     1      -2.264   2.715  23.887  0.00  0.00    -0.306 NA
ATOM     19  H   UNL     1      -1.992   2.900  22.923  0.00  0.00    +0.123 HD
BRANCH   4  10
ATOM     10  C   UNL     1      -3.631   3.167  24.120  0.00  0.00    +0.084 C 
BRANCH  10  11
ATOM     11  C   UNL     1      -4.357   2.321  25.181  0.00  0.00    -0.003 C 
ATOM     13  C   UNL     1      -4.848   0.980  24.629  0.00  0.00    +0.008 C 
ATOM     14  C   UNL     1      -5.540   3.108  25.749  0.00  0.00    +0.008 C 
ENDBRANCH  10  11
ENDBRANCH   4  10
ENDBRANCH   6   4
BRANCH   6   9
ATOM      9  C   UNL     1      -0.853   2.255  25.877  0.00  0.00    +0.085 C 
BRANCH   9  12
ATOM      2  O   UNL     1      -0.484  -0.754  23.917  0.00  0.00    -0.357 OA
ATOM      5  N   UNL     1      -0.177   0.569  24.209  0.00  0.00    -0.083 NA
ATOM     12  C   UNL     1      -0.929   0.872  25.271  0.00  0.00    +0.086 A 
ATOM     15  C   UNL     1      -1.724  -0.210  25.688  0.00  0.00    +0.073 A 
ATOM     16  C   UNL     1      -1.406  -1.207  24.803  0.00  0.00    +0.163 A 
BRANCH  16  17
ATOM     17  C   UNL     1      -1.846  -2.597  24.638  0.00  0.00    +0.236 C 
BRANCH  17   3
ATOM      3  O   UNL     1      -3.222  -2.729  25.010  0.00  0.00    -0.375 OA
ATOM     18  C   UNL     1      -4.078  -2.419  23.922  0.00  0.00    +0.194 C 
ENDBRANCH  17   3
ENDBRANCH  16  17
ENDBRANCH   9  12
ENDBRANCH   6   9
TORSDOF 7
ENDMDL
MODEL 3
REMARK VINA RESULT:      -5.6      1.385      1.754
REMARK  Name = 71694388
REMARK  10 active torsions:
REMARK  status: ('A' for Active; 'I' for Inactive)
REMARK    1  A    between atoms: O_3  and  C_17
REMARK    2  A    between atoms: O_3  and  C_18
REMARK    3  A    between atoms: N_4  and  C_6
REMARK    4  A    between atoms: N_4  and  C_10
REMARK    5  A    between atoms: C_6  and  C_9
REMARK    6  A    between atoms: C_9  and  C_12
REMARK    7  A    between atoms: C_10  and  C_11
REMARK    8  A    between atoms: C_11  and  C_13
REMARK    9  A    between atoms: C_11  and  C_14
REMARK   10  A    between atoms: C_16  and  C_17
REMARK                            x       y       z     vdW  Elec       q    Type
REMARK                         _______ _______ _______ _____ _____    ______ ____
ROOT
ATOM      1  O   UNL     1      -5.472   3.654  25.445  0.00  0.00    -0.376 OA
ATOM      6  C   UNL     1      -3.898   2.359  24.807  0.00  0.00    +0.072 C 
ATOM      7  C   UNL     1      -5.432   2.375  24.759  0.00  0.00    +0.184 C 
ATOM      8  C   UNL     1      -4.060   3.545  25.765  0.00  0.00    +0.184 C 
ENDROOT
BRANCH   6   4
ATOM      4  N   UNL     1      -3.466   1.193  25.583  0.00  0.00    -0.306 NA
ATOM     19  H   UNL     1      -2.461   1.025  25.600  0.00  0.00    +0.123 HD
BRANCH   4  10
ATOM     10  C   UNL     1      -4.167   0.007  25.104  0.00  0.00    +0.084 C 
BRANCH  10  11
ATOM     11  C   UNL     1      -3.501  -1.299  25.571  0.00  0.00    -0.003 C 
ATOM     13  C   UNL     1      -2.046  -1.096  26.001  0.00  0.00    +0.008 C 
ATOM     14  C   UNL     1      -3.566  -2.341  24.451  0.00  0.00    +0.008 C 
ENDBRANCH  10  11
ENDBRANCH   4  10
ENDBRANCH   6   4
BRANCH   6   9
ATOM      9  C   UNL     1      -3.116   2.546  23.532  0.00  0.00    +0.085 C 
BRANCH   9  12
ATOM      2  O   UNL     1       0.337   1.836  24.305  0.00  0.00    -0.357 OA
ATOM      5  N   UNL     1      -0.800   2.631  24.374  0.00  0.00    -0.083 NA
ATOM     12  C   UNL     1      -1.726   1.969  23.673  0.00  0.00    +0.086 A 
ATOM     15  C   UNL     1      -1.235   0.765  23.143  0.00  0.00    +0.073 A 
ATOM     16  C   UNL     1       0.067   0.728  23.570  0.00  0.00    +0.163 A 
BRANCH  16  17
ATOM     17  C   UNL     1       1.167  -0.228  23.394  0.00  0.00    +0.236 C 
BRANCH  17   3
ATOM      3  O   UNL     1       1.955   0.128  22.255  0.00  0.00    -0.375 OA
ATOM     18  C   UNL     1       3.235   0.601  22.645  0.00  0.00    +0.194 C 
ENDBRANCH  17   3
ENDBRANCH  16  17
ENDBRANCH   9  12
ENDBRANCH   6   9
TORSDOF 7
ENDMDL
MODEL 4
REMARK VINA RESULT:      -5.6      1.709      3.291
REMARK  Name = 71694388
REMARK  10 active torsions:
REMARK  status: ('A' for Active; 'I' for Inactive)
REMARK    1  A    between atoms: O_3  and  C_17
REMARK    2  A    between atoms: O_3  and  C_18
REMARK    3  A    between atoms: N_4  and  C_6
REMARK    4  A    between atoms: N_4  and  C_10
REMARK    5  A    between atoms: C_6  and  C_9
REMARK    6  A    between atoms: C_9  and  C_12
REMARK    7  A    between atoms: C_10  and  C_11
REMARK    8  A    between atoms: C_11  and  C_13
REMARK    9  A    between atoms: C_11  and  C_14
REMARK   10  A    between atoms: C_16  and  C_17
REMARK                            x       y       z     vdW  Elec       q    Type
REMARK                         _______ _______ _______ _____ _____    ______ ____
ROOT
ATOM      1  O   UNL     1      -3.514  -2.818  25.217  0.00  0.00    -0.376 OA
ATOM      6  C   UNL     1      -2.701  -0.869  24.895  0.00  0.00    +0.072 C 
ATOM      7  C   UNL     1      -3.905  -1.480  25.625  0.00  0.00    +0.184 C 
ATOM      8  C   UNL     1      -2.544  -2.269  24.288  0.00  0.00    +0.184 C 
ENDROOT
BRANCH   6   4
ATOM      4  N   UNL     1      -3.196   0.035  23.852  0.00  0.00    -0.306 NA
ATOM     19  H   UNL     1      -2.503   0.337  23.170  0.00  0.00    +0.123 HD
BRANCH   4  10
ATOM     10  C   UNL     1      -3.829   1.191  24.476  0.00  0.00    +0.084 C 
BRANCH  10  11
ATOM     11  C   UNL     1      -3.601   2.488  23.679  0.00  0.00    -0.003 C 
ATOM     13  C   UNL     1      -2.694   2.279  22.463  0.00  0.00    +0.008 C 
ATOM     14  C   UNL     1      -2.999   3.557  24.593  0.00  0.00    +0.008 C 
ENDBRANCH  10  11
ENDBRANCH   4  10
ENDBRANCH   6   4
BRANCH   6   9
ATOM      9  C   UNL     1      -1.567  -0.285  25.698  0.00  0.00    +0.085 C 
BRANCH   9  12
ATOM      2  O   UNL     1       0.931   1.506  23.805  0.00  0.00    -0.357 OA
ATOM      5  N   UNL     1      -0.118   1.451  24.715  0.00  0.00    -0.083 NA
ATOM     12  C   UNL     1      -0.445   0.157  24.786  0.00  0.00    +0.086 A 
ATOM     15  C   UNL     1       0.354  -0.643  23.952  0.00  0.00    +0.073 A 
ATOM     16  C   UNL     1       1.203   0.254  23.358  0.00  0.00    +0.163 A 
BRANCH  16  17
ATOM     17  C   UNL     1       2.293   0.128  22.382  0.00  0.00    +0.236 C 
BRANCH  17   3
ATOM      3  O   UNL     1       3.329   1.070  22.673  0.00  0.00    -0.375 OA
ATOM     18  C   UNL     1       4.524   0.413  23.064  0.00  0.00    +0.194 C 
ENDBRANCH  17   3
ENDBRANCH  16  17
ENDBRANCH   9  12
ENDBRANCH   6   9
TORSDOF 7
ENDMDL
MODEL 5
REMARK VINA RESULT:      -5.5      1.845      5.388
REMARK  Name = 71694388
REMARK  10 active torsions:
REMARK  status: ('A' for Active; 'I' for Inactive)
REMARK    1  A    between atoms: O_3  and  C_17
REMARK    2  A    between atoms: O_3  and  C_18
REMARK    3  A    between atoms: N_4  and  C_6
REMARK    4  A    between atoms: N_4  and  C_10
REMARK    5  A    between atoms: C_6  and  C_9
REMARK    6  A    between atoms: C_9  and  C_12
REMARK    7  A    between atoms: C_10  and  C_11
REMARK    8  A    between atoms: C_11  and  C_13
REMARK    9  A    between atoms: C_11  and  C_14
REMARK   10  A    between atoms: C_16  and  C_17
REMARK                            x       y       z     vdW  Elec       q    Type
REMARK                         _______ _______ _______ _____ _____    ______ ____
ROOT
ATOM      1  O   UNL     1       1.558   1.075  23.522  0.00  0.00    -0.376 OA
ATOM      6  C   UNL     1      -0.512   0.691  23.891  0.00  0.00    +0.072 C 
ATOM      7  C   UNL     1       0.591   1.581  24.481  0.00  0.00    +0.184 C 
ATOM      8  C   UNL     1       0.638   0.023  23.127  0.00  0.00    +0.184 C 
ENDROOT
BRANCH   6   4
ATOM      4  N   UNL     1      -0.975  -0.232  24.931  0.00  0.00    -0.306 NA
ATOM     19  H   UNL     1      -0.269  -0.520  25.607  0.00  0.00    +0.123 HD
BRANCH   4  10
ATOM     10  C   UNL     1      -1.580  -1.402  24.304  0.00  0.00    +0.084 C 
BRANCH  10  11
ATOM     11  C   UNL     1      -2.956  -1.743  24.900  0.00  0.00    -0.003 C 
ATOM     13  C   UNL     1      -4.093  -1.578  23.888  0.00  0.00    +0.008 C 
ATOM     14  C   UNL     1      -3.223  -0.860  26.122  0.00  0.00    +0.008 C 
ENDBRANCH  10  11
ENDBRANCH   4  10
ENDBRANCH   6   4
BRANCH   6   9
ATOM      9  C   UNL     1      -1.638   1.325  23.115  0.00  0.00    +0.085 C 
BRANCH   9  12
ATOM      2  O   UNL     1      -3.098   3.335  25.733  0.00  0.00    -0.357 OA
ATOM      5  N   UNL     1      -2.023   2.700  25.125  0.00  0.00    -0.083 NA
ATOM     12  C   UNL     1      -2.535   2.118  24.037  0.00  0.00    +0.086 A 
ATOM     15  C   UNL     1      -3.915   2.349  23.909  0.00  0.00    +0.073 A 
ATOM     16  C   UNL     1      -4.220   3.119  25.000  0.00  0.00    +0.163 A 
BRANCH  16  17
ATOM     17  C   UNL     1      -5.459   3.724  25.504  0.00  0.00    +0.236 C 
BRANCH  17   3
ATOM      3  O   UNL     1      -6.033   2.901  26.523  0.00  0.00    -0.375 OA
ATOM     18  C   UNL     1      -6.255   1.581  26.052  0.00  0.00    +0.194 C 
ENDBRANCH  17   3
ENDBRANCH  16  17
ENDBRANCH   9  12
ENDBRANCH   6   9
TORSDOF 7
ENDMDL
MODEL 6
REMARK VINA RESULT:      -5.1      2.558      4.348
REMARK  Name = 71694388
REMARK  10 active torsions:
REMARK  status: ('A' for Active; 'I' for Inactive)
REMARK    1  A    between atoms: O_3  and  C_17
REMARK    2  A    between atoms: O_3  and  C_18
REMARK    3  A    between atoms: N_4  and  C_6
REMARK    4  A    between atoms: N_4  and  C_10
REMARK    5  A    between atoms: C_6  and  C_9
REMARK    6  A    between atoms: C_9  and  C_12
REMARK    7  A    between atoms: C_10  and  C_11
REMARK    8  A    between atoms: C_11  and  C_13
REMARK    9  A    between atoms: C_11  and  C_14
REMARK   10  A    between atoms: C_16  and  C_17
REMARK                            x       y       z     vdW  Elec       q    Type
REMARK                         _______ _______ _______ _____ _____    ______ ____
ROOT
ATOM      1  O   UNL     1      -4.072  -3.259  24.400  0.00  0.00    -0.376 OA
ATOM      6  C   UNL     1      -2.943  -1.484  24.773  0.00  0.00    +0.072 C 
ATOM      7  C   UNL     1      -3.303  -2.769  25.531  0.00  0.00    +0.184 C 
ATOM      8  C   UNL     1      -3.999  -1.955  23.765  0.00  0.00    +0.184 C 
ENDROOT
BRANCH   6   4
ATOM      4  N   UNL     1      -3.484  -0.339  25.510  0.00  0.00    -0.306 NA
ATOM     19  H   UNL     1      -3.884  -0.553  26.422  0.00  0.00    +0.123 HD
BRANCH   4  10
ATOM     10  C   UNL     1      -4.466   0.350  24.678  0.00  0.00    +0.084 C 
BRANCH  10  11
ATOM     11  C   UNL     1      -4.628   1.830  25.065  0.00  0.00    -0.003 C 
ATOM     13  C   UNL     1      -6.071   2.188  25.430  0.00  0.00    +0.008 C 
ATOM     14  C   UNL     1      -4.153   2.720  23.913  0.00  0.00    +0.008 C 
ENDBRANCH  10  11
ENDBRANCH   4  10
ENDBRANCH   6   4
BRANCH   6   9
ATOM      9  C   UNL     1      -1.525  -1.274  24.305  0.00  0.00    +0.085 C 
BRANCH   9  12
ATOM      2  O   UNL     1      -0.409   1.828  25.776  0.00  0.00    -0.357 OA
ATOM      5  N   UNL     1      -0.784   0.493  25.858  0.00  0.00    -0.083 NA
ATOM     12  C   UNL     1      -1.074   0.138  24.603  0.00  0.00    +0.086 A 
ATOM     15  C   UNL     1      -0.903   1.198  23.696  0.00  0.00    +0.073 A 
ATOM     16  C   UNL     1      -0.484   2.237  24.484  0.00  0.00    +0.163 A 
BRANCH  16  17
ATOM     17  C   UNL     1      -0.119   3.633  24.216  0.00  0.00    +0.236 C 
BRANCH  17   3
ATOM      3  O   UNL     1      -0.508   4.467  25.312  0.00  0.00    -0.375 OA
ATOM     18  C   UNL     1      -1.672   5.215  24.998  0.00  0.00    +0.194 C 
ENDBRANCH  17   3
ENDBRANCH  16  17
ENDBRANCH   9  12
ENDBRANCH   6   9
TORSDOF 7
ENDMDL
MODEL 7
REMARK VINA RESULT:      -5.0      2.686      5.153
REMARK  Name = 71694388
REMARK  10 active torsions:
REMARK  status: ('A' for Active; 'I' for Inactive)
REMARK    1  A    between atoms: O_3  and  C_17
REMARK    2  A    between atoms: O_3  and  C_18
REMARK    3  A    between atoms: N_4  and  C_6
REMARK    4  A    between atoms: N_4  and  C_10
REMARK    5  A    between atoms: C_6  and  C_9
REMARK    6  A    between atoms: C_9  and  C_12
REMARK    7  A    between atoms: C_10  and  C_11
REMARK    8  A    between atoms: C_11  and  C_13
REMARK    9  A    between atoms: C_11  and  C_14
REMARK   10  A    between atoms: C_16  and  C_17
REMARK                            x       y       z     vdW  Elec       q    Type
REMARK                         _______ _______ _______ _____ _____    ______ ____
ROOT
ATOM      1  O   UNL     1      -3.330  -3.220  25.076  0.00  0.00    -0.376 OA
ATOM      6  C   UNL     1      -2.858  -1.184  24.631  0.00  0.00    +0.072 C 
ATOM      7  C   UNL     1      -2.364  -2.574  24.205  0.00  0.00    +0.184 C 
ATOM      8  C   UNL     1      -3.628  -1.950  25.714  0.00  0.00    +0.184 C 
ENDROOT
BRANCH   6   4
ATOM      4  N   UNL     1      -1.749  -0.469  25.269  0.00  0.00    -0.306 NA
ATOM     19  H   UNL     1      -1.861   0.541  25.337  0.00  0.00    +0.123 HD
BRANCH   4  10
ATOM     10  C   UNL     1      -0.505  -0.795  24.581  0.00  0.00    +0.084 C 
BRANCH  10  11
ATOM     11  C   UNL     1      -0.037   0.334  23.646  0.00  0.00    -0.003 C 
ATOM     13  C   UNL     1       1.187  -0.060  22.815  0.00  0.00    +0.008 C 
ATOM     14  C   UNL     1       0.279   1.587  24.466  0.00  0.00    +0.008 C 
ENDBRANCH  10  11
ENDBRANCH   4  10
ENDBRANCH   6   4
BRANCH   6   9
ATOM      9  C   UNL     1      -3.623  -0.338  23.646  0.00  0.00    +0.085 C 
BRANCH   9  12
ATOM      2  O   UNL     1      -4.448   2.711  25.396  0.00  0.00    -0.357 OA
ATOM      5  N   UNL     1      -4.563   1.341  25.189  0.00  0.00    -0.083 NA
ATOM     12  C   UNL     1      -3.755   1.079  24.157  0.00  0.00    +0.086 A 
ATOM     15  C   UNL     1      -3.113   2.232  23.676  0.00  0.00    +0.073 A 
ATOM     16  C   UNL     1      -3.582   3.230  24.489  0.00  0.00    +0.163 A 
BRANCH  16  17
ATOM     17  C   UNL     1      -3.342   4.676  24.565  0.00  0.00    +0.236 C 
BRANCH  17   3
ATOM      3  O   UNL     1      -2.367   4.965  25.571  0.00  0.00    -0.375 OA
ATOM     18  C   UNL     1      -1.061   5.007  25.020  0.00  0.00    +0.194 C 
ENDBRANCH  17   3
ENDBRANCH  16  17
ENDBRANCH   9  12
ENDBRANCH   6   9
TORSDOF 7
ENDMDL
MODEL 8
REMARK VINA RESULT:      -4.7      2.930      5.109
REMARK  Name = 71694388
REMARK  10 active torsions:
REMARK  status: ('A' for Active; 'I' for Inactive)
REMARK    1  A    between atoms: O_3  and  C_17
REMARK    2  A    between atoms: O_3  and  C_18
REMARK    3  A    between atoms: N_4  and  C_6
REMARK    4  A    between atoms: N_4  and  C_10
REMARK    5  A    between atoms: C_6  and  C_9
REMARK    6  A    between atoms: C_9  and  C_12
REMARK    7  A    between atoms: C_10  and  C_11
REMARK    8  A    between atoms: C_11  and  C_13
REMARK    9  A    between atoms: C_11  and  C_14
REMARK   10  A    between atoms: C_16  and  C_17
REMARK                            x       y       z     vdW  Elec       q    Type
REMARK                         _______ _______ _______ _____ _____    ______ ____
ROOT
ATOM      1  O   UNL     1      -6.224   3.954  25.750  0.00  0.00    -0.376 OA
ATOM      6  C   UNL     1      -4.298   3.260  25.137  0.00  0.00    +0.072 C 
ATOM      7  C   UNL     1      -5.453   2.752  26.012  0.00  0.00    +0.184 C 
ATOM      8  C   UNL     1      -5.060   4.591  25.160  0.00  0.00    +0.184 C 
ENDROOT
BRANCH   6   4
ATOM      4  N   UNL     1      -3.102   3.396  25.973  0.00  0.00    -0.306 NA
ATOM     19  H   UNL     1      -3.275   3.575  26.961  0.00  0.00    +0.123 HD
BRANCH   4  10
ATOM     10  C   UNL     1      -2.239   4.432  25.416  0.00  0.00    +0.084 C 
BRANCH  10  11
ATOM     11  C   UNL     1      -0.755   4.027  25.423  0.00  0.00    -0.003 C 
ATOM     13  C   UNL     1      -0.180   3.878  24.012  0.00  0.00    +0.008 C 
ATOM     14  C   UNL     1      -0.581   2.714  26.190  0.00  0.00    +0.008 C 
ENDBRANCH  10  11
ENDBRANCH   4  10
ENDBRANCH   6   4
BRANCH   6   9
ATOM      9  C   UNL     1      -4.025   2.594  23.813  0.00  0.00    +0.085 C 
BRANCH   9  12
ATOM      2  O   UNL     1      -1.544  -0.028  23.873  0.00  0.00    -0.357 OA
ATOM      5  N   UNL     1      -1.986   1.239  23.513  0.00  0.00    -0.083 NA
ATOM     12  C   UNL     1      -3.223   1.328  24.012  0.00  0.00    +0.086 A 
ATOM     15  C   UNL     1      -3.610   0.159  24.689  0.00  0.00    +0.073 A 
ATOM     16  C   UNL     1      -2.519  -0.662  24.573  0.00  0.00    +0.163 A 
BRANCH  16  17
ATOM     17  C   UNL     1      -2.217  -2.022  25.034  0.00  0.00    +0.236 C 
BRANCH  17   3
ATOM      3  O   UNL     1      -3.421  -2.786  25.147  0.00  0.00    -0.375 OA
ATOM     18  C   UNL     1      -4.069  -2.909  23.891  0.00  0.00    +0.194 C 
ENDBRANCH  17   3
ENDBRANCH  16  17
ENDBRANCH   9  12
ENDBRANCH   6   9
TORSDOF 7
ENDMDL
MODEL 9
REMARK VINA RESULT:      -4.6      2.962      5.640
REMARK  Name = 71694388
REMARK  10 active torsions:
REMARK  status: ('A' for Active; 'I' for Inactive)
REMARK    1  A    between atoms: O_3  and  C_17
REMARK    2  A    between atoms: O_3  and  C_18
REMARK    3  A    between atoms: N_4  and  C_6
REMARK    4  A    between atoms: N_4  and  C_10
REMARK    5  A    between atoms: C_6  and  C_9
REMARK    6  A    between atoms: C_9  and  C_12
REMARK    7  A    between atoms: C_10  and  C_11
REMARK    8  A    between atoms: C_11  and  C_13
REMARK    9  A    between atoms: C_11  and  C_14
REMARK   10  A    between atoms: C_16  and  C_17
REMARK                            x       y       z     vdW  Elec       q    Type
REMARK                         _______ _______ _______ _____ _____    ______ ____
ROOT
ATOM      1  O   UNL     1      -3.266  -2.831  25.347  0.00  0.00    -0.376 OA
ATOM      6  C   UNL     1      -2.494  -0.979  24.612  0.00  0.00    +0.072 C 
ATOM      7  C   UNL     1      -2.126  -2.466  24.524  0.00  0.00    +0.184 C 
ATOM      8  C   UNL     1      -3.482  -1.437  25.692  0.00  0.00    +0.184 C 
ENDROOT
BRANCH   6   4
ATOM      4  N   UNL     1      -1.395  -0.263  25.265  0.00  0.00    -0.306 NA
ATOM     19  H   UNL     1      -1.669   0.385  26.002  0.00  0.00    +0.123 HD
BRANCH   4  10
ATOM     10  C   UNL     1      -0.602   0.429  24.255  0.00  0.00    +0.084 C 
BRANCH  10  11
ATOM     11  C   UNL     1       0.071   1.699  24.804  0.00  0.00    -0.003 C 
ATOM     13  C   UNL     1      -0.286   1.968  26.268  0.00  0.00    +0.008 C 
ATOM     14  C   UNL     1      -0.324   2.905  23.947  0.00  0.00    +0.008 C 
ENDBRANCH  10  11
ENDBRANCH   4  10
ENDBRANCH   6   4
BRANCH   6   9
ATOM      9  C   UNL     1      -3.020  -0.273  23.389  0.00  0.00    +0.085 C 
BRANCH   9  12
ATOM      2  O   UNL     1      -3.971   3.205  23.571  0.00  0.00    -0.357 OA
ATOM      5  N   UNL     1      -3.346   2.132  22.948  0.00  0.00    -0.083 NA
ATOM     12  C   UNL     1      -3.563   1.089  23.756  0.00  0.00    +0.086 A 
ATOM     15  C   UNL     1      -4.311   1.441  24.892  0.00  0.00    +0.073 A 
ATOM     16  C   UNL     1      -4.542   2.782  24.727  0.00  0.00    +0.163 A 
BRANCH  16  17
ATOM     17  C   UNL     1      -5.250   3.796  25.518  0.00  0.00    +0.236 C 
BRANCH  17   3
ATOM      3  O   UNL     1      -4.449   4.206  26.630  0.00  0.00    -0.375 OA
ATOM     18  C   UNL     1      -3.087   4.337  26.258  0.00  0.00    +0.194 C 
ENDBRANCH  17   3
ENDBRANCH  16  17
ENDBRANCH   9  12
ENDBRANCH   6   9
TORSDOF 7
ENDMDL
MODEL 10
REMARK VINA RESULT:      -4.3      2.729      3.460
REMARK  Name = 71694388
REMARK  10 active torsions:
REMARK  status: ('A' for Active; 'I' for Inactive)
REMARK    1  A    between atoms: O_3  and  C_17
REMARK    2  A    between atoms: O_3  and  C_18
REMARK    3  A    between atoms: N_4  and  C_6
REMARK    4  A    between atoms: N_4  and  C_10
REMARK    5  A    between atoms: C_6  and  C_9
REMARK    6  A    between atoms: C_9  and  C_12
REMARK    7  A    between atoms: C_10  and  C_11
REMARK    8  A    between atoms: C_11  and  C_13
REMARK    9  A    between atoms: C_11  and  C_14
REMARK   10  A    between atoms: C_16  and  C_17
REMARK                            x       y       z     vdW  Elec       q    Type
REMARK                         _______ _______ _______ _____ _____    ______ ____
ROOT
ATOM      1  O   UNL     1      -5.853   3.723  25.661  0.00  0.00    -0.376 OA
ATOM      6  C   UNL     1      -4.382   2.316  25.011  0.00  0.00    +0.072 C 
ATOM      7  C   UNL     1      -5.806   2.723  24.608  0.00  0.00    +0.184 C 
ATOM      8  C   UNL     1      -4.641   3.183  26.250  0.00  0.00    +0.184 C 
ENDROOT
BRANCH   6   4
ATOM      4  N   UNL     1      -4.396   0.909  25.420  0.00  0.00    -0.306 NA
ATOM     19  H   UNL     1      -3.667   0.636  26.077  0.00  0.00    +0.123 HD
BRANCH   4  10
ATOM     10  C   UNL     1      -4.347   0.061  24.233  0.00  0.00    +0.084 C 
BRANCH  10  11
ATOM     11  C   UNL     1      -3.513  -1.213  24.454  0.00  0.00    -0.003 C 
ATOM     13  C   UNL     1      -4.202  -2.468  23.913  0.00  0.00    +0.008 C 
ATOM     14  C   UNL     1      -3.223  -1.388  25.947  0.00  0.00    +0.008 C 
ENDBRANCH  10  11
ENDBRANCH   4  10
ENDBRANCH   6   4
BRANCH   6   9
ATOM      9  C   UNL     1      -3.230   2.661  24.103  0.00  0.00    +0.085 C 
BRANCH   9  12
ATOM      2  O   UNL     1       0.003   1.518  25.232  0.00  0.00    -0.357 OA
ATOM      5  N   UNL     1      -1.095   1.458  24.383  0.00  0.00    -0.083 NA
ATOM     12  C   UNL     1      -1.913   2.427  24.807  0.00  0.00    +0.086 A 
ATOM     15  C   UNL     1      -1.389   3.123  25.909  0.00  0.00    +0.073 A 
ATOM     16  C   UNL     1      -0.183   2.512  26.137  0.00  0.00    +0.163 A 
BRANCH  16  17
ATOM     17  C   UNL     1       0.889   2.716  27.118  0.00  0.00    +0.236 C 
BRANCH  17   3
ATOM      3  O   UNL     1       0.485   2.231  28.402  0.00  0.00    -0.375 OA
ATOM     18  C   UNL     1       1.492   2.456  29.375  0.00  0.00    +0.194 C 
ENDBRANCH  17   3
ENDBRANCH  16  17
ENDBRANCH   9  12
ENDBRANCH   6   9
TORSDOF 7
ENDMDL
