MODEL 1
REMARK VINA RESULT:      10.5      0.000      0.000
REMARK  Name = 44716470
REMARK  8 active torsions:
REMARK  status: ('A' for Active; 'I' for Inactive)
REMARK    1  A    between atoms: O_2  and  C_21
REMARK    2  A    between atoms: O_2  and  C_35
REMARK    3  A    between atoms: N_6  and  C_12
REMARK    4  A    between atoms: N_6  and  C_22
REMARK    5  A    between atoms: N_8  and  C_26
REMARK    6  A    between atoms: C_10  and  C_18
REMARK    7  A    between atoms: C_14  and  C_21
REMARK    8  A    between atoms: C_22  and  C_26
REMARK                            x       y       z     vdW  Elec       q    Type
REMARK                         _______ _______ _______ _____ _____    ______ ____
ROOT
ATOM      5  N   UNL     1      -1.031   1.519  25.841  0.00  0.00    -0.274 NA
ATOM      7  N   UNL     1      -3.773   0.024  23.755  0.00  0.00    -0.356 N 
ATOM      9  C   UNL     1      -2.037   1.627  24.739  0.00  0.00    +0.106 C 
ATOM     10  C   UNL     1      -0.374   2.820  26.123  0.00  0.00    +0.090 C 
ATOM     11  C   UNL     1      -3.111   2.670  25.085  0.00  0.00    +0.044 C 
ATOM     12  C   UNL     1      -2.471   4.036  25.334  0.00  0.00    +0.057 C 
ATOM     13  C   UNL     1      -1.421   3.916  26.437  0.00  0.00    +0.042 C 
ATOM     14  C   UNL     1      -0.098   0.373  25.662  0.00  0.00    +0.172 C 
ATOM     15  C   UNL     1      -2.639   0.280  24.474  0.00  0.00    +0.038 A 
ATOM     16  C   UNL     1      -0.830  -0.993  25.641  0.00  0.00    +0.068 C 
ATOM     17  C   UNL     1      -2.095  -0.926  24.859  0.00  0.00    -0.016 A 
ATOM     19  C   UNL     1      -2.949  -1.959  24.387  0.00  0.00    +0.003 A 
ATOM     20  C   UNL     1      -3.994  -1.336  23.698  0.00  0.00    +0.047 A 
ATOM     25  C   UNL     1      -2.937  -3.366  24.472  0.00  0.00    +0.010 A 
ATOM     27  C   UNL     1      -5.030  -2.055  23.091  0.00  0.00    +0.026 A 
ATOM     28  C   UNL     1      -3.968  -4.096  23.870  0.00  0.00    +0.001 A 
ATOM     31  C   UNL     1      -4.997  -3.448  23.190  0.00  0.00    +0.002 A 
ATOM     39  H   UNL     1      -4.367   0.721  23.326  0.00  0.00    +0.166 HD
ENDROOT
BRANCH  10  18
ATOM      1  F   UNL     1       3.295   2.672  30.424  0.00  0.00    -0.205 F 
ATOM     18  C   UNL     1       0.617   2.780  27.284  0.00  0.00    -0.030 A 
ATOM     23  C   UNL     1       0.198   2.347  28.542  0.00  0.00    +0.008 A 
ATOM     24  C   UNL     1       1.939   3.176  27.086  0.00  0.00    +0.008 A 
ATOM     29  C   UNL     1       1.103   2.312  29.603  0.00  0.00    +0.038 A 
ATOM     30  C   UNL     1       2.844   3.139  28.147  0.00  0.00    +0.038 A 
ATOM     32  C   UNL     1       2.425   2.707  29.406  0.00  0.00    +0.123 A 
ENDBRANCH  10  18
BRANCH  14  21
ATOM      3  O   UNL     1       1.344   1.583  24.155  0.00  0.00    -0.249 OA
ATOM     21  C   UNL     1       0.731   0.559  24.422  0.00  0.00    +0.325 C 
BRANCH  21   2
ATOM      2  O   UNL     1       0.683  -0.577  23.669  0.00  0.00    -0.467 OA
ATOM     35  C   UNL     1       1.280  -0.480  22.372  0.00  0.00    +0.280 C 
ENDBRANCH  21   2
ENDBRANCH  14  21
BRANCH  12   6
ATOM      6  N   UNL     1      -3.496   5.013  25.693  0.00  0.00    -0.312 NA
ATOM     38  H   UNL     1      -3.813   4.848  26.648  0.00  0.00    +0.122 HD
BRANCH   6  22
ATOM     22  C   UNL     1      -4.638   4.916  24.797  0.00  0.00    +0.096 C 
BRANCH  22  26
ATOM     26  C   UNL     1      -5.934   4.853  25.600  0.00  0.00    +0.099 C 
BRANCH  26   8
ATOM      4  O   UNL     1      -5.959   0.662  25.809  0.00  0.00    -0.377 OA
ATOM      8  N   UNL     1      -6.400   3.472  25.698  0.00  0.00    -0.297 NA
ATOM     33  C   UNL     1      -6.014   2.706  24.504  0.00  0.00    +0.112 C 
ATOM     34  C   UNL     1      -5.867   2.825  26.905  0.00  0.00    +0.112 C 
ATOM     36  C   UNL     1      -6.501   1.265  24.634  0.00  0.00    +0.175 C 
ATOM     37  C   UNL     1      -6.355   1.381  26.977  0.00  0.00    +0.175 C 
ENDBRANCH  26   8
ENDBRANCH  22  26
ENDBRANCH   6  22
ENDBRANCH  12   6
TORSDOF 7
ENDMDL
MODEL 2
REMARK VINA RESULT:      14.1      3.385      8.374
REMARK  Name = 44716470
REMARK  8 active torsions:
REMARK  status: ('A' for Active; 'I' for Inactive)
REMARK    1  A    between atoms: O_2  and  C_21
REMARK    2  A    between atoms: O_2  and  C_35
REMARK    3  A    between atoms: N_6  and  C_12
REMARK    4  A    between atoms: N_6  and  C_22
REMARK    5  A    between atoms: N_8  and  C_26
REMARK    6  A    between atoms: C_10  and  C_18
REMARK    7  A    between atoms: C_14  and  C_21
REMARK    8  A    between atoms: C_22  and  C_26
REMARK                            x       y       z     vdW  Elec       q    Type
REMARK                         _______ _______ _______ _____ _____    ______ ____
ROOT
ATOM      5  N   UNL     1      -1.661   2.205  25.251  0.00  0.00    -0.274 NA
ATOM      7  N   UNL     1       1.818   2.266  26.666  0.00  0.00    -0.356 N 
ATOM      9  C   UNL     1      -0.182   2.343  25.070  0.00  0.00    +0.106 C 
ATOM     10  C   UNL     1      -2.378   2.162  23.951  0.00  0.00    +0.090 C 
ATOM     11  C   UNL     1       0.372   1.183  24.227  0.00  0.00    +0.044 C 
ATOM     12  C   UNL     1      -0.313   1.141  22.861  0.00  0.00    +0.057 C 
ATOM     13  C   UNL     1      -1.824   1.032  23.048  0.00  0.00    +0.042 C 
ATOM     14  C   UNL     1      -2.215   3.171  26.238  0.00  0.00    +0.172 C 
ATOM     15  C   UNL     1       0.484   2.420  26.411  0.00  0.00    +0.038 A 
ATOM     16  C   UNL     1      -1.611   2.989  27.654  0.00  0.00    +0.068 C 
ATOM     17  C   UNL     1      -0.146   2.731  27.597  0.00  0.00    -0.016 A 
ATOM     19  C   UNL     1       0.837   2.733  28.623  0.00  0.00    +0.003 A 
ATOM     20  C   UNL     1       2.060   2.439  28.012  0.00  0.00    +0.047 A 
ATOM     25  C   UNL     1       0.812   2.962  30.013  0.00  0.00    +0.010 A 
ATOM     27  C   UNL     1       3.260   2.360  28.728  0.00  0.00    +0.026 A 
ATOM     28  C   UNL     1       2.005   2.884  30.741  0.00  0.00    +0.001 A 
ATOM     31  C   UNL     1       3.209   2.588  30.106  0.00  0.00    +0.002 A 
ATOM     39  H   UNL     1       2.527   2.057  25.976  0.00  0.00    +0.166 HD
ENDROOT
BRANCH  10  18
ATOM      1  F   UNL     1      -7.962   1.404  24.417  0.00  0.00    -0.205 F 
ATOM     18  C   UNL     1      -3.886   1.957  24.077  0.00  0.00    -0.030 A 
ATOM     23  C   UNL     1      -4.753   3.033  23.888  0.00  0.00    +0.008 A 
ATOM     24  C   UNL     1      -4.395   0.695  24.381  0.00  0.00    +0.008 A 
ATOM     29  C   UNL     1      -6.130   2.846  24.004  0.00  0.00    +0.038 A 
ATOM     30  C   UNL     1      -5.773   0.508  24.495  0.00  0.00    +0.038 A 
ATOM     32  C   UNL     1      -6.640   1.584  24.307  0.00  0.00    +0.123 A 
ENDBRANCH  10  18
BRANCH  14  21
ATOM      3  O   UNL     1      -1.048   4.973  25.140  0.00  0.00    -0.249 OA
ATOM     21  C   UNL     1      -2.032   4.582  25.754  0.00  0.00    +0.325 C 
BRANCH  21   2
ATOM      2  O   UNL     1      -3.117   5.329  26.105  0.00  0.00    -0.467 OA
ATOM     35  C   UNL     1      -4.258   4.586  26.545  0.00  0.00    +0.280 C 
ENDBRANCH  21   2
ENDBRANCH  14  21
BRANCH  12   6
ATOM      6  N   UNL     1       0.198   0.016  22.079  0.00  0.00    -0.312 NA
ATOM     38  H   UNL     1      -0.472  -0.753  22.100  0.00  0.00    +0.122 HD
BRANCH   6  22
ATOM     22  C   UNL     1       1.466  -0.452  22.616  0.00  0.00    +0.096 C 
BRANCH  22  26
ATOM     26  C   UNL     1       2.626   0.197  21.869  0.00  0.00    +0.099 C 
BRANCH  26   8
ATOM      4  O   UNL     1       5.649  -0.485  24.700  0.00  0.00    -0.377 OA
ATOM      8  N   UNL     1       3.898  -0.194  22.475  0.00  0.00    -0.297 NA
ATOM     33  C   UNL     1       4.561   0.966  23.088  0.00  0.00    +0.112 C 
ATOM     34  C   UNL     1       3.696  -1.247  23.478  0.00  0.00    +0.112 C 
ATOM     36  C   UNL     1       5.879   0.532  23.723  0.00  0.00    +0.175 C 
ATOM     37  C   UNL     1       5.034  -1.628  24.106  0.00  0.00    +0.175 C 
ENDBRANCH  26   8
ENDBRANCH  22  26
ENDBRANCH   6  22
ENDBRANCH  12   6
TORSDOF 7
ENDMDL
