MODEL 1
REMARK VINA RESULT:      -0.3      0.000      0.000
REMARK  Name = 40777425
REMARK  9 active torsions:
REMARK  status: ('A' for Active; 'I' for Inactive)
REMARK    1  A    between atoms: O_4  and  C_28
REMARK    2  A    between atoms: O_4  and  C_32
REMARK    3  A    between atoms: N_6  and  C_19
REMARK    4  A    between atoms: C_8  and  C_14
REMARK    5  A    between atoms: C_9  and  C_13
REMARK    6  A    between atoms: C_13  and  C_15
REMARK    7  A    between atoms: C_14  and  C_16
REMARK    8  A    between atoms: C_18  and  C_20
REMARK    9  A    between atoms: C_19  and  C_21
REMARK                            x       y       z     vdW  Elec       q    Type
REMARK                         _______ _______ _______ _____ _____    ______ ____
ROOT
ATOM      5  N   UNL     1      -0.507   5.261  24.629  0.00  0.00    -0.316 NA
ATOM      8  C   UNL     1      -2.895   3.859  25.648  0.00  0.00    +0.004 C 
ATOM      9  C   UNL     1      -1.624   3.112  25.175  0.00  0.00    +0.012 C 
ATOM     10  C   UNL     1      -2.509   5.284  26.075  0.00  0.00    +0.019 C 
ATOM     11  C   UNL     1      -0.843   3.926  24.131  0.00  0.00    +0.085 C 
ATOM     12  C   UNL     1      -1.700   6.015  25.005  0.00  0.00    +0.081 C 
ATOM     33  H   UNL     1       0.002   5.772  23.908  0.00  0.00    +0.122 HD
ENDROOT
BRANCH   9  13
ATOM     13  C   UNL     1      -1.917   1.705  24.650  0.00  0.00    +0.064 C 
BRANCH  13  15
ATOM      3  O   UNL     1       0.492  -0.171  22.742  0.00  0.00    -0.354 OA
ATOM      7  N   UNL     1      -0.810   0.209  23.046  0.00  0.00    -0.083 NA
ATOM     15  C   UNL     1      -0.690   1.077  24.054  0.00  0.00    +0.085 A 
ATOM     17  C   UNL     1       0.649   1.283  24.426  0.00  0.00    +0.076 A 
ATOM     18  C   UNL     1       1.352   0.476  23.570  0.00  0.00    +0.167 A 
BRANCH  18  20
ATOM     20  C   UNL     1       2.742   0.182  23.374  0.00  0.00    +0.020 A 
ATOM     22  C   UNL     1       3.259  -1.049  23.777  0.00  0.00    +0.015 A 
ATOM     23  C   UNL     1       3.577   1.128  22.779  0.00  0.00    +0.015 A 
ATOM     26  C   UNL     1       4.611  -1.334  23.586  0.00  0.00    +0.046 A 
ATOM     27  C   UNL     1       4.929   0.843  22.588  0.00  0.00    +0.046 A 
ATOM     28  C   UNL     1       5.445  -0.388  22.992  0.00  0.00    +0.120 A 
BRANCH  28   4
ATOM      4  O   UNL     1       6.764  -0.666  22.803  0.00  0.00    -0.495 OA
ATOM     32  C   UNL     1       7.704   0.096  23.560  0.00  0.00    +0.277 C 
ENDBRANCH  28   4
ENDBRANCH  18  20
ENDBRANCH  13  15
ENDBRANCH   9  13
BRANCH   8  14
ATOM     14  C   UNL     1      -4.024   3.887  24.611  0.00  0.00    +0.099 C 
BRANCH  14  16
ATOM      2  O   UNL     1      -4.073   2.061  23.024  0.00  0.00    -0.276 OA
ATOM      6  N   UNL     1      -5.124   1.812  25.082  0.00  0.00    -0.311 N 
ATOM     16  C   UNL     1      -4.391   2.500  24.126  0.00  0.00    +0.214 C 
ATOM     34  H   UNL     1      -5.351   2.273  25.959  0.00  0.00    +0.149 HD
BRANCH   6  19
ATOM     19  C   UNL     1      -5.610   0.465  24.886  0.00  0.00    +0.139 C 
BRANCH  19  21
ATOM      1  F   UNL     1      -1.433  -3.309  24.927  0.00  0.00    -0.205 F 
ATOM     21  C   UNL     1      -4.496  -0.541  24.898  0.00  0.00    -0.030 A 
ATOM     24  C   UNL     1      -4.353  -1.435  23.836  0.00  0.00    +0.008 A 
ATOM     25  C   UNL     1      -3.603  -0.582  25.969  0.00  0.00    +0.008 A 
ATOM     29  C   UNL     1      -3.319  -2.370  23.847  0.00  0.00    +0.038 A 
ATOM     30  C   UNL     1      -2.569  -1.518  25.979  0.00  0.00    +0.038 A 
ATOM     31  C   UNL     1      -2.426  -2.412  24.917  0.00  0.00    +0.123 A 
ENDBRANCH  19  21
ENDBRANCH   6  19
ENDBRANCH  14  16
ENDBRANCH   8  14
TORSDOF 8
ENDMDL
MODEL 2
REMARK VINA RESULT:       1.7      1.757      2.230
REMARK  Name = 40777425
REMARK  9 active torsions:
REMARK  status: ('A' for Active; 'I' for Inactive)
REMARK    1  A    between atoms: O_4  and  C_28
REMARK    2  A    between atoms: O_4  and  C_32
REMARK    3  A    between atoms: N_6  and  C_19
REMARK    4  A    between atoms: C_8  and  C_14
REMARK    5  A    between atoms: C_9  and  C_13
REMARK    6  A    between atoms: C_13  and  C_15
REMARK    7  A    between atoms: C_14  and  C_16
REMARK    8  A    between atoms: C_18  and  C_20
REMARK    9  A    between atoms: C_19  and  C_21
REMARK                            x       y       z     vdW  Elec       q    Type
REMARK                         _______ _______ _______ _____ _____    ______ ____
ROOT
ATOM      5  N   UNL     1      -4.455   5.449  23.938  0.00  0.00    -0.316 NA
ATOM      8  C   UNL     1      -4.298   2.872  25.368  0.00  0.00    +0.004 C 
ATOM      9  C   UNL     1      -3.333   3.251  24.218  0.00  0.00    +0.012 C 
ATOM     10  C   UNL     1      -4.846   4.159  26.008  0.00  0.00    +0.019 C 
ATOM     11  C   UNL     1      -3.977   4.252  23.245  0.00  0.00    +0.085 C 
ATOM     12  C   UNL     1      -5.430   5.121  24.976  0.00  0.00    +0.081 C 
ATOM     33  H   UNL     1      -4.881   6.083  23.262  0.00  0.00    +0.122 HD
ENDROOT
BRANCH   9  13
ATOM     13  C   UNL     1      -2.796   2.036  23.462  0.00  0.00    +0.064 C 
BRANCH  13  15
ATOM      3  O   UNL     1       0.687   2.376  24.310  0.00  0.00    -0.354 OA
ATOM      7  N   UNL     1      -0.640   2.786  24.372  0.00  0.00    -0.083 NA
ATOM     15  C   UNL     1      -1.309   1.902  23.627  0.00  0.00    +0.085 A 
ATOM     17  C   UNL     1      -0.467   0.922  23.075  0.00  0.00    +0.076 A 
ATOM     18  C   UNL     1       0.777   1.265  23.536  0.00  0.00    +0.167 A 
BRANCH  18  20
ATOM     20  C   UNL     1       2.095   0.721  23.379  0.00  0.00    +0.020 A 
ATOM     22  C   UNL     1       2.319  -0.639  23.590  0.00  0.00    +0.015 A 
ATOM     23  C   UNL     1       3.153   1.553  23.013  0.00  0.00    +0.015 A 
ATOM     26  C   UNL     1       3.600  -1.168  23.436  0.00  0.00    +0.046 A 
ATOM     27  C   UNL     1       4.435   1.025  22.860  0.00  0.00    +0.046 A 
ATOM     28  C   UNL     1       4.658  -0.335  23.072  0.00  0.00    +0.120 A 
BRANCH  28   4
ATOM      4  O   UNL     1       5.908  -0.850  22.920  0.00  0.00    -0.495 OA
ATOM     32  C   UNL     1       6.987  -0.117  23.498  0.00  0.00    +0.277 C 
ENDBRANCH  28   4
ENDBRANCH  18  20
ENDBRANCH  13  15
ENDBRANCH   9  13
BRANCH   8  14
ATOM     14  C   UNL     1      -5.442   1.945  24.942  0.00  0.00    +0.099 C 
BRANCH  14  16
ATOM      2  O   UNL     1      -5.257  -0.014  26.348  0.00  0.00    -0.276 OA
ATOM      6  N   UNL     1      -4.721  -0.175  24.093  0.00  0.00    -0.311 N 
ATOM     16  C   UNL     1      -5.140   0.491  25.235  0.00  0.00    +0.214 C 
ATOM     34  H   UNL     1      -4.640   0.340  23.220  0.00  0.00    +0.149 HD
BRANCH   6  19
ATOM     19  C   UNL     1      -4.363  -1.575  24.081  0.00  0.00    +0.139 C 
BRANCH  19  21
ATOM      1  F   UNL     1       0.909  -2.419  25.866  0.00  0.00    -0.205 F 
ATOM     21  C   UNL     1      -2.958  -1.800  24.557  0.00  0.00    -0.030 A 
ATOM     24  C   UNL     1      -2.199  -2.842  24.024  0.00  0.00    +0.008 A 
ATOM     25  C   UNL     1      -2.409  -0.966  25.532  0.00  0.00    +0.008 A 
ATOM     29  C   UNL     1      -0.893  -3.051  24.467  0.00  0.00    +0.038 A 
ATOM     30  C   UNL     1      -1.104  -1.176  25.975  0.00  0.00    +0.038 A 
ATOM     31  C   UNL     1      -0.345  -2.219  25.442  0.00  0.00    +0.123 A 
ENDBRANCH  19  21
ENDBRANCH   6  19
ENDBRANCH  14  16
ENDBRANCH   8  14
TORSDOF 8
ENDMDL
MODEL 3
REMARK VINA RESULT:       1.9      3.232      5.026
REMARK  Name = 40777425
REMARK  9 active torsions:
REMARK  status: ('A' for Active; 'I' for Inactive)
REMARK    1  A    between atoms: O_4  and  C_28
REMARK    2  A    between atoms: O_4  and  C_32
REMARK    3  A    between atoms: N_6  and  C_19
REMARK    4  A    between atoms: C_8  and  C_14
REMARK    5  A    between atoms: C_9  and  C_13
REMARK    6  A    between atoms: C_13  and  C_15
REMARK    7  A    between atoms: C_14  and  C_16
REMARK    8  A    between atoms: C_18  and  C_20
REMARK    9  A    between atoms: C_19  and  C_21
REMARK                            x       y       z     vdW  Elec       q    Type
REMARK                         _______ _______ _______ _____ _____    ______ ____
ROOT
ATOM      5  N   UNL     1      -6.736   3.487  25.093  0.00  0.00    -0.316 NA
ATOM      8  C   UNL     1      -3.909   2.776  24.638  0.00  0.00    +0.004 C 
ATOM      9  C   UNL     1      -5.069   1.771  24.432  0.00  0.00    +0.012 C 
ATOM     10  C   UNL     1      -4.453   4.207  24.487  0.00  0.00    +0.019 C 
ATOM     11  C   UNL     1      -6.280   2.115  25.313  0.00  0.00    +0.085 C 
ATOM     12  C   UNL     1      -5.679   4.460  25.361  0.00  0.00    +0.081 C 
ATOM     33  H   UNL     1      -7.534   3.679  25.700  0.00  0.00    +0.122 HD
ENDROOT
BRANCH   9  13
ATOM     13  C   UNL     1      -4.645   0.317  24.642  0.00  0.00    +0.064 C 
BRANCH  13  15
ATOM      3  O   UNL     1      -1.173  -0.382  25.294  0.00  0.00    -0.354 OA
ATOM      7  N   UNL     1      -2.520  -0.417  25.635  0.00  0.00    -0.083 NA
ATOM     15  C   UNL     1      -3.150   0.173  24.616  0.00  0.00    +0.085 A 
ATOM     17  C   UNL     1      -2.262   0.597  23.613  0.00  0.00    +0.076 A 
ATOM     18  C   UNL     1      -1.033   0.223  24.087  0.00  0.00    +0.167 A 
BRANCH  18  20
ATOM     20  C   UNL     1       0.312   0.332  23.600  0.00  0.00    +0.020 A 
ATOM     22  C   UNL     1       1.056   1.484  23.856  0.00  0.00    +0.015 A 
ATOM     23  C   UNL     1       0.876  -0.714  22.870  0.00  0.00    +0.015 A 
ATOM     26  C   UNL     1       2.363   1.590  23.383  0.00  0.00    +0.046 A 
ATOM     27  C   UNL     1       2.184  -0.608  22.396  0.00  0.00    +0.046 A 
ATOM     28  C   UNL     1       2.927   0.544  22.653  0.00  0.00    +0.120 A 
BRANCH  28   4
ATOM      4  O   UNL     1       4.203   0.646  22.192  0.00  0.00    -0.495 OA
ATOM     32  C   UNL     1       5.249   0.273  23.089  0.00  0.00    +0.277 C 
ENDBRANCH  28   4
ENDBRANCH  18  20
ENDBRANCH  13  15
ENDBRANCH   9  13
BRANCH   8  14
ATOM     14  C   UNL     1      -3.170   2.611  25.971  0.00  0.00    +0.099 C 
BRANCH  14  16
ATOM      2  O   UNL     1      -1.817   4.604  25.754  0.00  0.00    -0.276 OA
ATOM      6  N   UNL     1      -0.811   2.606  26.382  0.00  0.00    -0.311 N 
ATOM     16  C   UNL     1      -1.883   3.406  26.015  0.00  0.00    +0.214 C 
ATOM     34  H   UNL     1      -0.968   1.617  26.561  0.00  0.00    +0.149 HD
BRANCH   6  19
ATOM     19  C   UNL     1       0.541   3.102  26.503  0.00  0.00    +0.139 C 
BRANCH  19  21
ATOM      1  F   UNL     1       2.822   1.805  31.483  0.00  0.00    -0.205 F 
ATOM     21  C   UNL     1       1.149   2.756  27.830  0.00  0.00    -0.030 A 
ATOM     24  C   UNL     1       0.329   2.415  28.906  0.00  0.00    +0.008 A 
ATOM     25  C   UNL     1       2.535   2.774  27.989  0.00  0.00    +0.008 A 
ATOM     29  C   UNL     1       0.894   2.095  30.140  0.00  0.00    +0.038 A 
ATOM     30  C   UNL     1       3.100   2.454  29.223  0.00  0.00    +0.038 A 
ATOM     31  C   UNL     1       2.280   2.114  30.299  0.00  0.00    +0.123 A 
ENDBRANCH  19  21
ENDBRANCH   6  19
ENDBRANCH  14  16
ENDBRANCH   8  14
TORSDOF 8
ENDMDL
MODEL 4
REMARK VINA RESULT:       2.3     17.106     19.070
REMARK  Name = 40777425
REMARK  9 active torsions:
REMARK  status: ('A' for Active; 'I' for Inactive)
REMARK    1  A    between atoms: O_4  and  C_28
REMARK    2  A    between atoms: O_4  and  C_32
REMARK    3  A    between atoms: N_6  and  C_19
REMARK    4  A    between atoms: C_8  and  C_14
REMARK    5  A    between atoms: C_9  and  C_13
REMARK    6  A    between atoms: C_13  and  C_15
REMARK    7  A    between atoms: C_14  and  C_16
REMARK    8  A    between atoms: C_18  and  C_20
REMARK    9  A    between atoms: C_19  and  C_21
REMARK                            x       y       z     vdW  Elec       q    Type
REMARK                         _______ _______ _______ _____ _____    ______ ____
ROOT
ATOM      5  N   UNL     1      16.428  -1.909  25.034  0.00  0.00    -0.316 NA
ATOM      8  C   UNL     1      17.118  -4.373  26.503  0.00  0.00    +0.004 C 
ATOM      9  C   UNL     1      17.035  -4.316  24.959  0.00  0.00    +0.012 C 
ATOM     10  C   UNL     1      17.405  -2.962  27.043  0.00  0.00    +0.019 C 
ATOM     11  C   UNL     1      16.070  -3.217  24.484  0.00  0.00    +0.085 C 
ATOM     12  C   UNL     1      16.433  -1.919  26.495  0.00  0.00    +0.081 C 
ATOM     33  H   UNL     1      15.762  -1.210  24.703  0.00  0.00    +0.122 HD
ENDROOT
BRANCH   9  13
ATOM     13  C   UNL     1      16.671  -5.660  24.329  0.00  0.00    +0.064 C 
BRANCH  13  15
ATOM      3  O   UNL     1      17.112  -8.809  26.017  0.00  0.00    -0.354 OA
ATOM      7  N   UNL     1      17.002  -8.034  24.869  0.00  0.00    -0.083 NA
ATOM     15  C   UNL     1      16.830  -6.786  25.310  0.00  0.00    +0.085 A 
ATOM     17  C   UNL     1      16.822  -6.711  26.713  0.00  0.00    +0.076 A 
ATOM     18  C   UNL     1      17.004  -8.010  27.109  0.00  0.00    +0.167 A 
BRANCH  18  20
ATOM     20  C   UNL     1      17.100  -8.673  28.377  0.00  0.00    +0.020 A 
ATOM     22  C   UNL     1      17.309 -10.051  28.431  0.00  0.00    +0.015 A 
ATOM     23  C   UNL     1      16.985  -7.939  29.558  0.00  0.00    +0.015 A 
ATOM     26  C   UNL     1      17.403 -10.696  29.664  0.00  0.00    +0.046 A 
ATOM     27  C   UNL     1      17.078  -8.583  30.791  0.00  0.00    +0.046 A 
ATOM     28  C   UNL     1      17.287  -9.962  30.844  0.00  0.00    +0.120 A 
BRANCH  28   4
ATOM      4  O   UNL     1      17.380 -10.590  32.048  0.00  0.00    -0.495 OA
ATOM     32  C   UNL     1      16.175 -10.738  32.798  0.00  0.00    +0.277 C 
ENDBRANCH  28   4
ENDBRANCH  18  20
ENDBRANCH  13  15
ENDBRANCH   9  13
BRANCH   8  14
ATOM     14  C   UNL     1      15.875  -4.971  27.173  0.00  0.00    +0.099 C 
BRANCH  14  16
ATOM      2  O   UNL     1      16.894  -4.410  29.294  0.00  0.00    -0.276 OA
ATOM      6  N   UNL     1      14.826  -5.469  29.267  0.00  0.00    -0.311 N 
ATOM     16  C   UNL     1      15.950  -4.904  28.683  0.00  0.00    +0.214 C 
ATOM     34  H   UNL     1      14.105  -5.869  28.671  0.00  0.00    +0.149 HD
BRANCH   6  19
ATOM     19  C   UNL     1      14.630  -5.544  30.697  0.00  0.00    +0.139 C 
BRANCH  19  21
ATOM      1  F   UNL     1      10.500  -9.113  32.073  0.00  0.00    -0.205 F 
ATOM     21  C   UNL     1      13.529  -6.495  31.064  0.00  0.00    -0.030 A 
ATOM     24  C   UNL     1      13.492  -7.770  30.499  0.00  0.00    +0.008 A 
ATOM     25  C   UNL     1      12.543  -6.105  31.970  0.00  0.00    +0.008 A 
ATOM     29  C   UNL     1      12.468  -8.654  30.840  0.00  0.00    +0.038 A 
ATOM     30  C   UNL     1      11.519  -6.988  32.310  0.00  0.00    +0.038 A 
ATOM     31  C   UNL     1      11.482  -8.264  31.746  0.00  0.00    +0.123 A 
ENDBRANCH  19  21
ENDBRANCH   6  19
ENDBRANCH  14  16
ENDBRANCH   8  14
TORSDOF 8
ENDMDL
MODEL 5
REMARK VINA RESULT:       2.6      1.733      2.896
REMARK  Name = 40777425
REMARK  9 active torsions:
REMARK  status: ('A' for Active; 'I' for Inactive)
REMARK    1  A    between atoms: O_4  and  C_28
REMARK    2  A    between atoms: O_4  and  C_32
REMARK    3  A    between atoms: N_6  and  C_19
REMARK    4  A    between atoms: C_8  and  C_14
REMARK    5  A    between atoms: C_9  and  C_13
REMARK    6  A    between atoms: C_13  and  C_15
REMARK    7  A    between atoms: C_14  and  C_16
REMARK    8  A    between atoms: C_18  and  C_20
REMARK    9  A    between atoms: C_19  and  C_21
REMARK                            x       y       z     vdW  Elec       q    Type
REMARK                         _______ _______ _______ _____ _____    ______ ____
ROOT
ATOM      5  N   UNL     1      -5.414   1.900  25.431  0.00  0.00    -0.316 NA
ATOM      8  C   UNL     1      -4.039   4.358  24.551  0.00  0.00    +0.004 C 
ATOM      9  C   UNL     1      -4.465   3.240  23.568  0.00  0.00    +0.012 C 
ATOM     10  C   UNL     1      -4.931   4.294  25.801  0.00  0.00    +0.019 C 
ATOM     11  C   UNL     1      -4.533   1.870  24.263  0.00  0.00    +0.085 C 
ATOM     12  C   UNL     1      -4.982   2.894  26.410  0.00  0.00    +0.081 C 
ATOM     33  H   UNL     1      -5.426   0.978  25.867  0.00  0.00    +0.122 HD
ENDROOT
BRANCH   9  13
ATOM     13  C   UNL     1      -3.581   3.169  22.322  0.00  0.00    +0.064 C 
BRANCH  13  15
ATOM      3  O   UNL     1      -1.460   0.296  22.781  0.00  0.00    -0.354 OA
ATOM      7  N   UNL     1      -2.705   0.893  22.624  0.00  0.00    -0.083 NA
ATOM     15  C   UNL     1      -2.450   2.199  22.509  0.00  0.00    +0.085 A 
ATOM     17  C   UNL     1      -1.076   2.484  22.585  0.00  0.00    +0.076 A 
ATOM     18  C   UNL     1      -0.498   1.253  22.755  0.00  0.00    +0.167 A 
BRANCH  18  20
ATOM     20  C   UNL     1       0.849   0.785  22.907  0.00  0.00    +0.020 A 
ATOM     22  C   UNL     1       1.138  -0.572  22.759  0.00  0.00    +0.015 A 
ATOM     23  C   UNL     1       1.872   1.687  23.199  0.00  0.00    +0.015 A 
ATOM     26  C   UNL     1       2.448  -1.027  22.905  0.00  0.00    +0.046 A 
ATOM     27  C   UNL     1       3.183   1.233  23.346  0.00  0.00    +0.046 A 
ATOM     28  C   UNL     1       3.470  -0.124  23.199  0.00  0.00    +0.120 A 
BRANCH  28   4
ATOM      4  O   UNL     1       4.749  -0.567  23.340  0.00  0.00    -0.495 OA
ATOM     32  C   UNL     1       5.676   0.315  23.971  0.00  0.00    +0.277 C 
ENDBRANCH  28   4
ENDBRANCH  18  20
ENDBRANCH  13  15
ENDBRANCH   9  13
BRANCH   8  14
ATOM     14  C   UNL     1      -2.555   4.317  24.936  0.00  0.00    +0.099 C 
BRANCH  14  16
ATOM      2  O   UNL     1      -2.565   3.473  27.202  0.00  0.00    -0.276 OA
ATOM      6  N   UNL     1      -1.650   2.175  25.506  0.00  0.00    -0.311 N 
ATOM     16  C   UNL     1      -2.273   3.302  26.022  0.00  0.00    +0.214 C 
ATOM     34  H   UNL     1      -1.434   2.138  24.513  0.00  0.00    +0.149 HD
BRANCH   6  19
ATOM     19  C   UNL     1      -1.261   1.045  26.319  0.00  0.00    +0.139 C 
BRANCH  19  21
ATOM      1  F   UNL     1      -3.380  -3.787  24.355  0.00  0.00    -0.205 F 
ATOM     21  C   UNL     1      -1.826  -0.243  25.795  0.00  0.00    -0.030 A 
ATOM     24  C   UNL     1      -3.208  -0.423  25.726  0.00  0.00    +0.008 A 
ATOM     25  C   UNL     1      -0.969  -1.262  25.376  0.00  0.00    +0.008 A 
ATOM     29  C   UNL     1      -3.732  -1.620  25.240  0.00  0.00    +0.038 A 
ATOM     30  C   UNL     1      -1.494  -2.459  24.891  0.00  0.00    +0.038 A 
ATOM     31  C   UNL     1      -2.876  -2.638  24.822  0.00  0.00    +0.123 A 
ENDBRANCH  19  21
ENDBRANCH   6  19
ENDBRANCH  14  16
ENDBRANCH   8  14
TORSDOF 8
ENDMDL
MODEL 6
REMARK VINA RESULT:       2.8      1.286      1.505
REMARK  Name = 40777425
REMARK  9 active torsions:
REMARK  status: ('A' for Active; 'I' for Inactive)
REMARK    1  A    between atoms: O_4  and  C_28
REMARK    2  A    between atoms: O_4  and  C_32
REMARK    3  A    between atoms: N_6  and  C_19
REMARK    4  A    between atoms: C_8  and  C_14
REMARK    5  A    between atoms: C_9  and  C_13
REMARK    6  A    between atoms: C_13  and  C_15
REMARK    7  A    between atoms: C_14  and  C_16
REMARK    8  A    between atoms: C_18  and  C_20
REMARK    9  A    between atoms: C_19  and  C_21
REMARK                            x       y       z     vdW  Elec       q    Type
REMARK                         _______ _______ _______ _____ _____    ______ ____
ROOT
ATOM      5  N   UNL     1      -3.801   3.602  22.454  0.00  0.00    -0.316 NA
ATOM      8  C   UNL     1      -2.484   4.314  24.997  0.00  0.00    +0.004 C 
ATOM      9  C   UNL     1      -2.153   3.018  24.218  0.00  0.00    +0.012 C 
ATOM     10  C   UNL     1      -3.046   5.359  24.018  0.00  0.00    +0.019 C 
ATOM     11  C   UNL     1      -3.343   2.551  23.364  0.00  0.00    +0.085 C 
ATOM     12  C   UNL     1      -4.195   4.809  23.176  0.00  0.00    +0.081 C 
ATOM     33  H   UNL     1      -4.593   3.258  21.913  0.00  0.00    +0.122 HD
ENDROOT
BRANCH   9  13
ATOM     13  C   UNL     1      -1.662   1.886  25.121  0.00  0.00    +0.064 C 
BRANCH  13  15
ATOM      3  O   UNL     1       0.544  -0.373  23.390  0.00  0.00    -0.354 OA
ATOM      7  N   UNL     1      -0.717   0.033  23.814  0.00  0.00    -0.083 NA
ATOM     15  C   UNL     1      -0.504   1.156  24.503  0.00  0.00    +0.085 A 
ATOM     17  C   UNL     1       0.856   1.506  24.549  0.00  0.00    +0.076 A 
ATOM     18  C   UNL     1       1.471   0.513  23.833  0.00  0.00    +0.167 A 
BRANCH  18  20
ATOM     20  C   UNL     1       2.829   0.224  23.471  0.00  0.00    +0.020 A 
ATOM     22  C   UNL     1       3.401  -0.998  23.824  0.00  0.00    +0.015 A 
ATOM     23  C   UNL     1       3.577   1.166  22.763  0.00  0.00    +0.015 A 
ATOM     26  C   UNL     1       4.721  -1.278  23.471  0.00  0.00    +0.046 A 
ATOM     27  C   UNL     1       4.897   0.886  22.410  0.00  0.00    +0.046 A 
ATOM     28  C   UNL     1       5.468  -0.336  22.765  0.00  0.00    +0.120 A 
BRANCH  28   4
ATOM      4  O   UNL     1       6.756  -0.610  22.418  0.00  0.00    -0.495 OA
ATOM     32  C   UNL     1       7.774  -0.206  23.332  0.00  0.00    +0.277 C 
ENDBRANCH  28   4
ENDBRANCH  18  20
ENDBRANCH  13  15
ENDBRANCH   9  13
BRANCH   8  14
ATOM     14  C   UNL     1      -3.438   4.105  26.179  0.00  0.00    +0.099 C 
BRANCH  14  16
ATOM      2  O   UNL     1      -5.732   3.664  25.550  0.00  0.00    -0.276 OA
ATOM      6  N   UNL     1      -4.263   1.885  25.828  0.00  0.00    -0.311 N 
ATOM     16  C   UNL     1      -4.616   3.227  25.816  0.00  0.00    +0.214 C 
ATOM     34  H   UNL     1      -3.313   1.623  26.080  0.00  0.00    +0.149 HD
BRANCH   6  19
ATOM     19  C   UNL     1      -5.192   0.821  25.522  0.00  0.00    +0.139 C 
BRANCH  19  21
ATOM      1  F   UNL     1      -2.549  -3.908  23.989  0.00  0.00    -0.205 F 
ATOM     21  C   UNL     1      -4.487  -0.439  25.114  0.00  0.00    -0.030 A 
ATOM     24  C   UNL     1      -4.767  -1.026  23.879  0.00  0.00    +0.008 A 
ATOM     25  C   UNL     1      -3.552  -1.025  25.968  0.00  0.00    +0.008 A 
ATOM     29  C   UNL     1      -4.112  -2.198  23.500  0.00  0.00    +0.038 A 
ATOM     30  C   UNL     1      -2.898  -2.196  25.588  0.00  0.00    +0.038 A 
ATOM     31  C   UNL     1      -3.178  -2.783  24.354  0.00  0.00    +0.123 A 
ENDBRANCH  19  21
ENDBRANCH   6  19
ENDBRANCH  14  16
ENDBRANCH   8  14
TORSDOF 8
ENDMDL
MODEL 7
REMARK VINA RESULT:       3.2      2.584      6.941
REMARK  Name = 40777425
REMARK  9 active torsions:
REMARK  status: ('A' for Active; 'I' for Inactive)
REMARK    1  A    between atoms: O_4  and  C_28
REMARK    2  A    between atoms: O_4  and  C_32
REMARK    3  A    between atoms: N_6  and  C_19
REMARK    4  A    between atoms: C_8  and  C_14
REMARK    5  A    between atoms: C_9  and  C_13
REMARK    6  A    between atoms: C_13  and  C_15
REMARK    7  A    between atoms: C_14  and  C_16
REMARK    8  A    between atoms: C_18  and  C_20
REMARK    9  A    between atoms: C_19  and  C_21
REMARK                            x       y       z     vdW  Elec       q    Type
REMARK                         _______ _______ _______ _____ _____    ______ ____
ROOT
ATOM      5  N   UNL     1       4.944   0.481  22.926  0.00  0.00    -0.316 NA
ATOM      8  C   UNL     1       2.783  -1.459  23.451  0.00  0.00    +0.004 C 
ATOM      9  C   UNL     1       2.778  -0.512  22.226  0.00  0.00    +0.012 C 
ATOM     10  C   UNL     1       4.233  -1.666  23.919  0.00  0.00    +0.019 C 
ATOM     11  C   UNL     1       3.574   0.774  22.500  0.00  0.00    +0.085 C 
ATOM     12  C   UNL     1       4.972  -0.345  24.130  0.00  0.00    +0.081 C 
ATOM     33  H   UNL     1       5.435   1.357  23.106  0.00  0.00    +0.122 HD
ENDROOT
BRANCH   9  13
ATOM     13  C   UNL     1       1.370  -0.178  21.733  0.00  0.00    +0.064 C 
BRANCH  13  15
ATOM      3  O   UNL     1       0.400   2.142  24.310  0.00  0.00    -0.354 OA
ATOM      7  N   UNL     1       1.352   1.415  23.604  0.00  0.00    -0.083 NA
ATOM     15  C   UNL     1       0.656   0.732  22.691  0.00  0.00    +0.085 A 
ATOM     17  C   UNL     1      -0.724   0.984  22.772  0.00  0.00    +0.076 A 
ATOM     18  C   UNL     1      -0.831   1.877  23.805  0.00  0.00    +0.167 A 
BRANCH  18  20
ATOM     20  C   UNL     1      -1.922   2.560  24.437  0.00  0.00    +0.020 A 
ATOM     22  C   UNL     1      -3.131   2.722  23.760  0.00  0.00    +0.015 A 
ATOM     23  C   UNL     1      -1.776   3.061  25.731  0.00  0.00    +0.015 A 
ATOM     26  C   UNL     1      -4.192   3.385  24.376  0.00  0.00    +0.046 A 
ATOM     27  C   UNL     1      -2.836   3.725  26.347  0.00  0.00    +0.046 A 
ATOM     28  C   UNL     1      -4.045   3.887  25.668  0.00  0.00    +0.120 A 
BRANCH  28   4
ATOM      4  O   UNL     1      -5.080   4.533  26.270  0.00  0.00    -0.495 OA
ATOM     32  C   UNL     1      -6.266   4.721  25.498  0.00  0.00    +0.277 C 
ENDBRANCH  28   4
ENDBRANCH  18  20
ENDBRANCH  13  15
ENDBRANCH   9  13
BRANCH   8  14
ATOM     14  C   UNL     1       1.898  -0.984  24.609  0.00  0.00    +0.099 C 
BRANCH  14  16
ATOM      2  O   UNL     1       0.841  -2.894  25.651  0.00  0.00    -0.276 OA
ATOM      6  N   UNL     1      -0.376  -1.589  24.163  0.00  0.00    -0.311 N 
ATOM     16  C   UNL     1       0.756  -1.939  24.885  0.00  0.00    +0.214 C 
ATOM     34  H   UNL     1      -0.339  -0.787  23.539  0.00  0.00    +0.149 HD
BRANCH   6  19
ATOM     19  C   UNL     1      -1.616  -2.327  24.231  0.00  0.00    +0.139 C 
BRANCH  19  21
ATOM      1  F   UNL     1      -5.950   0.962  25.677  0.00  0.00    -0.205 F 
ATOM     21  C   UNL     1      -2.771  -1.451  24.617  0.00  0.00    -0.030 A 
ATOM     24  C   UNL     1      -3.760  -1.147  23.680  0.00  0.00    +0.008 A 
ATOM     25  C   UNL     1      -2.858  -0.939  25.912  0.00  0.00    +0.008 A 
ATOM     29  C   UNL     1      -4.833  -0.332  24.039  0.00  0.00    +0.038 A 
ATOM     30  C   UNL     1      -3.931  -0.124  26.270  0.00  0.00    +0.038 A 
ATOM     31  C   UNL     1      -4.919   0.180  25.333  0.00  0.00    +0.123 A 
ENDBRANCH  19  21
ENDBRANCH   6  19
ENDBRANCH  14  16
ENDBRANCH   8  14
TORSDOF 8
ENDMDL
MODEL 8
REMARK VINA RESULT:       3.7      1.671      2.350
REMARK  Name = 40777425
REMARK  9 active torsions:
REMARK  status: ('A' for Active; 'I' for Inactive)
REMARK    1  A    between atoms: O_4  and  C_28
REMARK    2  A    between atoms: O_4  and  C_32
REMARK    3  A    between atoms: N_6  and  C_19
REMARK    4  A    between atoms: C_8  and  C_14
REMARK    5  A    between atoms: C_9  and  C_13
REMARK    6  A    between atoms: C_13  and  C_15
REMARK    7  A    between atoms: C_14  and  C_16
REMARK    8  A    between atoms: C_18  and  C_20
REMARK    9  A    between atoms: C_19  and  C_21
REMARK                            x       y       z     vdW  Elec       q    Type
REMARK                         _______ _______ _______ _____ _____    ______ ____
ROOT
ATOM      5  N   UNL     1      -3.171   5.727  23.859  0.00  0.00    -0.316 NA
ATOM      8  C   UNL     1      -0.952   4.029  24.806  0.00  0.00    +0.004 C 
ATOM      9  C   UNL     1      -2.008   3.535  23.787  0.00  0.00    +0.012 C 
ATOM     10  C   UNL     1      -0.869   5.563  24.739  0.00  0.00    +0.019 C 
ATOM     11  C   UNL     1      -3.344   4.277  23.951  0.00  0.00    +0.085 C 
ATOM     12  C   UNL     1      -2.238   6.227  24.867  0.00  0.00    +0.081 C 
ATOM     33  H   UNL     1      -4.075   6.183  23.980  0.00  0.00    +0.122 HD
ENDROOT
BRANCH   9  13
ATOM     13  C   UNL     1      -2.223   2.022  23.834  0.00  0.00    +0.064 C 
BRANCH  13  15
ATOM      3  O   UNL     1       0.268  -0.256  22.581  0.00  0.00    -0.354 OA
ATOM      7  N   UNL     1      -1.047   0.168  22.730  0.00  0.00    -0.083 NA
ATOM     15  C   UNL     1      -0.971   1.279  23.468  0.00  0.00    +0.085 A 
ATOM     17  C   UNL     1       0.353   1.602  23.811  0.00  0.00    +0.076 A 
ATOM     18  C   UNL     1       1.092   0.607  23.228  0.00  0.00    +0.167 A 
BRANCH  18  20
ATOM     20  C   UNL     1       2.491   0.298  23.162  0.00  0.00    +0.020 A 
ATOM     22  C   UNL     1       2.946  -0.964  23.545  0.00  0.00    +0.015 A 
ATOM     23  C   UNL     1       3.397   1.259  22.713  0.00  0.00    +0.015 A 
ATOM     26  C   UNL     1       4.306  -1.265  23.479  0.00  0.00    +0.046 A 
ATOM     27  C   UNL     1       4.758   0.958  22.648  0.00  0.00    +0.046 A 
ATOM     28  C   UNL     1       5.212  -0.304  23.032  0.00  0.00    +0.120 A 
BRANCH  28   4
ATOM      4  O   UNL     1       6.539  -0.597  22.966  0.00  0.00    -0.495 OA
ATOM     32  C   UNL     1       7.417   0.177  23.783  0.00  0.00    +0.277 C 
ENDBRANCH  28   4
ENDBRANCH  18  20
ENDBRANCH  13  15
ENDBRANCH   9  13
BRANCH   8  14
ATOM     14  C   UNL     1      -1.204   3.558  26.243  0.00  0.00    +0.099 C 
BRANCH  14  16
ATOM      2  O   UNL     1       0.662   2.177  26.924  0.00  0.00    -0.276 OA
ATOM      6  N   UNL     1      -1.351   1.170  26.345  0.00  0.00    -0.311 N 
ATOM     16  C   UNL     1      -0.505   2.251  26.548  0.00  0.00    +0.214 C 
ATOM     34  H   UNL     1      -2.298   1.336  26.015  0.00  0.00    +0.149 HD
BRANCH   6  19
ATOM     19  C   UNL     1      -0.947  -0.201  26.558  0.00  0.00    +0.139 C 
BRANCH  19  21
ATOM      1  F   UNL     1      -4.135  -3.815  23.649  0.00  0.00    -0.205 F 
ATOM     21  C   UNL     1      -1.797  -1.164  25.783  0.00  0.00    -0.030 A 
ATOM     24  C   UNL     1      -1.198  -2.188  25.048  0.00  0.00    +0.008 A 
ATOM     25  C   UNL     1      -3.186  -1.037  25.798  0.00  0.00    +0.008 A 
ATOM     29  C   UNL     1      -1.989  -3.082  24.327  0.00  0.00    +0.038 A 
ATOM     30  C   UNL     1      -3.976  -1.932  25.076  0.00  0.00    +0.038 A 
ATOM     31  C   UNL     1      -3.377  -2.955  24.340  0.00  0.00    +0.123 A 
ENDBRANCH  19  21
ENDBRANCH   6  19
ENDBRANCH  14  16
ENDBRANCH   8  14
TORSDOF 8
ENDMDL
