MODEL 1
REMARK VINA RESULT:      -6.2      0.000      0.000
REMARK  Name = 38027577
REMARK  13 active torsions:
REMARK  status: ('A' for Active; 'I' for Inactive)
REMARK    1  A    between atoms: O_4  and  C_22
REMARK    2  A    between atoms: O_4  and  C_26
REMARK    3  A    between atoms: N_5  and  C_14
REMARK    4  A    between atoms: N_6  and  C_21
REMARK    5  A    between atoms: C_7  and  C_11
REMARK    6  A    between atoms: C_8  and  C_14
REMARK    7  A    between atoms: C_10  and  C_15
REMARK    8  A    between atoms: C_11  and  C_16
REMARK    9  A    between atoms: C_11  and  C_17
REMARK   10  A    between atoms: C_12  and  C_18
REMARK   11  A    between atoms: C_15  and  C_19
REMARK   12  A    between atoms: C_20  and  C_22
REMARK   13  A    between atoms: C_21  and  C_23
REMARK                            x       y       z     vdW  Elec       q    Type
REMARK                         _______ _______ _______ _____ _____    ______ ____
ROOT
ATOM      7  C   UNL     1      -1.158   0.339  24.639  0.00  0.00    +0.000 C 
ATOM      8  C   UNL     1      -0.328  -0.958  24.470  0.00  0.00    +0.032 C 
ATOM      9  C   UNL     1      -2.270   0.133  25.679  0.00  0.00    +0.012 C 
ATOM     10  C   UNL     1      -3.226  -1.011  25.290  0.00  0.00    +0.023 C 
ATOM     12  C   UNL     1      -2.472  -2.250  24.850  0.00  0.00    -0.073 C 
ATOM     13  C   UNL     1      -1.174  -2.209  24.500  0.00  0.00    -0.022 C 
ATOM     18  C   UNL     1      -3.233  -3.546  24.864  0.00  0.00    +0.039 C 
ENDROOT
BRANCH   7  11
ATOM     11  C   UNL     1      -0.280   1.527  25.048  0.00  0.00    -0.013 C 
ATOM     16  C   UNL     1      -0.621   1.978  26.465  0.00  0.00    +0.007 C 
ATOM     17  C   UNL     1      -0.447   2.677  24.059  0.00  0.00    +0.007 C 
ENDBRANCH   7  11
BRANCH   8  14
ATOM     14  C   UNL     1       0.490  -0.925  23.174  0.00  0.00    +0.112 C 
BRANCH  14   5
ATOM      3  O   UNL     1       2.399  -0.175  21.135  0.00  0.00    -0.273 OA
ATOM      5  N   UNL     1       1.692  -0.173  23.352  0.00  0.00    -0.313 N 
ATOM     20  C   UNL     1       2.561   0.146  22.308  0.00  0.00    +0.239 C 
ATOM     30  H   UNL     1       1.888   0.199  24.278  0.00  0.00    +0.149 HD
BRANCH  20  22
ATOM     22  C   UNL     1       3.753   0.949  22.781  0.00  0.00    +0.255 C 
BRANCH  22   4
ATOM      4  O   UNL     1       4.935   0.179  22.705  0.00  0.00    -0.374 OA
ATOM     26  C   UNL     1       5.403  -0.204  23.996  0.00  0.00    +0.194 C 
ENDBRANCH  22   4
ENDBRANCH  20  22
ENDBRANCH  14   5
ENDBRANCH   8  14
BRANCH  10  15
ATOM     15  C   UNL     1      -4.217  -0.560  24.212  0.00  0.00    +0.103 C 
BRANCH  15  19
ATOM      2  O   UNL     1      -3.782   1.674  23.390  0.00  0.00    -0.276 OA
ATOM      6  N   UNL     1      -5.268   1.371  25.152  0.00  0.00    -0.311 N 
ATOM     19  C   UNL     1      -4.376   0.944  24.179  0.00  0.00    +0.214 C 
ATOM     31  H   UNL     1      -5.715   0.688  25.756  0.00  0.00    +0.149 HD
BRANCH   6  21
ATOM     21  C   UNL     1      -5.610   2.760  25.352  0.00  0.00    +0.139 C 
BRANCH  21  23
ATOM      1  F   UNL     1      -1.073   6.091  25.176  0.00  0.00    -0.205 F 
ATOM     23  C   UNL     1      -4.401   3.649  25.305  0.00  0.00    -0.030 A 
ATOM     24  C   UNL     1      -4.089   4.341  24.135  0.00  0.00    +0.008 A 
ATOM     25  C   UNL     1      -3.588   3.781  26.432  0.00  0.00    +0.008 A 
ATOM     27  C   UNL     1      -2.966   5.166  24.092  0.00  0.00    +0.038 A 
ATOM     28  C   UNL     1      -2.465   4.607  26.388  0.00  0.00    +0.038 A 
ATOM     29  C   UNL     1      -2.154   5.299  25.219  0.00  0.00    +0.123 A 
ENDBRANCH  21  23
ENDBRANCH   6  21
ENDBRANCH  15  19
ENDBRANCH  10  15
TORSDOF 9
ENDMDL
MODEL 2
REMARK VINA RESULT:      -4.2      2.703      6.950
REMARK  Name = 38027577
REMARK  13 active torsions:
REMARK  status: ('A' for Active; 'I' for Inactive)
REMARK    1  A    between atoms: O_4  and  C_22
REMARK    2  A    between atoms: O_4  and  C_26
REMARK    3  A    between atoms: N_5  and  C_14
REMARK    4  A    between atoms: N_6  and  C_21
REMARK    5  A    between atoms: C_7  and  C_11
REMARK    6  A    between atoms: C_8  and  C_14
REMARK    7  A    between atoms: C_10  and  C_15
REMARK    8  A    between atoms: C_11  and  C_16
REMARK    9  A    between atoms: C_11  and  C_17
REMARK   10  A    between atoms: C_12  and  C_18
REMARK   11  A    between atoms: C_15  and  C_19
REMARK   12  A    between atoms: C_20  and  C_22
REMARK   13  A    between atoms: C_21  and  C_23
REMARK                            x       y       z     vdW  Elec       q    Type
REMARK                         _______ _______ _______ _____ _____    ______ ____
ROOT
ATOM      7  C   UNL     1      -3.296   1.079  23.650  0.00  0.00    +0.000 C 
ATOM      8  C   UNL     1      -4.605   0.528  24.268  0.00  0.00    +0.032 C 
ATOM      9  C   UNL     1      -2.418  -0.074  23.138  0.00  0.00    +0.012 C 
ATOM     10  C   UNL     1      -2.050  -1.067  24.257  0.00  0.00    +0.023 C 
ATOM     12  C   UNL     1      -3.257  -1.453  25.086  0.00  0.00    -0.073 C 
ATOM     13  C   UNL     1      -4.395  -0.736  25.068  0.00  0.00    -0.022 C 
ATOM     18  C   UNL     1      -3.144  -2.709  25.904  0.00  0.00    +0.039 C 
ENDROOT
BRANCH   7  11
ATOM     11  C   UNL     1      -3.574   2.064  22.510  0.00  0.00    -0.013 C 
ATOM     16  C   UNL     1      -2.478   1.978  21.453  0.00  0.00    +0.007 C 
ATOM     17  C   UNL     1      -3.694   3.485  23.052  0.00  0.00    +0.007 C 
ENDBRANCH   7  11
BRANCH   8  14
ATOM     14  C   UNL     1      -5.288   1.582  25.147  0.00  0.00    +0.112 C 
BRANCH  14   5
ATOM      3  O   UNL     1      -5.647   4.377  25.798  0.00  0.00    -0.273 OA
ATOM      5  N   UNL     1      -4.322   2.465  25.722  0.00  0.00    -0.313 N 
ATOM     20  C   UNL     1      -4.580   3.806  26.006  0.00  0.00    +0.239 C 
ATOM     30  H   UNL     1      -3.424   2.075  25.994  0.00  0.00    +0.149 HD
BRANCH  20  22
ATOM     22  C   UNL     1      -3.382   4.505  26.611  0.00  0.00    +0.255 C 
BRANCH  22   4
ATOM      4  O   UNL     1      -2.180   3.960  26.106  0.00  0.00    -0.374 OA
ATOM     26  C   UNL     1      -1.482   4.889  25.281  0.00  0.00    +0.194 C 
ENDBRANCH  22   4
ENDBRANCH  20  22
ENDBRANCH  14   5
ENDBRANCH   8  14
BRANCH  10  15
ATOM     15  C   UNL     1      -0.930  -0.511  25.143  0.00  0.00    +0.103 C 
BRANCH  15  19
ATOM      2  O   UNL     1       0.323   1.488  24.606  0.00  0.00    -0.276 OA
ATOM      6  N   UNL     1       0.619  -0.428  23.324  0.00  0.00    -0.311 N 
ATOM     19  C   UNL     1       0.061   0.315  24.354  0.00  0.00    +0.214 C 
ATOM     31  H   UNL     1       0.343  -1.397  23.198  0.00  0.00    +0.149 HD
BRANCH   6  21
ATOM     21  C   UNL     1       1.598   0.108  22.406  0.00  0.00    +0.139 C 
BRANCH  21  23
ATOM      1  F   UNL     1       6.852  -0.510  24.334  0.00  0.00    -0.205 F 
ATOM     23  C   UNL     1       2.999  -0.057  22.919  0.00  0.00    -0.030 A 
ATOM     24  C   UNL     1       3.394  -1.266  23.493  0.00  0.00    +0.008 A 
ATOM     25  C   UNL     1       3.906   1.000  22.825  0.00  0.00    +0.008 A 
ATOM     27  C   UNL     1       4.696  -1.419  23.969  0.00  0.00    +0.038 A 
ATOM     28  C   UNL     1       5.207   0.846  23.302  0.00  0.00    +0.038 A 
ATOM     29  C   UNL     1       5.603  -0.362  23.874  0.00  0.00    +0.123 A 
ENDBRANCH  21  23
ENDBRANCH   6  21
ENDBRANCH  15  19
ENDBRANCH  10  15
TORSDOF 9
ENDMDL
MODEL 3
REMARK VINA RESULT:      -4.2      2.345      4.994
REMARK  Name = 38027577
REMARK  13 active torsions:
REMARK  status: ('A' for Active; 'I' for Inactive)
REMARK    1  A    between atoms: O_4  and  C_22
REMARK    2  A    between atoms: O_4  and  C_26
REMARK    3  A    between atoms: N_5  and  C_14
REMARK    4  A    between atoms: N_6  and  C_21
REMARK    5  A    between atoms: C_7  and  C_11
REMARK    6  A    between atoms: C_8  and  C_14
REMARK    7  A    between atoms: C_10  and  C_15
REMARK    8  A    between atoms: C_11  and  C_16
REMARK    9  A    between atoms: C_11  and  C_17
REMARK   10  A    between atoms: C_12  and  C_18
REMARK   11  A    between atoms: C_15  and  C_19
REMARK   12  A    between atoms: C_20  and  C_22
REMARK   13  A    between atoms: C_21  and  C_23
REMARK                            x       y       z     vdW  Elec       q    Type
REMARK                         _______ _______ _______ _____ _____    ______ ____
ROOT
ATOM      7  C   UNL     1      -2.316   2.187  23.643  0.00  0.00    +0.000 C 
ATOM      8  C   UNL     1      -0.937   2.838  23.920  0.00  0.00    +0.032 C 
ATOM      9  C   UNL     1      -3.358   3.263  23.303  0.00  0.00    +0.012 C 
ATOM     10  C   UNL     1      -3.523   4.294  24.436  0.00  0.00    +0.023 C 
ATOM     12  C   UNL     1      -2.185   4.786  24.949  0.00  0.00    -0.073 C 
ATOM     13  C   UNL     1      -1.038   4.130  24.696  0.00  0.00    -0.022 C 
ATOM     18  C   UNL     1      -2.188   6.075  25.721  0.00  0.00    +0.039 C 
ENDROOT
BRANCH   7  11
ATOM     11  C   UNL     1      -2.243   1.159  22.509  0.00  0.00    -0.013 C 
ATOM     16  C   UNL     1      -2.347   1.852  21.155  0.00  0.00    +0.007 C 
ATOM     17  C   UNL     1      -3.342   0.113  22.668  0.00  0.00    +0.007 C 
ENDBRANCH   7  11
BRANCH   8  14
ATOM     14  C   UNL     1      -0.007   1.869  24.658  0.00  0.00    +0.112 C 
BRANCH  14   5
ATOM      3  O   UNL     1       0.558  -0.552  23.179  0.00  0.00    -0.273 OA
ATOM      5  N   UNL     1       1.155   1.587  23.875  0.00  0.00    -0.313 N 
ATOM     20  C   UNL     1       1.348   0.387  23.190  0.00  0.00    +0.239 C 
ATOM     30  H   UNL     1       1.845   2.326  23.764  0.00  0.00    +0.149 HD
BRANCH  20  22
ATOM     22  C   UNL     1       2.664   0.360  22.443  0.00  0.00    +0.255 C 
BRANCH  22   4
ATOM      4  O   UNL     1       3.638   1.128  23.119  0.00  0.00    -0.374 OA
ATOM     26  C   UNL     1       4.881   0.438  23.223  0.00  0.00    +0.194 C 
ENDBRANCH  22   4
ENDBRANCH  20  22
ENDBRANCH  14   5
ENDBRANCH   8  14
BRANCH  10  15
ATOM     15  C   UNL     1      -4.373   3.727  25.579  0.00  0.00    +0.103 C 
BRANCH  15  19
ATOM      2  O   UNL     1      -5.986   2.291  24.489  0.00  0.00    -0.276 OA
ATOM      6  N   UNL     1      -4.324   1.348  25.811  0.00  0.00    -0.311 N 
ATOM     19  C   UNL     1      -5.003   2.401  25.215  0.00  0.00    +0.214 C 
ATOM     31  H   UNL     1      -3.514   1.539  26.393  0.00  0.00    +0.149 HD
BRANCH   6  21
ATOM     21  C   UNL     1      -4.707  -0.035  25.640  0.00  0.00    +0.139 C 
BRANCH  21  23
ATOM      1  F   UNL     1      -0.235  -3.403  25.040  0.00  0.00    -0.205 F 
ATOM     23  C   UNL     1      -3.515  -0.932  25.479  0.00  0.00    -0.030 A 
ATOM     24  C   UNL     1      -3.646  -2.156  24.822  0.00  0.00    +0.008 A 
ATOM     25  C   UNL     1      -2.275  -0.543  25.988  0.00  0.00    +0.008 A 
ATOM     27  C   UNL     1      -2.538  -2.990  24.673  0.00  0.00    +0.038 A 
ATOM     28  C   UNL     1      -1.168  -1.378  25.839  0.00  0.00    +0.038 A 
ATOM     29  C   UNL     1      -1.298  -2.600  25.182  0.00  0.00    +0.123 A 
ENDBRANCH  21  23
ENDBRANCH   6  21
ENDBRANCH  15  19
ENDBRANCH  10  15
TORSDOF 9
ENDMDL
MODEL 4
REMARK VINA RESULT:      -4.1      2.424      5.004
REMARK  Name = 38027577
REMARK  13 active torsions:
REMARK  status: ('A' for Active; 'I' for Inactive)
REMARK    1  A    between atoms: O_4  and  C_22
REMARK    2  A    between atoms: O_4  and  C_26
REMARK    3  A    between atoms: N_5  and  C_14
REMARK    4  A    between atoms: N_6  and  C_21
REMARK    5  A    between atoms: C_7  and  C_11
REMARK    6  A    between atoms: C_8  and  C_14
REMARK    7  A    between atoms: C_10  and  C_15
REMARK    8  A    between atoms: C_11  and  C_16
REMARK    9  A    between atoms: C_11  and  C_17
REMARK   10  A    between atoms: C_12  and  C_18
REMARK   11  A    between atoms: C_15  and  C_19
REMARK   12  A    between atoms: C_20  and  C_22
REMARK   13  A    between atoms: C_21  and  C_23
REMARK                            x       y       z     vdW  Elec       q    Type
REMARK                         _______ _______ _______ _____ _____    ______ ____
ROOT
ATOM      7  C   UNL     1      -2.048   2.190  23.860  0.00  0.00    +0.000 C 
ATOM      8  C   UNL     1      -0.573   2.647  23.746  0.00  0.00    +0.032 C 
ATOM      9  C   UNL     1      -2.998   3.358  23.556  0.00  0.00    +0.012 C 
ATOM     10  C   UNL     1      -2.781   4.549  24.509  0.00  0.00    +0.023 C 
ATOM     12  C   UNL     1      -1.312   4.891  24.658  0.00  0.00    -0.073 C 
ATOM     13  C   UNL     1      -0.340   4.034  24.298  0.00  0.00    -0.022 C 
ATOM     18  C   UNL     1      -0.986   6.259  25.187  0.00  0.00    +0.039 C 
ENDROOT
BRANCH   7  11
ATOM     11  C   UNL     1      -2.354   1.016  22.923  0.00  0.00    -0.013 C 
ATOM     16  C   UNL     1      -1.293  -0.070  23.067  0.00  0.00    +0.007 C 
ATOM     17  C   UNL     1      -2.444   1.497  21.478  0.00  0.00    +0.007 C 
ENDBRANCH   7  11
BRANCH   8  14
ATOM     14  C   UNL     1       0.369   1.656  24.438  0.00  0.00    +0.112 C 
BRANCH  14   5
ATOM      3  O   UNL     1       1.579  -0.461  22.883  0.00  0.00    -0.273 OA
ATOM      5  N   UNL     1       1.658   1.667  23.823  0.00  0.00    -0.313 N 
ATOM     20  C   UNL     1       2.167   0.597  23.085  0.00  0.00    +0.239 C 
ATOM     30  H   UNL     1       2.203   2.523  23.874  0.00  0.00    +0.149 HD
BRANCH  20  22
ATOM     22  C   UNL     1       3.553   0.880  22.547  0.00  0.00    +0.255 C 
BRANCH  22   4
ATOM      4  O   UNL     1       4.495   0.929  23.598  0.00  0.00    -0.374 OA
ATOM     26  C   UNL     1       5.449  -0.126  23.505  0.00  0.00    +0.194 C 
ENDBRANCH  22   4
ENDBRANCH  20  22
ENDBRANCH  14   5
ENDBRANCH   8  14
BRANCH  10  15
ATOM     15  C   UNL     1      -3.424   4.286  25.876  0.00  0.00    +0.103 C 
BRANCH  15  19
ATOM      2  O   UNL     1      -5.787   3.785  25.747  0.00  0.00    -0.276 OA
ATOM      6  N   UNL     1      -4.246   2.046  25.713  0.00  0.00    -0.311 N 
ATOM     19  C   UNL     1      -4.629   3.379  25.771  0.00  0.00    +0.214 C 
ATOM     31  H   UNL     1      -3.259   1.808  25.734  0.00  0.00    +0.149 HD
BRANCH   6  21
ATOM     21  C   UNL     1      -5.190   0.958  25.612  0.00  0.00    +0.139 C 
BRANCH  21  23
ATOM      1  F   UNL     1      -2.707  -3.844  24.038  0.00  0.00    -0.205 F 
ATOM     23  C   UNL     1      -4.529  -0.323  25.193  0.00  0.00    -0.030 A 
ATOM     24  C   UNL     1      -3.518  -0.876  25.979  0.00  0.00    +0.008 A 
ATOM     25  C   UNL     1      -4.923  -0.959  24.015  0.00  0.00    +0.008 A 
ATOM     27  C   UNL     1      -2.904  -2.066  25.590  0.00  0.00    +0.038 A 
ATOM     28  C   UNL     1      -4.308  -2.148  23.626  0.00  0.00    +0.038 A 
ATOM     29  C   UNL     1      -3.299  -2.702  24.412  0.00  0.00    +0.123 A 
ENDBRANCH  21  23
ENDBRANCH   6  21
ENDBRANCH  15  19
ENDBRANCH  10  15
TORSDOF 9
ENDMDL
MODEL 5
REMARK VINA RESULT:      -3.9      1.595      3.375
REMARK  Name = 38027577
REMARK  13 active torsions:
REMARK  status: ('A' for Active; 'I' for Inactive)
REMARK    1  A    between atoms: O_4  and  C_22
REMARK    2  A    between atoms: O_4  and  C_26
REMARK    3  A    between atoms: N_5  and  C_14
REMARK    4  A    between atoms: N_6  and  C_21
REMARK    5  A    between atoms: C_7  and  C_11
REMARK    6  A    between atoms: C_8  and  C_14
REMARK    7  A    between atoms: C_10  and  C_15
REMARK    8  A    between atoms: C_11  and  C_16
REMARK    9  A    between atoms: C_11  and  C_17
REMARK   10  A    between atoms: C_12  and  C_18
REMARK   11  A    between atoms: C_15  and  C_19
REMARK   12  A    between atoms: C_20  and  C_22
REMARK   13  A    between atoms: C_21  and  C_23
REMARK                            x       y       z     vdW  Elec       q    Type
REMARK                         _______ _______ _______ _____ _____    ______ ____
ROOT
ATOM      7  C   UNL     1      -3.448  -0.875  25.060  0.00  0.00    +0.000 C 
ATOM      8  C   UNL     1      -2.231  -0.170  24.411  0.00  0.00    +0.032 C 
ATOM      9  C   UNL     1      -4.721  -0.608  24.243  0.00  0.00    +0.012 C 
ATOM     10  C   UNL     1      -5.033   0.896  24.124  0.00  0.00    +0.023 C 
ATOM     12  C   UNL     1      -3.806   1.698  23.745  0.00  0.00    -0.073 C 
ATOM     13  C   UNL     1      -2.562   1.200  23.867  0.00  0.00    -0.022 C 
ATOM     18  C   UNL     1      -4.041   3.070  23.179  0.00  0.00    +0.039 C 
ENDROOT
BRANCH   7  11
ATOM     11  C   UNL     1      -3.226  -2.385  25.196  0.00  0.00    -0.013 C 
ATOM     16  C   UNL     1      -1.754  -2.726  24.991  0.00  0.00    +0.007 C 
ATOM     17  C   UNL     1      -4.102  -3.143  24.204  0.00  0.00    +0.007 C 
ENDBRANCH   7  11
BRANCH   8  14
ATOM     14  C   UNL     1      -1.064  -0.060  25.399  0.00  0.00    +0.112 C 
BRANCH  14   5
ATOM      3  O   UNL     1       0.354  -0.880  23.014  0.00  0.00    -0.273 OA
ATOM      5  N   UNL     1       0.053   0.592  24.793  0.00  0.00    -0.313 N 
ATOM     20  C   UNL     1       0.680   0.127  23.636  0.00  0.00    +0.239 C 
ATOM     30  H   UNL     1       0.364   1.474  25.192  0.00  0.00    +0.149 HD
BRANCH  20  22
ATOM     22  C   UNL     1       1.834   1.012  23.215  0.00  0.00    +0.255 C 
BRANCH  22   4
ATOM      4  O   UNL     1       2.804   0.264  22.512  0.00  0.00    -0.374 OA
ATOM     26  C   UNL     1       4.129   0.682  22.829  0.00  0.00    +0.194 C 
ENDBRANCH  22   4
ENDBRANCH  20  22
ENDBRANCH  14   5
ENDBRANCH   8  14
BRANCH  10  15
ATOM     15  C   UNL     1      -5.662   1.433  25.415  0.00  0.00    +0.103 C 
BRANCH  15  19
ATOM      2  O   UNL     1      -5.760   3.849  25.496  0.00  0.00    -0.276 OA
ATOM      6  N   UNL     1      -3.929   2.746  26.410  0.00  0.00    -0.311 N 
ATOM     19  C   UNL     1      -5.154   2.814  25.763  0.00  0.00    +0.214 C 
ATOM     31  H   UNL     1      -3.508   1.840  26.592  0.00  0.00    +0.149 HD
BRANCH   6  21
ATOM     21  C   UNL     1      -3.207   3.916  26.856  0.00  0.00    +0.139 C 
BRANCH  21  23
ATOM      1  F   UNL     1       0.747   5.484  23.167  0.00  0.00    -0.205 F 
ATOM     23  C   UNL     1      -2.153   4.334  25.874  0.00  0.00    -0.030 A 
ATOM     24  C   UNL     1      -2.239   5.577  25.245  0.00  0.00    +0.008 A 
ATOM     25  C   UNL     1      -1.087   3.479  25.587  0.00  0.00    +0.008 A 
ATOM     27  C   UNL     1      -1.259   5.965  24.332  0.00  0.00    +0.038 A 
ATOM     28  C   UNL     1      -0.108   3.868  24.674  0.00  0.00    +0.038 A 
ATOM     29  C   UNL     1      -0.193   5.111  24.046  0.00  0.00    +0.123 A 
ENDBRANCH  21  23
ENDBRANCH   6  21
ENDBRANCH  15  19
ENDBRANCH  10  15
TORSDOF 9
ENDMDL
MODEL 6
REMARK VINA RESULT:      -3.4      2.867      6.548
REMARK  Name = 38027577
REMARK  13 active torsions:
REMARK  status: ('A' for Active; 'I' for Inactive)
REMARK    1  A    between atoms: O_4  and  C_22
REMARK    2  A    between atoms: O_4  and  C_26
REMARK    3  A    between atoms: N_5  and  C_14
REMARK    4  A    between atoms: N_6  and  C_21
REMARK    5  A    between atoms: C_7  and  C_11
REMARK    6  A    between atoms: C_8  and  C_14
REMARK    7  A    between atoms: C_10  and  C_15
REMARK    8  A    between atoms: C_11  and  C_16
REMARK    9  A    between atoms: C_11  and  C_17
REMARK   10  A    between atoms: C_12  and  C_18
REMARK   11  A    between atoms: C_15  and  C_19
REMARK   12  A    between atoms: C_20  and  C_22
REMARK   13  A    between atoms: C_21  and  C_23
REMARK                            x       y       z     vdW  Elec       q    Type
REMARK                         _______ _______ _______ _____ _____    ______ ____
ROOT
ATOM      7  C   UNL     1      -3.951   2.506  25.224  0.00  0.00    +0.000 C 
ATOM      8  C   UNL     1      -4.492   1.362  24.330  0.00  0.00    +0.032 C 
ATOM      9  C   UNL     1      -3.419   3.658  24.357  0.00  0.00    +0.012 C 
ATOM     10  C   UNL     1      -2.293   3.203  23.410  0.00  0.00    +0.023 C 
ATOM     12  C   UNL     1      -2.649   1.921  22.687  0.00  0.00    -0.073 C 
ATOM     13  C   UNL     1      -3.644   1.118  23.104  0.00  0.00    -0.022 C 
ATOM     18  C   UNL     1      -1.864   1.604  21.444  0.00  0.00    +0.039 C 
ENDROOT
BRANCH   7  11
ATOM     11  C   UNL     1      -5.021   3.032  26.186  0.00  0.00    -0.013 C 
ATOM     16  C   UNL     1      -6.148   2.014  26.336  0.00  0.00    +0.007 C 
ATOM     17  C   UNL     1      -5.564   4.372  25.698  0.00  0.00    +0.007 C 
ENDBRANCH   7  11
BRANCH   8  14
ATOM     14  C   UNL     1      -4.631   0.059  25.124  0.00  0.00    +0.112 C 
BRANCH  14   5
ATOM      3  O   UNL     1      -4.352  -2.523  23.851  0.00  0.00    -0.273 OA
ATOM      5  N   UNL     1      -3.443  -0.728  25.020  0.00  0.00    -0.313 N 
ATOM     20  C   UNL     1      -3.396  -1.969  24.385  0.00  0.00    +0.239 C 
ATOM     30  H   UNL     1      -2.576  -0.330  25.373  0.00  0.00    +0.149 HD
BRANCH  20  22
ATOM     22  C   UNL     1      -2.011  -2.579  24.421  0.00  0.00    +0.255 C 
BRANCH  22   4
ATOM      4  O   UNL     1      -1.201  -1.920  25.372  0.00  0.00    -0.374 OA
ATOM     26  C   UNL     1       0.098  -2.499  25.455  0.00  0.00    +0.194 C 
ENDBRANCH  22   4
ENDBRANCH  20  22
ENDBRANCH  14   5
ENDBRANCH   8  14
BRANCH  10  15
ATOM     15  C   UNL     1      -0.965   3.058  24.162  0.00  0.00    +0.103 C 
BRANCH  15  19
ATOM      2  O   UNL     1      -0.920   0.869  25.192  0.00  0.00    -0.276 OA
ATOM      6  N   UNL     1       0.329   1.256  23.270  0.00  0.00    -0.311 N 
ATOM     19  C   UNL     1      -0.540   1.613  24.292  0.00  0.00    +0.214 C 
ATOM     31  H   UNL     1       0.582   1.942  22.566  0.00  0.00    +0.149 HD
BRANCH   6  21
ATOM     21  C   UNL     1       0.897  -0.066  23.145  0.00  0.00    +0.139 C 
BRANCH  21  23
ATOM      1  F   UNL     1       6.524   0.035  23.340  0.00  0.00    -0.205 F 
ATOM     23  C   UNL     1       2.397  -0.040  23.196  0.00  0.00    -0.030 A 
ATOM     24  C   UNL     1       3.100  -1.155  23.654  0.00  0.00    +0.008 A 
ATOM     25  C   UNL     1       3.089   1.101  22.787  0.00  0.00    +0.008 A 
ATOM     27  C   UNL     1       4.493  -1.130  23.701  0.00  0.00    +0.038 A 
ATOM     28  C   UNL     1       4.483   1.126  22.835  0.00  0.00    +0.038 A 
ATOM     29  C   UNL     1       5.185   0.011  23.292  0.00  0.00    +0.123 A 
ENDBRANCH  21  23
ENDBRANCH   6  21
ENDBRANCH  15  19
ENDBRANCH  10  15
TORSDOF 9
ENDMDL
MODEL 7
REMARK VINA RESULT:      -2.2      3.253      5.695
REMARK  Name = 38027577
REMARK  13 active torsions:
REMARK  status: ('A' for Active; 'I' for Inactive)
REMARK    1  A    between atoms: O_4  and  C_22
REMARK    2  A    between atoms: O_4  and  C_26
REMARK    3  A    between atoms: N_5  and  C_14
REMARK    4  A    between atoms: N_6  and  C_21
REMARK    5  A    between atoms: C_7  and  C_11
REMARK    6  A    between atoms: C_8  and  C_14
REMARK    7  A    between atoms: C_10  and  C_15
REMARK    8  A    between atoms: C_11  and  C_16
REMARK    9  A    between atoms: C_11  and  C_17
REMARK   10  A    between atoms: C_12  and  C_18
REMARK   11  A    between atoms: C_15  and  C_19
REMARK   12  A    between atoms: C_20  and  C_22
REMARK   13  A    between atoms: C_21  and  C_23
REMARK                            x       y       z     vdW  Elec       q    Type
REMARK                         _______ _______ _______ _____ _____    ______ ____
ROOT
ATOM      7  C   UNL     1      -1.953   2.308  23.908  0.00  0.00    +0.000 C 
ATOM      8  C   UNL     1      -0.579   3.008  23.764  0.00  0.00    +0.032 C 
ATOM      9  C   UNL     1      -3.092   3.296  23.615  0.00  0.00    +0.012 C 
ATOM     10  C   UNL     1      -3.063   4.515  24.558  0.00  0.00    +0.023 C 
ATOM     12  C   UNL     1      -1.671   5.101  24.676  0.00  0.00    -0.073 C 
ATOM     13  C   UNL     1      -0.574   4.419  24.304  0.00  0.00    -0.022 C 
ATOM     18  C   UNL     1      -1.572   6.510  25.191  0.00  0.00    +0.039 C 
ENDROOT
BRANCH   7  11
ATOM     11  C   UNL     1      -2.071   1.091  22.985  0.00  0.00    -0.013 C 
ATOM     16  C   UNL     1      -0.816   0.230  23.076  0.00  0.00    +0.007 C 
ATOM     17  C   UNL     1      -2.320   1.536  21.547  0.00  0.00    +0.007 C 
ENDBRANCH   7  11
BRANCH   8  14
ATOM     14  C   UNL     1       0.530   2.196  24.445  0.00  0.00    +0.112 C 
BRANCH  14   5
ATOM      3  O   UNL     1      -0.746   0.985  26.741  0.00  0.00    -0.273 OA
ATOM      5  N   UNL     1       0.672   2.581  25.813  0.00  0.00    -0.313 N 
ATOM     20  C   UNL     1       0.017   1.939  26.864  0.00  0.00    +0.239 C 
ATOM     30  H   UNL     1       1.334   3.320  26.034  0.00  0.00    +0.149 HD
BRANCH  20  22
ATOM     22  C   UNL     1       0.351   2.552  28.207  0.00  0.00    +0.255 C 
BRANCH  22   4
ATOM      4  O   UNL     1       1.745   2.535  28.430  0.00  0.00    -0.374 OA
ATOM     26  C   UNL     1       2.065   2.183  29.774  0.00  0.00    +0.194 C 
ENDBRANCH  22   4
ENDBRANCH  20  22
ENDBRANCH  14   5
ENDBRANCH   8  14
BRANCH  10  15
ATOM     15  C   UNL     1      -3.628   4.159  25.937  0.00  0.00    +0.103 C 
BRANCH  15  19
ATOM      2  O   UNL     1      -5.938   3.438  25.911  0.00  0.00    -0.276 OA
ATOM      6  N   UNL     1      -4.244   1.861  25.694  0.00  0.00    -0.311 N 
ATOM     19  C   UNL     1      -4.747   3.145  25.849  0.00  0.00    +0.214 C 
ATOM     31  H   UNL     1      -3.240   1.719  25.647  0.00  0.00    +0.149 HD
BRANCH   6  21
ATOM     21  C   UNL     1      -5.086   0.693  25.585  0.00  0.00    +0.139 C 
BRANCH  21  23
ATOM      1  F   UNL     1      -2.212  -3.822  23.835  0.00  0.00    -0.205 F 
ATOM     23  C   UNL     1      -4.320  -0.510  25.118  0.00  0.00    -0.030 A 
ATOM     24  C   UNL     1      -4.725  -1.194  23.971  0.00  0.00    +0.008 A 
ATOM     25  C   UNL     1      -3.202  -0.946  25.831  0.00  0.00    +0.008 A 
ATOM     27  C   UNL     1      -4.012  -2.312  23.538  0.00  0.00    +0.038 A 
ATOM     28  C   UNL     1      -2.490  -2.064  25.397  0.00  0.00    +0.038 A 
ATOM     29  C   UNL     1      -2.894  -2.747  24.251  0.00  0.00    +0.123 A 
ENDBRANCH  21  23
ENDBRANCH   6  21
ENDBRANCH  15  19
ENDBRANCH  10  15
TORSDOF 9
ENDMDL
