MODEL 1
REMARK VINA RESULT:      -4.8      0.000      0.000
REMARK  Name = 75536842
REMARK  7 active torsions:
REMARK  status: ('A' for Active; 'I' for Inactive)
REMARK    1  A    between atoms: O_2  and  C_9
REMARK    2  A    between atoms: N_4  and  C_8
REMARK    3  A    between atoms: N_4  and  C_13
REMARK    4  A    between atoms: N_5  and  C_12
REMARK    5  A    between atoms: N_6  and  C_20
REMARK    6  A    between atoms: C_10  and  C_12
REMARK    7  A    between atoms: C_13  and  C_14
REMARK                            x       y       z     vdW  Elec       q    Type
REMARK                         _______ _______ _______ _____ _____    ______ ____
ROOT
ATOM      1  O   UNL     1      -4.619   0.085  25.104  0.00  0.00    -0.371 OA
ATOM      8  C   UNL     1      -4.671   2.290  24.222  0.00  0.00    +0.111 C 
ATOM      9  C   UNL     1      -3.346   1.645  23.863  0.00  0.00    +0.164 C 
ATOM     10  C   UNL     1      -3.687   0.168  24.013  0.00  0.00    +0.165 C 
ATOM     11  C   UNL     1      -5.140   1.401  25.363  0.00  0.00    +0.181 C 
ENDROOT
BRANCH   9   2
ATOM      2  O   UNL     1      -2.923   1.958  22.551  0.00  0.00    -0.388 OA
ATOM     27  H   UNL     1      -2.195   1.357  22.312  0.00  0.00    +0.210 HD
ENDBRANCH   9   2
BRANCH   8   4
ATOM      4  N   UNL     1      -4.556   3.687  24.605  0.00  0.00    -0.305 NA
ATOM     26  H   UNL     1      -5.492   4.080  24.715  0.00  0.00    +0.123 HD
BRANCH   4  13
ATOM     13  C   UNL     1      -3.835   3.829  25.865  0.00  0.00    +0.116 C 
BRANCH  13  14
ATOM      7  N   UNL     1       0.421   3.541  25.315  0.00  0.00    -0.263 NA
ATOM     14  C   UNL     1      -2.345   3.729  25.672  0.00  0.00    -0.031 A 
ATOM     16  C   UNL     1      -1.661   4.724  24.984  0.00  0.00    +0.024 A 
ATOM     17  C   UNL     1      -1.648   2.639  26.183  0.00  0.00    +0.024 A 
ATOM     18  C   UNL     1      -0.291   4.585  24.833  0.00  0.00    +0.111 A 
ATOM     19  C   UNL     1      -0.278   2.593  25.978  0.00  0.00    +0.111 A 
ENDBRANCH  13  14
ENDBRANCH   4  13
ENDBRANCH   8   4
BRANCH  10  12
ATOM     12  C   UNL     1      -2.477  -0.701  24.303  0.00  0.00    +0.140 C 
BRANCH  12   5
ATOM      3  O   UNL     1       0.246  -1.335  24.927  0.00  0.00    -0.253 OA
ATOM      5  N   UNL     1      -1.307  -0.204  23.638  0.00  0.00    -0.297 N 
ATOM      6  N   UNL     1       0.934   0.074  23.180  0.00  0.00    -0.269 N 
ATOM     15  C   UNL     1       0.001  -0.563  24.003  0.00  0.00    +0.304 C 
ATOM     28  H   UNL     1      -1.432   0.450  22.872  0.00  0.00    +0.150 HD
ATOM     29  H   UNL     1       0.563   0.686  22.459  0.00  0.00    +0.156 HD
BRANCH   6  20
ATOM     20  C   UNL     1       2.344  -0.027  23.228  0.00  0.00    +0.035 A 
ATOM     21  C   UNL     1       2.945  -1.209  23.659  0.00  0.00    +0.023 A 
ATOM     22  C   UNL     1       3.134   1.057  22.842  0.00  0.00    +0.023 A 
ATOM     23  C   UNL     1       4.336  -1.308  23.707  0.00  0.00    +0.002 A 
ATOM     24  C   UNL     1       4.525   0.958  22.889  0.00  0.00    +0.002 A 
ATOM     25  C   UNL     1       5.125  -0.224  23.322  0.00  0.00    +0.000 A 
ENDBRANCH   6  20
ENDBRANCH  12   5
ENDBRANCH  10  12
TORSDOF 7
ENDMDL
MODEL 2
REMARK VINA RESULT:      -4.2      2.040      4.078
REMARK  Name = 75536842
REMARK  7 active torsions:
REMARK  status: ('A' for Active; 'I' for Inactive)
REMARK    1  A    between atoms: O_2  and  C_9
REMARK    2  A    between atoms: N_4  and  C_8
REMARK    3  A    between atoms: N_4  and  C_13
REMARK    4  A    between atoms: N_5  and  C_12
REMARK    5  A    between atoms: N_6  and  C_20
REMARK    6  A    between atoms: C_10  and  C_12
REMARK    7  A    between atoms: C_13  and  C_14
REMARK                            x       y       z     vdW  Elec       q    Type
REMARK                         _______ _______ _______ _____ _____    ______ ____
ROOT
ATOM      1  O   UNL     1      -3.015   3.747  23.669  0.00  0.00    -0.371 OA
ATOM      8  C   UNL     1      -4.924   2.585  24.474  0.00  0.00    +0.111 C 
ATOM      9  C   UNL     1      -4.046   2.968  25.651  0.00  0.00    +0.164 C 
ATOM     10  C   UNL     1      -3.223   4.098  25.048  0.00  0.00    +0.165 C 
ATOM     11  C   UNL     1      -3.948   2.710  23.316  0.00  0.00    +0.181 C 
ENDROOT
BRANCH   9   2
ATOM      2  O   UNL     1      -4.791   3.398  26.772  0.00  0.00    -0.388 OA
ATOM     27  H   UNL     1      -5.733   3.409  26.527  0.00  0.00    +0.210 HD
ENDBRANCH   9   2
BRANCH   8   4
ATOM      4  N   UNL     1      -5.502   1.256  24.585  0.00  0.00    -0.305 NA
ATOM     26  H   UNL     1      -5.341   0.749  23.714  0.00  0.00    +0.123 HD
BRANCH   4  13
ATOM     13  C   UNL     1      -4.897   0.510  25.682  0.00  0.00    +0.116 C 
BRANCH  13  14
ATOM      7  N   UNL     1      -2.050  -2.388  24.269  0.00  0.00    -0.263 NA
ATOM     14  C   UNL     1      -3.901  -0.505  25.187  0.00  0.00    -0.031 A 
ATOM     16  C   UNL     1      -4.316  -1.554  24.375  0.00  0.00    +0.024 A 
ATOM     17  C   UNL     1      -2.560  -0.396  25.542  0.00  0.00    +0.024 A 
ATOM     18  C   UNL     1      -3.361  -2.460  23.947  0.00  0.00    +0.111 A 
ATOM     19  C   UNL     1      -1.683  -1.356  25.060  0.00  0.00    +0.111 A 
ENDBRANCH  13  14
ENDBRANCH   4  13
ENDBRANCH   8   4
BRANCH  10  12
ATOM     12  C   UNL     1      -1.884   4.299  25.735  0.00  0.00    +0.140 C 
BRANCH  12   5
ATOM      3  O   UNL     1      -0.278   3.621  23.461  0.00  0.00    -0.253 OA
ATOM      5  N   UNL     1      -1.046   3.143  25.590  0.00  0.00    -0.297 N 
ATOM      6  N   UNL     1       0.430   1.687  24.587  0.00  0.00    -0.269 N 
ATOM     15  C   UNL     1      -0.285   2.879  24.440  0.00  0.00    +0.304 C 
ATOM     28  H   UNL     1      -1.012   2.477  26.356  0.00  0.00    +0.150 HD
ATOM     29  H   UNL     1       0.312   1.188  25.465  0.00  0.00    +0.156 HD
BRANCH   6  20
ATOM     20  C   UNL     1       1.306   1.080  23.656  0.00  0.00    +0.035 A 
ATOM     21  C   UNL     1       2.632   1.501  23.568  0.00  0.00    +0.023 A 
ATOM     22  C   UNL     1       0.842   0.059  22.825  0.00  0.00    +0.023 A 
ATOM     23  C   UNL     1       3.495   0.903  22.650  0.00  0.00    +0.002 A 
ATOM     24  C   UNL     1       1.705  -0.539  21.907  0.00  0.00    +0.002 A 
ATOM     25  C   UNL     1       3.031  -0.117  21.819  0.00  0.00    +0.000 A 
ENDBRANCH   6  20
ENDBRANCH  12   5
ENDBRANCH  10  12
TORSDOF 7
ENDMDL
MODEL 3
REMARK VINA RESULT:      -4.1      2.207      5.484
REMARK  Name = 75536842
REMARK  7 active torsions:
REMARK  status: ('A' for Active; 'I' for Inactive)
REMARK    1  A    between atoms: O_2  and  C_9
REMARK    2  A    between atoms: N_4  and  C_8
REMARK    3  A    between atoms: N_4  and  C_13
REMARK    4  A    between atoms: N_5  and  C_12
REMARK    5  A    between atoms: N_6  and  C_20
REMARK    6  A    between atoms: C_10  and  C_12
REMARK    7  A    between atoms: C_13  and  C_14
REMARK                            x       y       z     vdW  Elec       q    Type
REMARK                         _______ _______ _______ _____ _____    ______ ____
ROOT
ATOM      1  O   UNL     1      -3.761   4.275  26.839  0.00  0.00    -0.371 OA
ATOM      8  C   UNL     1      -2.023   4.576  25.249  0.00  0.00    +0.111 C 
ATOM      9  C   UNL     1      -3.298   4.193  24.521  0.00  0.00    +0.164 C 
ATOM     10  C   UNL     1      -4.350   4.560  25.559  0.00  0.00    +0.165 C 
ATOM     11  C   UNL     1      -2.340   4.132  26.667  0.00  0.00    +0.181 C 
ENDROOT
BRANCH   9   2
ATOM      2  O   UNL     1      -3.475   4.908  23.314  0.00  0.00    -0.388 OA
ATOM     27  H   UNL     1      -2.609   4.986  22.876  0.00  0.00    +0.210 HD
ENDBRANCH   9   2
BRANCH   8   4
ATOM      4  N   UNL     1      -0.830   3.941  24.711  0.00  0.00    -0.305 NA
ATOM     26  H   UNL     1      -0.090   4.639  24.630  0.00  0.00    +0.123 HD
BRANCH   4  13
ATOM     13  C   UNL     1      -0.370   2.865  25.581  0.00  0.00    +0.116 C 
BRANCH  13  14
ATOM      7  N   UNL     1       0.526  -0.712  23.366  0.00  0.00    -0.263 NA
ATOM     14  C   UNL     1      -0.056   1.613  24.806  0.00  0.00    -0.031 A 
ATOM     16  C   UNL     1       0.933   1.626  23.828  0.00  0.00    +0.024 A 
ATOM     17  C   UNL     1      -0.755   0.439  25.064  0.00  0.00    +0.024 A 
ATOM     18  C   UNL     1       1.183   0.448  23.143  0.00  0.00    +0.111 A 
ATOM     19  C   UNL     1      -0.428  -0.686  24.323  0.00  0.00    +0.111 A 
ENDBRANCH  13  14
ENDBRANCH   4  13
ENDBRANCH   8   4
BRANCH  10  12
ATOM     12  C   UNL     1      -5.644   3.781  25.404  0.00  0.00    +0.140 C 
BRANCH  12   5
ATOM      3  O   UNL     1      -4.262   1.738  23.946  0.00  0.00    -0.253 OA
ATOM      5  N   UNL     1      -5.477   2.410  25.796  0.00  0.00    -0.297 N 
ATOM      6  N   UNL     1      -4.784   0.218  25.657  0.00  0.00    -0.269 N 
ATOM     15  C   UNL     1      -4.784   1.464  25.025  0.00  0.00    +0.304 C 
ATOM     28  H   UNL     1      -5.893   2.109  26.671  0.00  0.00    +0.150 HD
ATOM     29  H   UNL     1      -5.264   0.160  26.551  0.00  0.00    +0.156 HD
BRANCH   6  20
ATOM     20  C   UNL     1      -4.195  -0.986  25.204  0.00  0.00    +0.035 A 
ATOM     21  C   UNL     1      -4.486  -1.467  23.928  0.00  0.00    +0.023 A 
ATOM     22  C   UNL     1      -3.323  -1.692  26.034  0.00  0.00    +0.023 A 
ATOM     23  C   UNL     1      -3.906  -2.655  23.481  0.00  0.00    +0.002 A 
ATOM     24  C   UNL     1      -2.743  -2.879  25.586  0.00  0.00    +0.002 A 
ATOM     25  C   UNL     1      -3.035  -3.360  24.311  0.00  0.00    +0.000 A 
ENDBRANCH   6  20
ENDBRANCH  12   5
ENDBRANCH  10  12
TORSDOF 7
ENDMDL
MODEL 4
REMARK VINA RESULT:      -2.8      2.543      5.993
REMARK  Name = 75536842
REMARK  7 active torsions:
REMARK  status: ('A' for Active; 'I' for Inactive)
REMARK    1  A    between atoms: O_2  and  C_9
REMARK    2  A    between atoms: N_4  and  C_8
REMARK    3  A    between atoms: N_4  and  C_13
REMARK    4  A    between atoms: N_5  and  C_12
REMARK    5  A    between atoms: N_6  and  C_20
REMARK    6  A    between atoms: C_10  and  C_12
REMARK    7  A    between atoms: C_13  and  C_14
REMARK                            x       y       z     vdW  Elec       q    Type
REMARK                         _______ _______ _______ _____ _____    ______ ____
ROOT
ATOM      1  O   UNL     1      -1.386  -2.388  23.437  0.00  0.00    -0.371 OA
ATOM      8  C   UNL     1      -0.419  -1.059  25.151  0.00  0.00    +0.111 C 
ATOM      9  C   UNL     1      -1.910  -1.179  25.401  0.00  0.00    +0.164 C 
ATOM     10  C   UNL     1      -2.245  -2.423  24.589  0.00  0.00    +0.165 C 
ATOM     11  C   UNL     1      -0.326  -1.447  23.685  0.00  0.00    +0.181 C 
ENDROOT
BRANCH   9   2
ATOM      2  O   UNL     1      -2.225  -1.342  26.770  0.00  0.00    -0.388 OA
ATOM     27  H   UNL     1      -1.396  -1.307  27.280  0.00  0.00    +0.210 HD
ENDBRANCH   9   2
BRANCH   8   4
ATOM      4  N   UNL     1       0.113   0.267  25.420  0.00  0.00    -0.305 NA
ATOM     26  H   UNL     1       1.116   0.194  25.598  0.00  0.00    +0.123 HD
BRANCH   4  13
ATOM     13  C   UNL     1      -0.099   1.159  24.286  0.00  0.00    +0.116 C 
BRANCH  13  14
ATOM      7  N   UNL     1      -1.596   4.996  25.524  0.00  0.00    -0.263 NA
ATOM     14  C   UNL     1      -0.623   2.502  24.718  0.00  0.00    -0.031 A 
ATOM     16  C   UNL     1      -0.243   3.653  24.038  0.00  0.00    +0.024 A 
ATOM     17  C   UNL     1      -1.489   2.596  25.803  0.00  0.00    +0.024 A 
ATOM     18  C   UNL     1      -0.752   4.864  24.476  0.00  0.00    +0.111 A 
ATOM     19  C   UNL     1      -1.943   3.856  26.162  0.00  0.00    +0.111 A 
ENDBRANCH  13  14
ENDBRANCH   4  13
ENDBRANCH   8   4
BRANCH  10  12
ATOM     12  C   UNL     1      -3.696  -2.479  24.146  0.00  0.00    +0.140 C 
BRANCH  12   5
ATOM      3  O   UNL     1      -3.231   0.279  23.524  0.00  0.00    -0.253 OA
ATOM      5  N   UNL     1      -4.435  -1.352  24.639  0.00  0.00    -0.297 N 
ATOM      6  N   UNL     1      -5.030   0.857  24.917  0.00  0.00    -0.269 N 
ATOM     15  C   UNL     1      -4.145  -0.024  24.287  0.00  0.00    +0.304 C 
ATOM     28  H   UNL     1      -5.198  -1.525  25.285  0.00  0.00    +0.150 HD
ATOM     29  H   UNL     1      -5.734   0.441  25.521  0.00  0.00    +0.156 HD
BRANCH   6  20
ATOM     20  C   UNL     1      -5.067   2.268  24.820  0.00  0.00    +0.035 A 
ATOM     21  C   UNL     1      -4.362   2.916  23.806  0.00  0.00    +0.023 A 
ATOM     22  C   UNL     1      -5.808   3.011  25.739  0.00  0.00    +0.023 A 
ATOM     23  C   UNL     1      -4.397   4.307  23.711  0.00  0.00    +0.002 A 
ATOM     24  C   UNL     1      -5.844   4.402  25.644  0.00  0.00    +0.002 A 
ATOM     25  C   UNL     1      -5.138   5.050  24.630  0.00  0.00    +0.000 A 
ENDBRANCH   6  20
ENDBRANCH  12   5
ENDBRANCH  10  12
TORSDOF 7
ENDMDL
MODEL 5
REMARK VINA RESULT:      -2.8      2.670      4.973
REMARK  Name = 75536842
REMARK  7 active torsions:
REMARK  status: ('A' for Active; 'I' for Inactive)
REMARK    1  A    between atoms: O_2  and  C_9
REMARK    2  A    between atoms: N_4  and  C_8
REMARK    3  A    between atoms: N_4  and  C_13
REMARK    4  A    between atoms: N_5  and  C_12
REMARK    5  A    between atoms: N_6  and  C_20
REMARK    6  A    between atoms: C_10  and  C_12
REMARK    7  A    between atoms: C_13  and  C_14
REMARK                            x       y       z     vdW  Elec       q    Type
REMARK                         _______ _______ _______ _____ _____    ______ ____
ROOT
ATOM      1  O   UNL     1      -1.908  -1.687  26.484  0.00  0.00    -0.371 OA
ATOM      8  C   UNL     1      -3.754  -2.107  25.050  0.00  0.00    +0.111 C 
ATOM      9  C   UNL     1      -2.472  -2.184  24.242  0.00  0.00    +0.164 C 
ATOM     10  C   UNL     1      -1.446  -2.425  25.340  0.00  0.00    +0.165 C 
ATOM     11  C   UNL     1      -3.290  -1.344  26.279  0.00  0.00    +0.181 C 
ENDROOT
BRANCH   9   2
ATOM      2  O   UNL     1      -2.486  -3.233  23.293  0.00  0.00    -0.388 OA
ATOM     27  H   UNL     1      -2.392  -2.843  22.406  0.00  0.00    +0.210 HD
ENDBRANCH   9   2
BRANCH   8   4
ATOM      4  N   UNL     1      -4.845  -1.447  24.352  0.00  0.00    -0.305 NA
ATOM     26  H   UNL     1      -5.546  -1.153  25.034  0.00  0.00    +0.123 HD
BRANCH   4  13
ATOM     13  C   UNL     1      -4.372  -0.273  23.628  0.00  0.00    +0.116 C 
BRANCH  13  14
ATOM      7  N   UNL     1      -5.461   3.382  25.616  0.00  0.00    -0.263 NA
ATOM     14  C   UNL     1      -4.753   1.006  24.324  0.00  0.00    -0.031 A 
ATOM     16  C   UNL     1      -5.695   0.991  25.347  0.00  0.00    +0.024 A 
ATOM     17  C   UNL     1      -4.165   2.208  23.946  0.00  0.00    +0.024 A 
ATOM     18  C   UNL     1      -6.012   2.195  25.955  0.00  0.00    +0.111 A 
ATOM     19  C   UNL     1      -4.550   3.358  24.618  0.00  0.00    +0.111 A 
ENDBRANCH  13  14
ENDBRANCH   4  13
ENDBRANCH   8   4
BRANCH  10  12
ATOM     12  C   UNL     1      -0.047  -1.970  24.966  0.00  0.00    +0.140 C 
BRANCH  12   5
ATOM      3  O   UNL     1      -1.314   0.401  23.977  0.00  0.00    -0.253 OA
ATOM      5  N   UNL     1       0.196  -0.623  25.398  0.00  0.00    -0.297 N 
ATOM      6  N   UNL     1      -0.029   1.668  25.477  0.00  0.00    -0.269 N 
ATOM     15  C   UNL     1      -0.468   0.492  24.863  0.00  0.00    +0.304 C 
ATOM     28  H   UNL     1       0.893  -0.470  26.120  0.00  0.00    +0.150 HD
ATOM     29  H   UNL     1       0.682   1.569  26.197  0.00  0.00    +0.156 HD
BRANCH   6  20
ATOM     20  C   UNL     1      -0.451   2.993  25.218  0.00  0.00    +0.035 A 
ATOM     21  C   UNL     1      -1.441   3.576  26.010  0.00  0.00    +0.023 A 
ATOM     22  C   UNL     1       0.121   3.716  24.172  0.00  0.00    +0.023 A 
ATOM     23  C   UNL     1      -1.859   4.883  25.754  0.00  0.00    +0.002 A 
ATOM     24  C   UNL     1      -0.297   5.023  23.916  0.00  0.00    +0.002 A 
ATOM     25  C   UNL     1      -1.286   5.605  24.707  0.00  0.00    +0.000 A 
ENDBRANCH   6  20
ENDBRANCH  12   5
ENDBRANCH  10  12
TORSDOF 7
ENDMDL
MODEL 6
REMARK VINA RESULT:      -2.4      1.261      1.910
REMARK  Name = 75536842
REMARK  7 active torsions:
REMARK  status: ('A' for Active; 'I' for Inactive)
REMARK    1  A    between atoms: O_2  and  C_9
REMARK    2  A    between atoms: N_4  and  C_8
REMARK    3  A    between atoms: N_4  and  C_13
REMARK    4  A    between atoms: N_5  and  C_12
REMARK    5  A    between atoms: N_6  and  C_20
REMARK    6  A    between atoms: C_10  and  C_12
REMARK    7  A    between atoms: C_13  and  C_14
REMARK                            x       y       z     vdW  Elec       q    Type
REMARK                         _______ _______ _______ _____ _____    ______ ____
ROOT
ATOM      1  O   UNL     1      -3.803  -0.988  26.246  0.00  0.00    -0.371 OA
ATOM      8  C   UNL     1      -4.734   0.500  24.646  0.00  0.00    +0.111 C 
ATOM      9  C   UNL     1      -3.613  -0.288  23.995  0.00  0.00    +0.164 C 
ATOM     10  C   UNL     1      -3.516  -1.487  24.929  0.00  0.00    +0.165 C 
ATOM     11  C   UNL     1      -4.423   0.304  26.120  0.00  0.00    +0.181 C 
ENDROOT
BRANCH   9   2
ATOM      2  O   UNL     1      -3.915  -0.676  22.669  0.00  0.00    -0.388 OA
ATOM     27  H   UNL     1      -4.776  -0.291  22.427  0.00  0.00    +0.210 HD
ENDBRANCH   9   2
BRANCH   8   4
ATOM      4  N   UNL     1      -4.766   1.900  24.255  0.00  0.00    -0.305 NA
ATOM     26  H   UNL     1      -4.661   2.480  25.089  0.00  0.00    +0.123 HD
BRANCH   4  13
ATOM     13  C   UNL     1      -3.686   2.211  23.326  0.00  0.00    +0.116 C 
BRANCH  13  14
ATOM      7  N   UNL     1      -0.406   4.184  25.287  0.00  0.00    -0.263 NA
ATOM     14  C   UNL     1      -2.538   2.901  24.011  0.00  0.00    -0.031 A 
ATOM     16  C   UNL     1      -1.236   2.456  23.813  0.00  0.00    +0.024 A 
ATOM     17  C   UNL     1      -2.775   3.988  24.847  0.00  0.00    +0.024 A 
ATOM     18  C   UNL     1      -0.214   3.125  24.468  0.00  0.00    +0.111 A 
ATOM     19  C   UNL     1      -1.684   4.588  25.455  0.00  0.00    +0.111 A 
ENDBRANCH  13  14
ENDBRANCH   4  13
ENDBRANCH   8   4
BRANCH  10  12
ATOM     12  C   UNL     1      -2.149  -2.148  24.917  0.00  0.00    +0.140 C 
BRANCH  12   5
ATOM      3  O   UNL     1       0.688  -2.006  25.285  0.00  0.00    -0.253 OA
ATOM      5  N   UNL     1      -1.217  -1.403  24.120  0.00  0.00    -0.297 N 
ATOM      6  N   UNL     1       0.819  -0.577  23.428  0.00  0.00    -0.269 N 
ATOM     15  C   UNL     1       0.166  -1.383  24.364  0.00  0.00    +0.304 C 
ATOM     28  H   UNL     1      -1.579  -0.853  23.347  0.00  0.00    +0.150 HD
ATOM     29  H   UNL     1       0.237  -0.129  22.725  0.00  0.00    +0.156 HD
BRANCH   6  20
ATOM     20  C   UNL     1       2.204  -0.301  23.336  0.00  0.00    +0.035 A 
ATOM     21  C   UNL     1       2.638   0.951  22.901  0.00  0.00    +0.023 A 
ATOM     22  C   UNL     1       3.135  -1.281  23.680  0.00  0.00    +0.023 A 
ATOM     23  C   UNL     1       4.003   1.224  22.810  0.00  0.00    +0.002 A 
ATOM     24  C   UNL     1       4.500  -1.009  23.588  0.00  0.00    +0.002 A 
ATOM     25  C   UNL     1       4.934   0.243  23.153  0.00  0.00    +0.000 A 
ENDBRANCH   6  20
ENDBRANCH  12   5
ENDBRANCH  10  12
TORSDOF 7
ENDMDL
MODEL 7
REMARK VINA RESULT:      -2.1      3.111      5.351
REMARK  Name = 75536842
REMARK  7 active torsions:
REMARK  status: ('A' for Active; 'I' for Inactive)
REMARK    1  A    between atoms: O_2  and  C_9
REMARK    2  A    between atoms: N_4  and  C_8
REMARK    3  A    between atoms: N_4  and  C_13
REMARK    4  A    between atoms: N_5  and  C_12
REMARK    5  A    between atoms: N_6  and  C_20
REMARK    6  A    between atoms: C_10  and  C_12
REMARK    7  A    between atoms: C_13  and  C_14
REMARK                            x       y       z     vdW  Elec       q    Type
REMARK                         _______ _______ _______ _____ _____    ______ ____
ROOT
ATOM      1  O   UNL     1       0.315   3.781  24.322  0.00  0.00    -0.371 OA
ATOM      8  C   UNL     1      -1.913   4.600  24.408  0.00  0.00    +0.111 C 
ATOM      9  C   UNL     1      -1.688   3.655  25.574  0.00  0.00    +0.164 C 
ATOM     10  C   UNL     1      -0.168   3.665  25.671  0.00  0.00    +0.165 C 
ATOM     11  C   UNL     1      -0.771   4.215  23.483  0.00  0.00    +0.181 C 
ENDROOT
BRANCH   9   2
ATOM      2  O   UNL     1      -2.296   4.106  26.768  0.00  0.00    -0.388 OA
ATOM     27  H   UNL     1      -3.222   4.334  26.573  0.00  0.00    +0.210 HD
ENDBRANCH   9   2
BRANCH   8   4
ATOM      4  N   UNL     1      -3.218   4.458  23.785  0.00  0.00    -0.305 NA
ATOM     26  H   UNL     1      -3.184   4.858  22.846  0.00  0.00    +0.123 HD
BRANCH   4  13
ATOM     13  C   UNL     1      -3.602   3.054  23.684  0.00  0.00    +0.116 C 
BRANCH  13  14
ATOM      7  N   UNL     1      -6.643   2.015  26.543  0.00  0.00    -0.263 NA
ATOM     14  C   UNL     1      -4.666   2.691  24.685  0.00  0.00    -0.031 A 
ATOM     16  C   UNL     1      -5.307   3.685  25.415  0.00  0.00    +0.024 A 
ATOM     17  C   UNL     1      -5.013   1.358  24.882  0.00  0.00    +0.024 A 
ATOM     18  C   UNL     1      -6.279   3.299  26.324  0.00  0.00    +0.111 A 
ATOM     19  C   UNL     1      -5.999   1.077  25.815  0.00  0.00    +0.111 A 
ENDBRANCH  13  14
ENDBRANCH   4  13
ENDBRANCH   8   4
BRANCH  10  12
ATOM     12  C   UNL     1       0.400   2.413  26.314  0.00  0.00    +0.140 C 
BRANCH  12   5
ATOM      3  O   UNL     1      -0.401   0.576  24.267  0.00  0.00    -0.253 OA
ATOM      5  N   UNL     1      -0.596   1.386  26.425  0.00  0.00    -0.297 N 
ATOM      6  N   UNL     1      -1.932  -0.374  25.772  0.00  0.00    -0.269 N 
ATOM     15  C   UNL     1      -0.934   0.520  25.373  0.00  0.00    +0.304 C 
ATOM     28  H   UNL     1      -1.089   1.290  27.307  0.00  0.00    +0.150 HD
ATOM     29  H   UNL     1      -2.268  -0.285  26.728  0.00  0.00    +0.156 HD
BRANCH   6  20
ATOM     20  C   UNL     1      -2.539  -1.396  25.006  0.00  0.00    +0.035 A 
ATOM     21  C   UNL     1      -1.791  -2.498  24.595  0.00  0.00    +0.023 A 
ATOM     22  C   UNL     1      -3.888  -1.300  24.660  0.00  0.00    +0.023 A 
ATOM     23  C   UNL     1      -2.389  -3.506  23.839  0.00  0.00    +0.002 A 
ATOM     24  C   UNL     1      -4.487  -2.308  23.904  0.00  0.00    +0.002 A 
ATOM     25  C   UNL     1      -3.737  -3.410  23.493  0.00  0.00    +0.000 A 
ENDBRANCH   6  20
ENDBRANCH  12   5
ENDBRANCH  10  12
TORSDOF 7
ENDMDL
MODEL 8
REMARK VINA RESULT:      -1.9      1.970      6.900
REMARK  Name = 75536842
REMARK  7 active torsions:
REMARK  status: ('A' for Active; 'I' for Inactive)
REMARK    1  A    between atoms: O_2  and  C_9
REMARK    2  A    between atoms: N_4  and  C_8
REMARK    3  A    between atoms: N_4  and  C_13
REMARK    4  A    between atoms: N_5  and  C_12
REMARK    5  A    between atoms: N_6  and  C_20
REMARK    6  A    between atoms: C_10  and  C_12
REMARK    7  A    between atoms: C_13  and  C_14
REMARK                            x       y       z     vdW  Elec       q    Type
REMARK                         _______ _______ _______ _____ _____    ______ ____
ROOT
ATOM      1  O   UNL     1      -1.592  -2.812  23.557  0.00  0.00    -0.371 OA
ATOM      8  C   UNL     1       0.030  -1.241  24.294  0.00  0.00    +0.111 C 
ATOM      9  C   UNL     1      -1.199  -1.135  25.178  0.00  0.00    +0.164 C 
ATOM     10  C   UNL     1      -1.855  -2.487  24.932  0.00  0.00    +0.165 C 
ATOM     11  C   UNL     1      -0.534  -1.961  23.080  0.00  0.00    +0.181 C 
ENDROOT
BRANCH   9   2
ATOM      2  O   UNL     1      -0.876  -0.945  26.542  0.00  0.00    -0.388 OA
ATOM     27  H   UNL     1      -1.629  -1.247  27.079  0.00  0.00    +0.210 HD
ENDBRANCH   9   2
BRANCH   8   4
ATOM      4  N   UNL     1       0.623   0.045  23.963  0.00  0.00    -0.305 NA
ATOM     26  H   UNL     1       1.217   0.346  24.737  0.00  0.00    +0.123 HD
BRANCH   4  13
ATOM     13  C   UNL     1       1.435  -0.047  22.755  0.00  0.00    +0.116 C 
BRANCH  13  14
ATOM      7  N   UNL     1       5.635  -0.236  23.659  0.00  0.00    -0.263 NA
ATOM     14  C   UNL     1       2.905  -0.114  23.071  0.00  0.00    -0.031 A 
ATOM     16  C   UNL     1       3.454  -1.275  23.602  0.00  0.00    +0.024 A 
ATOM     17  C   UNL     1       3.720   0.988  22.833  0.00  0.00    +0.024 A 
ATOM     18  C   UNL     1       4.811  -1.286  23.876  0.00  0.00    +0.111 A 
ATOM     19  C   UNL     1       5.067   0.876  23.142  0.00  0.00    +0.111 A 
ENDBRANCH  13  14
ENDBRANCH   4  13
ENDBRANCH   8   4
BRANCH  10  12
ATOM     12  C   UNL     1      -3.352  -2.483  25.183  0.00  0.00    +0.140 C 
BRANCH  12   5
ATOM      3  O   UNL     1      -3.616  -0.002  23.774  0.00  0.00    -0.253 OA
ATOM      5  N   UNL     1      -3.785  -1.228  25.728  0.00  0.00    -0.297 N 
ATOM      6  N   UNL     1      -4.337   1.009  25.766  0.00  0.00    -0.269 N 
ATOM     15  C   UNL     1      -3.890  -0.051  24.971  0.00  0.00    +0.304 C 
ATOM     28  H   UNL     1      -4.016  -1.189  26.716  0.00  0.00    +0.150 HD
ATOM     29  H   UNL     1      -4.518   0.799  26.745  0.00  0.00    +0.156 HD
BRANCH   6  20
ATOM     20  C   UNL     1      -4.568   2.349  25.378  0.00  0.00    +0.035 A 
ATOM     21  C   UNL     1      -5.717   3.011  25.808  0.00  0.00    +0.023 A 
ATOM     22  C   UNL     1      -3.646   3.008  24.564  0.00  0.00    +0.023 A 
ATOM     23  C   UNL     1      -5.946   4.333  25.424  0.00  0.00    +0.002 A 
ATOM     24  C   UNL     1      -3.875   4.330  24.180  0.00  0.00    +0.002 A 
ATOM     25  C   UNL     1      -5.025   4.991  24.610  0.00  0.00    +0.000 A 
ENDBRANCH   6  20
ENDBRANCH  12   5
ENDBRANCH  10  12
TORSDOF 7
ENDMDL
