MODEL 1
REMARK VINA RESULT:      -4.4      0.000      0.000
REMARK  Name = 11887643
REMARK  4 active torsions:
REMARK  status: ('A' for Active; 'I' for Inactive)
REMARK    1  A    between atoms: O_4  and  C_23
REMARK    2  A    between atoms: O_4  and  C_27
REMARK    3  A    between atoms: N_7  and  C_15
REMARK    4  A    between atoms: C_14  and  C_16
REMARK                            x       y       z     vdW  Elec       q    Type
REMARK                         _______ _______ _______ _____ _____    ______ ____
ROOT
ATOM      1  O   UNL     1      12.776  -7.099  30.500  0.00  0.00    -0.273 OA
ATOM      2  O   UNL     1      17.001  -8.818  31.649  0.00  0.00    -0.252 OA
ATOM      3  O   UNL     1      10.602  -6.954  32.752  0.00  0.00    -0.270 OA
ATOM      5  N   UNL     1      11.614  -8.945  32.097  0.00  0.00    -0.284 N 
ATOM      6  N   UNL     1      15.114  -9.776  32.440  0.00  0.00    -0.293 N 
ATOM      7  N   UNL     1      14.932  -7.894  31.003  0.00  0.00    -0.193 N 
ATOM      8  C   UNL     1      13.691  -9.879  32.582  0.00  0.00    +0.105 C 
ATOM      9  C   UNL     1      12.990  -8.551  32.397  0.00  0.00    +0.183 C 
ATOM     10  C   UNL     1      13.012 -10.781  31.555  0.00  0.00    +0.043 C 
ATOM     11  C   UNL     1      11.555 -10.339  31.644  0.00  0.00    +0.111 C 
ATOM     12  C   UNL     1      13.533  -7.775  31.201  0.00  0.00    +0.250 C 
ATOM     13  C   UNL     1      15.766  -8.830  31.672  0.00  0.00    +0.313 C 
ATOM     14  C   UNL     1      10.532  -8.121  32.372  0.00  0.00    +0.247 C 
ATOM     33  H   UNL     1      15.687 -10.461  32.923  0.00  0.00    +0.151 HD
ENDROOT
BRANCH   7  15
ATOM     15  C   UNL     1      15.554  -7.007  30.040  0.00  0.00    +0.046 A 
ATOM     17  C   UNL     1      16.148  -5.830  30.475  0.00  0.00    +0.027 A 
ATOM     18  C   UNL     1      15.546  -7.347  28.693  0.00  0.00    +0.027 A 
ATOM     21  C   UNL     1      16.745  -4.978  29.546  0.00  0.00    +0.048 A 
ATOM     22  C   UNL     1      16.144  -6.494  27.765  0.00  0.00    +0.048 A 
ATOM     23  C   UNL     1      16.742  -5.310  28.192  0.00  0.00    +0.129 A 
BRANCH  23   4
ATOM      4  O   UNL     1      17.326  -4.477  27.287  0.00  0.00    -0.456 OA
BRANCH   4  27
ATOM     27  C   UNL     1      17.266  -4.835  25.950  0.00  0.00    +0.128 A 
ATOM     28  C   UNL     1      17.404  -6.166  25.603  0.00  0.00    +0.046 A 
ATOM     29  C   UNL     1      17.069  -3.851  24.998  0.00  0.00    +0.046 A 
ATOM     30  C   UNL     1      17.343  -6.527  24.257  0.00  0.00    +0.004 A 
ATOM     31  C   UNL     1      17.007  -4.212  23.652  0.00  0.00    +0.004 A 
ATOM     32  C   UNL     1      17.145  -5.550  23.281  0.00  0.00    +0.000 A 
ENDBRANCH   4  27
ENDBRANCH  23   4
ENDBRANCH   7  15
BRANCH  14  16
ATOM     16  C   UNL     1       9.190  -8.694  32.201  0.00  0.00    +0.037 A 
ATOM     19  C   UNL     1       8.858  -9.884  32.842  0.00  0.00    +0.013 A 
ATOM     20  C   UNL     1       8.258  -8.042  31.399  0.00  0.00    +0.013 A 
ATOM     24  C   UNL     1       7.583 -10.427  32.680  0.00  0.00    +0.001 A 
ATOM     25  C   UNL     1       6.983  -8.585  31.237  0.00  0.00    +0.001 A 
ATOM     26  C   UNL     1       6.646  -9.777  31.878  0.00  0.00    +0.000 A 
ENDBRANCH  14  16
TORSDOF 4
ENDMDL
