MODEL 1
REMARK VINA RESULT:       3.9      0.000      0.000
REMARK  Name = 7155440
REMARK  4 active torsions:
REMARK  status: ('A' for Active; 'I' for Inactive)
REMARK    1  A    between atoms: S_1  and  N_8
REMARK    2  A    between atoms: S_1  and  C_20
REMARK    3  A    between atoms: C_17  and  C_22
REMARK    4  A    between atoms: C_27  and  C_33
REMARK                            x       y       z     vdW  Elec       q    Type
REMARK                         _______ _______ _______ _____ _____    ______ ____
ROOT
ATOM      7  O   UNL     1      -2.211   5.215  26.504  0.00  0.00    -0.268 OA
ATOM      8  N   UNL     1      -4.265   1.393  24.116  0.00  0.00    -0.176 NA
ATOM      9  N   UNL     1      -2.262   3.759  24.670  0.00  0.00    -0.311 N 
ATOM     10  C   UNL     1      -4.277   3.661  23.088  0.00  0.00    +0.025 C 
ATOM     11  C   UNL     1      -2.359   2.174  22.720  0.00  0.00    +0.053 C 
ATOM     12  C   UNL     1      -3.259   3.211  22.053  0.00  0.00    +0.017 C 
ATOM     13  C   UNL     1      -5.129   2.475  23.568  0.00  0.00    +0.114 C 
ATOM     14  C   UNL     1      -3.208   0.963  23.155  0.00  0.00    +0.119 C 
ATOM     15  C   UNL     1      -3.537   4.347  24.237  0.00  0.00    +0.130 C 
ATOM     16  C   UNL     1      -1.606   2.766  23.915  0.00  0.00    +0.034 A 
ATOM     17  C   UNL     1      -0.362   2.357  24.273  0.00  0.00    +0.002 A 
ATOM     18  C   UNL     1      -1.689   4.335  25.817  0.00  0.00    +0.252 A 
ATOM     19  C   UNL     1       0.259   2.926  25.454  0.00  0.00    +0.015 A 
ATOM     21  C   UNL     1      -0.347   3.844  26.204  0.00  0.00    +0.071 A 
ENDROOT
BRANCH  17  22
ATOM     22  C   UNL     1       0.375   1.332  23.500  0.00  0.00    -0.016 A 
ATOM     25  C   UNL     1       1.767   1.343  23.490  0.00  0.00    +0.008 A 
ATOM     26  C   UNL     1      -0.329   0.365  22.789  0.00  0.00    +0.008 A 
ATOM     29  C   UNL     1       2.462   0.377  22.762  0.00  0.00    +0.001 A 
ATOM     30  C   UNL     1       0.366  -0.602  22.061  0.00  0.00    +0.001 A 
ATOM     32  C   UNL     1       1.760  -0.596  22.048  0.00  0.00    +0.000 A 
ENDBRANCH  17  22
BRANCH   8   1
ATOM      1  S   UNL     1      -5.084   0.129  24.929  0.00  0.00    +0.061 S 
ATOM      5  O   UNL     1      -6.278  -0.216  24.186  0.00  0.00    -0.153 OA
ATOM      6  O   UNL     1      -5.149   0.440  26.341  0.00  0.00    -0.153 OA
BRANCH   1  20
ATOM     20  C   UNL     1      -3.919  -1.181  24.715  0.00  0.00    +0.106 A 
ATOM     23  C   UNL     1      -2.651  -1.056  25.260  0.00  0.00    +0.041 A 
ATOM     24  C   UNL     1      -4.293  -2.311  24.008  0.00  0.00    +0.028 A 
ATOM     27  C   UNL     1      -1.731  -2.091  25.092  0.00  0.00    +0.057 A 
ATOM     28  C   UNL     1      -3.373  -3.346  23.839  0.00  0.00    +0.002 A 
ATOM     31  C   UNL     1      -2.092  -3.235  24.380  0.00  0.00    +0.012 A 
BRANCH  27  33
ATOM      2  F   UNL     1       0.212  -3.176  25.969  0.00  0.00    -0.166 F 
ATOM      3  F   UNL     1       0.528  -1.347  24.845  0.00  0.00    -0.166 F 
ATOM      4  F   UNL     1      -0.345  -1.260  26.834  0.00  0.00    -0.166 F 
ATOM     33  C   UNL     1      -0.362  -1.973  25.670  0.00  0.00    +0.417 C 
ENDBRANCH  27  33
ENDBRANCH   1  20
ENDBRANCH   8   1
TORSDOF 4
ENDMDL
MODEL 2
REMARK VINA RESULT:       4.7      3.152      5.061
REMARK  Name = 7155440
REMARK  4 active torsions:
REMARK  status: ('A' for Active; 'I' for Inactive)
REMARK    1  A    between atoms: S_1  and  N_8
REMARK    2  A    between atoms: S_1  and  C_20
REMARK    3  A    between atoms: C_17  and  C_22
REMARK    4  A    between atoms: C_27  and  C_33
REMARK                            x       y       z     vdW  Elec       q    Type
REMARK                         _______ _______ _______ _____ _____    ______ ____
ROOT
ATOM      7  O   UNL     1      -1.719   3.454  22.272  0.00  0.00    -0.268 OA
ATOM      8  N   UNL     1      -1.854  -0.633  25.067  0.00  0.00    -0.176 NA
ATOM      9  N   UNL     1      -0.684   1.994  23.782  0.00  0.00    -0.311 N 
ATOM     10  C   UNL     1      -0.233  -0.458  23.185  0.00  0.00    +0.025 C 
ATOM     11  C   UNL     1       0.387   0.396  25.401  0.00  0.00    +0.053 C 
ATOM     12  C   UNL     1       0.918  -0.335  24.170  0.00  0.00    +0.017 C 
ATOM     13  C   UNL     1      -1.393  -1.258  23.796  0.00  0.00    +0.114 C 
ATOM     14  C   UNL     1      -0.742  -0.435  26.042  0.00  0.00    +0.119 C 
ATOM     15  C   UNL     1      -0.659   0.946  22.753  0.00  0.00    +0.130 C 
ATOM     16  C   UNL     1      -0.104   1.803  25.052  0.00  0.00    +0.034 A 
ATOM     17  C   UNL     1      -0.019   2.845  25.919  0.00  0.00    +0.002 A 
ATOM     18  C   UNL     1      -1.216   3.229  23.374  0.00  0.00    +0.252 A 
ATOM     19  C   UNL     1      -0.562   4.134  25.534  0.00  0.00    +0.015 A 
ATOM     21  C   UNL     1      -1.141   4.338  24.352  0.00  0.00    +0.071 A 
ENDROOT
BRANCH  17  22
ATOM     22  C   UNL     1       0.600   2.700  27.256  0.00  0.00    -0.016 A 
ATOM     25  C   UNL     1       1.970   2.890  27.408  0.00  0.00    +0.008 A 
ATOM     26  C   UNL     1      -0.194   2.373  28.352  0.00  0.00    +0.008 A 
ATOM     29  C   UNL     1       2.553   2.754  28.668  0.00  0.00    +0.001 A 
ATOM     30  C   UNL     1       0.389   2.236  29.612  0.00  0.00    +0.001 A 
ATOM     32  C   UNL     1       1.762   2.426  29.770  0.00  0.00    +0.000 A 
ENDBRANCH  17  22
BRANCH   8   1
ATOM      1  S   UNL     1      -3.307  -1.258  25.718  0.00  0.00    +0.061 S 
ATOM      5  O   UNL     1      -3.199  -1.302  27.161  0.00  0.00    -0.153 OA
ATOM      6  O   UNL     1      -3.696  -2.431  24.964  0.00  0.00    -0.153 OA
BRANCH   1  20
ATOM     20  C   UNL     1      -4.420   0.048  25.300  0.00  0.00    +0.106 A 
ATOM     23  C   UNL     1      -4.044   1.360  25.538  0.00  0.00    +0.041 A 
ATOM     24  C   UNL     1      -5.649  -0.262  24.742  0.00  0.00    +0.028 A 
ATOM     27  C   UNL     1      -4.924   2.392  25.207  0.00  0.00    +0.057 A 
ATOM     28  C   UNL     1      -6.528   0.769  24.412  0.00  0.00    +0.002 A 
ATOM     31  C   UNL     1      -6.166   2.096  24.646  0.00  0.00    +0.012 A 
BRANCH  27  33
ATOM      2  F   UNL     1      -3.612   3.958  26.453  0.00  0.00    -0.166 F 
ATOM      3  F   UNL     1      -3.990   4.427  24.369  0.00  0.00    -0.166 F 
ATOM      4  F   UNL     1      -5.597   4.586  25.824  0.00  0.00    -0.166 F 
ATOM     33  C   UNL     1      -4.536   3.810  25.457  0.00  0.00    +0.417 C 
ENDBRANCH  27  33
ENDBRANCH   1  20
ENDBRANCH   8   1
TORSDOF 4
ENDMDL
MODEL 3
REMARK VINA RESULT:       5.7      2.401      4.140
REMARK  Name = 7155440
REMARK  4 active torsions:
REMARK  status: ('A' for Active; 'I' for Inactive)
REMARK    1  A    between atoms: S_1  and  N_8
REMARK    2  A    between atoms: S_1  and  C_20
REMARK    3  A    between atoms: C_17  and  C_22
REMARK    4  A    between atoms: C_27  and  C_33
REMARK                            x       y       z     vdW  Elec       q    Type
REMARK                         _______ _______ _______ _____ _____    ______ ____
ROOT
ATOM      7  O   UNL     1      -1.830  -1.003  27.531  0.00  0.00    -0.268 OA
ATOM      8  N   UNL     1      -1.856   2.906  24.489  0.00  0.00    -0.176 NA
ATOM      9  N   UNL     1      -0.676   0.535  26.194  0.00  0.00    -0.311 N 
ATOM     10  C   UNL     1      -0.715   3.049  26.697  0.00  0.00    +0.025 C 
ATOM     11  C   UNL     1       0.519   2.210  24.749  0.00  0.00    +0.053 C 
ATOM     12  C   UNL     1       0.641   3.059  26.011  0.00  0.00    +0.017 C 
ATOM     13  C   UNL     1      -1.797   3.642  25.782  0.00  0.00    +0.114 C 
ATOM     14  C   UNL     1      -0.530   2.837  23.809  0.00  0.00    +0.119 C 
ATOM     15  C   UNL     1      -1.037   1.615  27.122  0.00  0.00    +0.130 C 
ATOM     16  C   UNL     1       0.155   0.760  25.078  0.00  0.00    +0.034 A 
ATOM     17  C   UNL     1       0.583  -0.291  24.332  0.00  0.00    +0.002 A 
ATOM     18  C   UNL     1      -1.117  -0.748  26.560  0.00  0.00    +0.252 A 
ATOM     19  C   UNL     1       0.144  -1.631  24.676  0.00  0.00    +0.015 A 
ATOM     21  C   UNL     1      -0.664  -1.871  25.707  0.00  0.00    +0.071 A 
ENDROOT
BRANCH  17  22
ATOM     22  C   UNL     1       1.473  -0.108  23.163  0.00  0.00    -0.016 A 
ATOM     25  C   UNL     1       2.718   0.490  23.331  0.00  0.00    +0.008 A 
ATOM     26  C   UNL     1       1.057  -0.534  21.906  0.00  0.00    +0.008 A 
ATOM     29  C   UNL     1       3.557   0.662  22.231  0.00  0.00    +0.001 A 
ATOM     30  C   UNL     1       1.897  -0.361  20.804  0.00  0.00    +0.001 A 
ATOM     32  C   UNL     1       3.146   0.237  20.967  0.00  0.00    +0.000 A 
ENDBRANCH  17  22
BRANCH   8   1
ATOM      1  S   UNL     1      -3.186   3.281  23.480  0.00  0.00    +0.061 S 
ATOM      5  O   UNL     1      -2.805   3.080  22.098  0.00  0.00    -0.153 OA
ATOM      6  O   UNL     1      -3.771   4.531  23.917  0.00  0.00    -0.153 OA
BRANCH   1  20
ATOM     20  C   UNL     1      -4.292   1.979  23.929  0.00  0.00    +0.106 A 
ATOM     23  C   UNL     1      -3.842   0.669  23.901  0.00  0.00    +0.041 A 
ATOM     24  C   UNL     1      -5.588   2.290  24.302  0.00  0.00    +0.028 A 
ATOM     27  C   UNL     1      -4.715  -0.360  24.256  0.00  0.00    +0.057 A 
ATOM     28  C   UNL     1      -6.462   1.262  24.656  0.00  0.00    +0.002 A 
ATOM     31  C   UNL     1      -6.025  -0.063  24.632  0.00  0.00    +0.012 A 
BRANCH  27  33
ATOM      2  F   UNL     1      -4.001  -2.293  25.470  0.00  0.00    -0.166 F 
ATOM      3  F   UNL     1      -5.141  -2.635  23.656  0.00  0.00    -0.166 F 
ATOM      4  F   UNL     1      -3.087  -1.932  23.530  0.00  0.00    -0.166 F 
ATOM     33  C   UNL     1      -4.249  -1.775  24.230  0.00  0.00    +0.417 C 
ENDBRANCH  27  33
ENDBRANCH   1  20
ENDBRANCH   8   1
TORSDOF 4
ENDMDL
MODEL 4
REMARK VINA RESULT:       6.3      1.797      2.327
REMARK  Name = 7155440
REMARK  4 active torsions:
REMARK  status: ('A' for Active; 'I' for Inactive)
REMARK    1  A    between atoms: S_1  and  N_8
REMARK    2  A    between atoms: S_1  and  C_20
REMARK    3  A    between atoms: C_17  and  C_22
REMARK    4  A    between atoms: C_27  and  C_33
REMARK                            x       y       z     vdW  Elec       q    Type
REMARK                         _______ _______ _______ _____ _____    ______ ____
ROOT
ATOM      7  O   UNL     1      -1.835   6.067  25.648  0.00  0.00    -0.268 OA
ATOM      8  N   UNL     1      -4.421   2.114  24.157  0.00  0.00    -0.176 NA
ATOM      9  N   UNL     1      -2.058   4.193  24.260  0.00  0.00    -0.311 N 
ATOM     10  C   UNL     1      -3.981   3.988  22.578  0.00  0.00    +0.025 C 
ATOM     11  C   UNL     1      -2.342   2.174  22.789  0.00  0.00    +0.053 C 
ATOM     12  C   UNL     1      -3.011   3.119  21.795  0.00  0.00    +0.017 C 
ATOM     13  C   UNL     1      -5.052   3.129  23.268  0.00  0.00    +0.114 C 
ATOM     14  C   UNL     1      -3.412   1.277  23.443  0.00  0.00    +0.119 C 
ATOM     15  C   UNL     1      -3.186   4.835  23.572  0.00  0.00    +0.130 C 
ATOM     16  C   UNL     1      -1.553   2.942  23.853  0.00  0.00    +0.034 A 
ATOM     17  C   UNL     1      -0.419   2.454  24.420  0.00  0.00    +0.002 A 
ATOM     18  C   UNL     1      -1.446   4.962  25.265  0.00  0.00    +0.252 A 
ATOM     19  C   UNL     1       0.236   3.218  25.465  0.00  0.00    +0.015 A 
ATOM     21  C   UNL     1      -0.232   4.390  25.890  0.00  0.00    +0.071 A 
ENDROOT
BRANCH  17  22
ATOM     22  C   UNL     1       0.159   1.154  24.013  0.00  0.00    -0.016 A 
ATOM     25  C   UNL     1      -0.420  -0.030  24.459  0.00  0.00    +0.008 A 
ATOM     26  C   UNL     1       1.278   1.125  23.186  0.00  0.00    +0.008 A 
ATOM     29  C   UNL     1       0.125  -1.255  24.075  0.00  0.00    +0.001 A 
ATOM     30  C   UNL     1       1.823  -0.100  22.802  0.00  0.00    +0.001 A 
ATOM     32  C   UNL     1       1.247  -1.290  23.246  0.00  0.00    +0.000 A 
ENDBRANCH  17  22
BRANCH   8   1
ATOM      1  S   UNL     1      -5.488   1.266  25.190  0.00  0.00    +0.061 S 
ATOM      5  O   UNL     1      -6.677   0.902  24.448  0.00  0.00    -0.153 OA
ATOM      6  O   UNL     1      -5.583   1.970  26.451  0.00  0.00    -0.153 OA
BRANCH   1  20
ATOM     20  C   UNL     1      -4.550  -0.206  25.462  0.00  0.00    +0.106 A 
ATOM     23  C   UNL     1      -4.491  -1.165  24.464  0.00  0.00    +0.041 A 
ATOM     24  C   UNL     1      -3.891  -0.376  26.668  0.00  0.00    +0.028 A 
ATOM     27  C   UNL     1      -3.750  -2.328  24.679  0.00  0.00    +0.057 A 
ATOM     28  C   UNL     1      -3.151  -1.539  26.883  0.00  0.00    +0.002 A 
ATOM     31  C   UNL     1      -3.081  -2.514  25.889  0.00  0.00    +0.012 A 
BRANCH  27  33
ATOM      2  F   UNL     1      -2.404  -3.622  23.184  0.00  0.00    -0.166 F 
ATOM      3  F   UNL     1      -4.167  -4.584  24.005  0.00  0.00    -0.166 F 
ATOM      4  F   UNL     1      -4.381  -3.031  22.498  0.00  0.00    -0.166 F 
ATOM     33  C   UNL     1      -3.675  -3.371  23.616  0.00  0.00    +0.417 C 
ENDBRANCH  27  33
ENDBRANCH   1  20
ENDBRANCH   8   1
TORSDOF 4
ENDMDL
MODEL 5
REMARK VINA RESULT:       6.5      3.154      4.827
REMARK  Name = 7155440
REMARK  4 active torsions:
REMARK  status: ('A' for Active; 'I' for Inactive)
REMARK    1  A    between atoms: S_1  and  N_8
REMARK    2  A    between atoms: S_1  and  C_20
REMARK    3  A    between atoms: C_17  and  C_22
REMARK    4  A    between atoms: C_27  and  C_33
REMARK                            x       y       z     vdW  Elec       q    Type
REMARK                         _______ _______ _______ _____ _____    ______ ____
ROOT
ATOM      7  O   UNL     1      -3.273   3.685  23.531  0.00  0.00    -0.268 OA
ATOM      8  N   UNL     1      -0.629  -0.410  24.412  0.00  0.00    -0.176 NA
ATOM      9  N   UNL     1      -1.284   2.665  24.231  0.00  0.00    -0.311 N 
ATOM     10  C   UNL     1       0.099   1.193  22.652  0.00  0.00    +0.025 C 
ATOM     11  C   UNL     1       0.832   1.526  24.971  0.00  0.00    +0.053 C 
ATOM     12  C   UNL     1       1.274   1.626  23.513  0.00  0.00    +0.017 C 
ATOM     13  C   UNL     1      -0.307  -0.255  22.967  0.00  0.00    +0.114 C 
ATOM     14  C   UNL     1       0.475   0.062  25.298  0.00  0.00    +0.119 C 
ATOM     15  C   UNL     1      -1.051   2.178  22.864  0.00  0.00    +0.130 C 
ATOM     16  C   UNL     1      -0.351   2.452  25.265  0.00  0.00    +0.034 A 
ATOM     17  C   UNL     1      -0.535   3.045  26.474  0.00  0.00    +0.002 A 
ATOM     18  C   UNL     1      -2.435   3.454  24.403  0.00  0.00    +0.252 A 
ATOM     19  C   UNL     1      -1.714   3.862  26.690  0.00  0.00    +0.015 A 
ATOM     21  C   UNL     1      -2.628   4.058  25.741  0.00  0.00    +0.071 A 
ENDROOT
BRANCH  17  22
ATOM     22  C   UNL     1       0.427   2.867  27.584  0.00  0.00    -0.016 A 
ATOM     25  C   UNL     1      -0.033   2.491  28.843  0.00  0.00    +0.008 A 
ATOM     26  C   UNL     1       1.784   3.078  27.362  0.00  0.00    +0.008 A 
ATOM     29  C   UNL     1       0.873   2.323  29.889  0.00  0.00    +0.001 A 
ATOM     30  C   UNL     1       2.691   2.910  28.409  0.00  0.00    +0.001 A 
ATOM     32  C   UNL     1       2.236   2.533  29.672  0.00  0.00    +0.000 A 
ENDBRANCH  17  22
BRANCH   8   1
ATOM      1  S   UNL     1      -1.351  -1.896  24.857  0.00  0.00    +0.061 S 
ATOM      5  O   UNL     1      -1.154  -2.113  26.275  0.00  0.00    -0.153 OA
ATOM      6  O   UNL     1      -0.981  -2.908  23.890  0.00  0.00    -0.153 OA
BRANCH   1  20
ATOM     20  C   UNL     1      -3.054  -1.501  24.603  0.00  0.00    +0.106 A 
ATOM     23  C   UNL     1      -3.531  -0.267  25.014  0.00  0.00    +0.041 A 
ATOM     24  C   UNL     1      -3.881  -2.431  23.998  0.00  0.00    +0.028 A 
ATOM     27  C   UNL     1      -4.876   0.045  24.813  0.00  0.00    +0.057 A 
ATOM     28  C   UNL     1      -5.226  -2.120  23.798  0.00  0.00    +0.002 A 
ATOM     31  C   UNL     1      -5.723  -0.882  24.206  0.00  0.00    +0.012 A 
BRANCH  27  33
ATOM      2  F   UNL     1      -6.576   1.284  25.952  0.00  0.00    -0.166 F 
ATOM      3  F   UNL     1      -4.553   2.061  26.058  0.00  0.00    -0.166 F 
ATOM      4  F   UNL     1      -5.672   2.199  24.199  0.00  0.00    -0.166 F 
ATOM     33  C   UNL     1      -5.407   1.368  25.250  0.00  0.00    +0.417 C 
ENDBRANCH  27  33
ENDBRANCH   1  20
ENDBRANCH   8   1
TORSDOF 4
ENDMDL
MODEL 6
REMARK VINA RESULT:       7.4      2.841      5.427
REMARK  Name = 7155440
REMARK  4 active torsions:
REMARK  status: ('A' for Active; 'I' for Inactive)
REMARK    1  A    between atoms: S_1  and  N_8
REMARK    2  A    between atoms: S_1  and  C_20
REMARK    3  A    between atoms: C_17  and  C_22
REMARK    4  A    between atoms: C_27  and  C_33
REMARK                            x       y       z     vdW  Elec       q    Type
REMARK                         _______ _______ _______ _____ _____    ______ ____
ROOT
ATOM      7  O   UNL     1      -5.322   4.666  25.399  0.00  0.00    -0.268 OA
ATOM      8  N   UNL     1      -0.867   2.712  24.469  0.00  0.00    -0.176 NA
ATOM      9  N   UNL     1      -3.737   2.976  25.739  0.00  0.00    -0.311 N 
ATOM     10  C   UNL     1      -1.442   3.474  26.769  0.00  0.00    +0.025 C 
ATOM     11  C   UNL     1      -2.003   1.187  26.075  0.00  0.00    +0.053 C 
ATOM     12  C   UNL     1      -1.505   2.032  27.245  0.00  0.00    +0.017 C 
ATOM     13  C   UNL     1      -0.474   3.617  25.585  0.00  0.00    +0.114 C 
ATOM     14  C   UNL     1      -1.002   1.292  24.906  0.00  0.00    +0.119 C 
ATOM     15  C   UNL     1      -2.858   3.936  26.421  0.00  0.00    +0.130 C 
ATOM     16  C   UNL     1      -3.405   1.611  25.630  0.00  0.00    +0.034 A 
ATOM     17  C   UNL     1      -4.310   0.734  25.124  0.00  0.00    +0.002 A 
ATOM     18  C   UNL     1      -4.975   3.488  25.313  0.00  0.00    +0.252 A 
ATOM     19  C   UNL     1      -5.597   1.226  24.669  0.00  0.00    +0.015 A 
ATOM     21  C   UNL     1      -5.928   2.515  24.733  0.00  0.00    +0.071 A 
ENDROOT
BRANCH  17  22
ATOM     22  C   UNL     1      -4.015  -0.712  25.008  0.00  0.00    -0.016 A 
ATOM     25  C   UNL     1      -4.353  -1.394  23.843  0.00  0.00    +0.008 A 
ATOM     26  C   UNL     1      -3.400  -1.378  26.063  0.00  0.00    +0.008 A 
ATOM     29  C   UNL     1      -4.075  -2.756  23.732  0.00  0.00    +0.001 A 
ATOM     30  C   UNL     1      -3.122  -2.741  25.953  0.00  0.00    +0.001 A 
ATOM     32  C   UNL     1      -3.459  -3.430  24.788  0.00  0.00    +0.000 A 
ENDBRANCH  17  22
BRANCH   8   1
ATOM      1  S   UNL     1      -0.043   2.955  22.990  0.00  0.00    +0.061 S 
ATOM      5  O   UNL     1       0.830   4.103  23.117  0.00  0.00    -0.153 OA
ATOM      6  O   UNL     1      -0.991   2.857  21.900  0.00  0.00    -0.153 OA
BRANCH   1  20
ATOM     20  C   UNL     1       0.970   1.508  22.959  0.00  0.00    +0.106 A 
ATOM     23  C   UNL     1       2.343   1.641  23.084  0.00  0.00    +0.041 A 
ATOM     24  C   UNL     1       0.374   0.268  22.810  0.00  0.00    +0.028 A 
ATOM     27  C   UNL     1       3.143   0.498  23.060  0.00  0.00    +0.057 A 
ATOM     28  C   UNL     1       1.173  -0.875  22.785  0.00  0.00    +0.002 A 
ATOM     31  C   UNL     1       2.558  -0.760  22.909  0.00  0.00    +0.012 A 
BRANCH  27  33
ATOM      2  F   UNL     1       5.312   0.124  22.122  0.00  0.00    -0.166 F 
ATOM      3  F   UNL     1       5.055   1.909  23.328  0.00  0.00    -0.166 F 
ATOM      4  F   UNL     1       5.109  -0.045  24.280  0.00  0.00    -0.166 F 
ATOM     33  C   UNL     1       4.623   0.621  23.192  0.00  0.00    +0.417 C 
ENDBRANCH  27  33
ENDBRANCH   1  20
ENDBRANCH   8   1
TORSDOF 4
ENDMDL
MODEL 7
REMARK VINA RESULT:       7.7      2.880      5.312
REMARK  Name = 7155440
REMARK  4 active torsions:
REMARK  status: ('A' for Active; 'I' for Inactive)
REMARK    1  A    between atoms: S_1  and  N_8
REMARK    2  A    between atoms: S_1  and  C_20
REMARK    3  A    between atoms: C_17  and  C_22
REMARK    4  A    between atoms: C_27  and  C_33
REMARK                            x       y       z     vdW  Elec       q    Type
REMARK                         _______ _______ _______ _____ _____    ______ ____
ROOT
ATOM      7  O   UNL     1      -2.873  -1.214  26.349  0.00  0.00    -0.268 OA
ATOM      8  N   UNL     1      -1.441   3.228  24.690  0.00  0.00    -0.176 NA
ATOM      9  N   UNL     1      -1.167   0.276  25.753  0.00  0.00    -0.311 N 
ATOM     10  C   UNL     1      -0.829   2.496  26.990  0.00  0.00    +0.025 C 
ATOM     11  C   UNL     1       0.629   1.912  25.104  0.00  0.00    +0.053 C 
ATOM     12  C   UNL     1       0.623   2.343  26.569  0.00  0.00    +0.017 C 
ATOM     13  C   UNL     1      -1.536   3.562  26.139  0.00  0.00    +0.114 C 
ATOM     14  C   UNL     1      -0.035   3.007  24.246  0.00  0.00    +0.119 C 
ATOM     15  C   UNL     1      -1.512   1.131  26.897  0.00  0.00    +0.130 C 
ATOM     16  C   UNL     1      -0.076   0.567  24.910  0.00  0.00    +0.034 A 
ATOM     17  C   UNL     1       0.298  -0.325  23.956  0.00  0.00    +0.002 A 
ATOM     18  C   UNL     1      -1.921  -0.904  25.631  0.00  0.00    +0.252 A 
ATOM     19  C   UNL     1      -0.461  -1.552  23.797  0.00  0.00    +0.015 A 
ATOM     21  C   UNL     1      -1.514  -1.841  24.560  0.00  0.00    +0.071 A 
ENDROOT
BRANCH  17  22
ATOM     22  C   UNL     1       1.449  -0.074  23.060  0.00  0.00    -0.016 A 
ATOM     25  C   UNL     1       2.570   0.591  23.547  0.00  0.00    +0.008 A 
ATOM     26  C   UNL     1       1.401  -0.505  21.738  0.00  0.00    +0.008 A 
ATOM     29  C   UNL     1       3.655   0.828  22.703  0.00  0.00    +0.001 A 
ATOM     30  C   UNL     1       2.487  -0.268  20.894  0.00  0.00    +0.001 A 
ATOM     32  C   UNL     1       3.613   0.398  21.376  0.00  0.00    +0.000 A 
ENDBRANCH  17  22
BRANCH   8   1
ATOM      1  S   UNL     1      -2.407   4.178  23.645  0.00  0.00    +0.061 S 
ATOM      5  O   UNL     1      -2.514   3.513  22.364  0.00  0.00    -0.153 OA
ATOM      6  O   UNL     1      -1.982   5.559  23.735  0.00  0.00    -0.153 OA
BRANCH   1  20
ATOM     20  C   UNL     1      -3.970   4.039  24.457  0.00  0.00    +0.106 A 
ATOM     23  C   UNL     1      -4.467   2.781  24.758  0.00  0.00    +0.041 A 
ATOM     24  C   UNL     1      -4.671   5.189  24.778  0.00  0.00    +0.028 A 
ATOM     27  C   UNL     1      -5.701   2.672  25.399  0.00  0.00    +0.057 A 
ATOM     28  C   UNL     1      -5.905   5.079  25.418  0.00  0.00    +0.002 A 
ATOM     31  C   UNL     1      -6.420   3.821  25.728  0.00  0.00    +0.012 A 
BRANCH  27  33
ATOM      2  F   UNL     1      -5.291   0.381  25.953  0.00  0.00    -0.166 F 
ATOM      3  F   UNL     1      -7.031   1.314  26.851  0.00  0.00    -0.166 F 
ATOM      4  F   UNL     1      -7.036   0.821  24.733  0.00  0.00    -0.166 F 
ATOM     33  C   UNL     1      -6.252   1.326  25.730  0.00  0.00    +0.417 C 
ENDBRANCH  27  33
ENDBRANCH   1  20
ENDBRANCH   8   1
TORSDOF 4
ENDMDL
