MODEL 1
REMARK VINA RESULT:      -2.6      0.000      0.000
REMARK  Name = 26763478
REMARK  13 active torsions:
REMARK  status: ('A' for Active; 'I' for Inactive)
REMARK    1  A    between atoms: O_2  and  C_13
REMARK    2  A    between atoms: O_2  and  C_21
REMARK    3  A    between atoms: O_5  and  C_20
REMARK    4  A    between atoms: O_5  and  C_26
REMARK    5  A    between atoms: O_7  and  C_31
REMARK    6  A    between atoms: N_10  and  C_19
REMARK    7  A    between atoms: C_12  and  C_17
REMARK    8  A    between atoms: C_18  and  C_20
REMARK    9  A    between atoms: C_19  and  C_22
REMARK   10  A    between atoms: C_19  and  C_23
REMARK   11  A    between atoms: C_21  and  C_24
REMARK   12  A    between atoms: C_22  and  C_25
REMARK   13  A    between atoms: C_26  and  C_31
REMARK                            x       y       z     vdW  Elec       q    Type
REMARK                         _______ _______ _______ _____ _____    ______ ____
ROOT
ATOM      4  O   UNL     1       0.480  -1.656  24.910  0.00  0.00    -0.273 OA
ATOM      9  N   UNL     1      -1.514  -0.558  24.414  0.00  0.00    -0.288 N 
ATOM     12  C   UNL     1      -2.250   0.454  23.640  0.00  0.00    +0.164 C 
ATOM     13  C   UNL     1      -4.429  -0.430  24.675  0.00  0.00    +0.122 C 
ATOM     14  C   UNL     1      -3.729   0.110  23.429  0.00  0.00    +0.063 C 
ATOM     15  C   UNL     1      -3.608  -1.549  25.310  0.00  0.00    +0.050 C 
ATOM     16  C   UNL     1      -2.182  -1.097  25.605  0.00  0.00    +0.111 C 
ATOM     18  C   UNL     1      -0.180  -0.912  24.179  0.00  0.00    +0.242 C 
ENDROOT
BRANCH  12  17
ATOM      3  O   UNL     1      -2.831   2.725  24.108  0.00  0.00    -0.274 OA
ATOM     10  N   UNL     1      -0.984   1.792  25.176  0.00  0.00    -0.302 N 
ATOM     17  C   UNL     1      -2.076   1.780  24.324  0.00  0.00    +0.234 C 
ATOM     32  H   UNL     1      -0.401   0.963  25.246  0.00  0.00    +0.150 HD
BRANCH  10  19
ATOM     19  C   UNL     1      -0.588   2.954  25.936  0.00  0.00    +0.163 C 
BRANCH  19  23
ATOM      6  O   UNL     1      -0.279   4.431  24.030  0.00  0.00    -0.274 OA
ATOM     11  N   UNL     1      -1.919   4.937  25.559  0.00  0.00    -0.328 N 
ATOM     23  C   UNL     1      -0.877   4.174  25.073  0.00  0.00    +0.231 C 
ATOM     33  H   UNL     1      -2.406   4.711  26.420  0.00  0.00    +0.145 HD
ATOM     34  H   UNL     1      -2.225   5.770  25.068  0.00  0.00    +0.145 HD
ENDBRANCH  19  23
BRANCH  19  22
ATOM     22  C   UNL     1       0.895   2.915  26.324  0.00  0.00    +0.074 C 
BRANCH  22  25
ATOM      1  S   UNL     1       2.691   2.815  28.449  0.00  0.00    -0.102 S 
ATOM     25  C   UNL     1       1.106   2.735  27.808  0.00  0.00    -0.008 A 
ATOM     27  C   UNL     1       0.163   2.502  28.785  0.00  0.00    +0.011 A 
ATOM     29  C   UNL     1       0.751   2.387  30.078  0.00  0.00    +0.008 A 
ATOM     30  C   UNL     1       2.120   2.537  30.040  0.00  0.00    +0.045 A 
ENDBRANCH  22  25
ENDBRANCH  19  22
ENDBRANCH  10  19
ENDBRANCH  12  17
BRANCH  13   2
ATOM      2  O   UNL     1      -4.625   0.628  25.607  0.00  0.00    -0.372 OA
BRANCH   2  21
ATOM     21  C   UNL     1      -5.782   1.389  25.294  0.00  0.00    +0.187 C 
BRANCH  21  24
ATOM     24  C   UNL     1      -5.726   2.678  26.042  0.00  0.00    -0.007 C 
ATOM     28  C   UNL     1      -5.431   3.857  25.483  0.00  0.00    +0.006 C 
ENDBRANCH  21  24
ENDBRANCH   2  21
ENDBRANCH  13   2
BRANCH  18  20
ATOM     20  C   UNL     1       0.465  -0.343  22.939  0.00  0.00    +0.256 C 
BRANCH  20   5
ATOM      5  O   UNL     1       1.591   0.383  23.370  0.00  0.00    -0.359 OA
BRANCH   5  26
ATOM     26  C   UNL     1       2.703   0.218  22.490  0.00  0.00    +0.280 C 
BRANCH  26  31
ATOM      8  O   UNL     1       4.803   0.852  23.538  0.00  0.00    -0.248 OA
ATOM     31  C   UNL     1       3.957   0.004  23.292  0.00  0.00    +0.331 C 
BRANCH  31   7
ATOM      7  O   UNL     1       4.026  -1.282  23.718  0.00  0.00    -0.479 OA
ATOM     35  H   UNL     1       4.381  -1.347  24.631  0.00  0.00    +0.295 HD
ENDBRANCH  31   7
ENDBRANCH  26  31
ENDBRANCH   5  26
ENDBRANCH  20   5
ENDBRANCH  18  20
TORSDOF 13
ENDMDL
MODEL 2
REMARK VINA RESULT:      -2.2      2.606      5.046
REMARK  Name = 26763478
REMARK  13 active torsions:
REMARK  status: ('A' for Active; 'I' for Inactive)
REMARK    1  A    between atoms: O_2  and  C_13
REMARK    2  A    between atoms: O_2  and  C_21
REMARK    3  A    between atoms: O_5  and  C_20
REMARK    4  A    between atoms: O_5  and  C_26
REMARK    5  A    between atoms: O_7  and  C_31
REMARK    6  A    between atoms: N_10  and  C_19
REMARK    7  A    between atoms: C_12  and  C_17
REMARK    8  A    between atoms: C_18  and  C_20
REMARK    9  A    between atoms: C_19  and  C_22
REMARK   10  A    between atoms: C_19  and  C_23
REMARK   11  A    between atoms: C_21  and  C_24
REMARK   12  A    between atoms: C_22  and  C_25
REMARK   13  A    between atoms: C_26  and  C_31
REMARK                            x       y       z     vdW  Elec       q    Type
REMARK                         _______ _______ _______ _____ _____    ______ ____
ROOT
ATOM      4  O   UNL     1       0.553   0.010  21.656  0.00  0.00    -0.273 OA
ATOM      9  N   UNL     1       0.099   0.945  23.740  0.00  0.00    -0.288 N 
ATOM     12  C   UNL     1       0.182   0.882  25.208  0.00  0.00    +0.164 C 
ATOM     13  C   UNL     1      -0.780   3.262  25.302  0.00  0.00    +0.122 C 
ATOM     14  C   UNL     1       0.216   2.259  25.881  0.00  0.00    +0.063 C 
ATOM     15  C   UNL     1      -0.678   3.304  23.781  0.00  0.00    +0.050 C 
ATOM     16  C   UNL     1      -0.843   1.917  23.171  0.00  0.00    +0.111 C 
ATOM     18  C   UNL     1       0.732   0.044  22.877  0.00  0.00    +0.242 C 
ENDROOT
BRANCH  12  17
ATOM      3  O   UNL     1      -0.965  -0.450  26.827  0.00  0.00    -0.274 OA
ATOM     10  N   UNL     1      -1.958  -0.098  24.751  0.00  0.00    -0.302 N 
ATOM     17  C   UNL     1      -0.963   0.046  25.704  0.00  0.00    +0.234 C 
ATOM     32  H   UNL     1      -1.832   0.321  23.834  0.00  0.00    +0.150 HD
BRANCH  10  19
ATOM     19  C   UNL     1      -3.156  -0.875  24.971  0.00  0.00    +0.163 C 
BRANCH  19  23
ATOM      6  O   UNL     1      -3.690  -3.192  24.468  0.00  0.00    -0.274 OA
ATOM     11  N   UNL     1      -1.505  -2.504  24.290  0.00  0.00    -0.328 N 
ATOM     23  C   UNL     1      -2.841  -2.309  24.572  0.00  0.00    +0.231 C 
ATOM     33  H   UNL     1      -0.815  -1.765  24.376  0.00  0.00    +0.145 HD
ATOM     34  H   UNL     1      -1.164  -3.413  23.995  0.00  0.00    +0.145 HD
ENDBRANCH  19  23
BRANCH  19  22
ATOM     22  C   UNL     1      -4.346  -0.346  24.161  0.00  0.00    +0.074 C 
BRANCH  22  25
ATOM      1  S   UNL     1      -4.628   2.415  23.936  0.00  0.00    -0.102 S 
ATOM     25  C   UNL     1      -4.920   0.929  24.733  0.00  0.00    -0.008 A 
ATOM     27  C   UNL     1      -5.690   1.090  25.864  0.00  0.00    +0.011 A 
ATOM     29  C   UNL     1      -6.043   2.453  26.080  0.00  0.00    +0.008 A 
ATOM     30  C   UNL     1      -5.531   3.281  25.106  0.00  0.00    +0.045 A 
ENDBRANCH  22  25
ENDBRANCH  19  22
ENDBRANCH  10  19
ENDBRANCH  12  17
BRANCH  13   2
ATOM      2  O   UNL     1      -2.100   2.905  25.698  0.00  0.00    -0.372 OA
BRANCH   2  21
ATOM     21  C   UNL     1      -2.658   3.869  26.579  0.00  0.00    +0.187 C 
BRANCH  21  24
ATOM     24  C   UNL     1      -2.935   5.117  25.811  0.00  0.00    -0.007 C 
ATOM     28  C   UNL     1      -1.989   5.870  25.238  0.00  0.00    +0.006 C 
ENDBRANCH  21  24
ENDBRANCH   2  21
ENDBRANCH  13   2
BRANCH  18  20
ATOM     20  C   UNL     1       1.699  -0.931  23.503  0.00  0.00    +0.256 C 
BRANCH  20   5
ATOM      5  O   UNL     1       2.879  -0.874  22.738  0.00  0.00    -0.359 OA
BRANCH   5  26
ATOM     26  C   UNL     1       3.698   0.237  23.099  0.00  0.00    +0.280 C 
BRANCH  26  31
ATOM      8  O   UNL     1       6.102   0.329  23.449  0.00  0.00    -0.248 OA
ATOM     31  C   UNL     1       5.035  -0.253  23.582  0.00  0.00    +0.331 C 
BRANCH  31   7
ATOM      7  O   UNL     1       4.898  -1.452  24.201  0.00  0.00    -0.479 OA
ATOM     35  H   UNL     1       4.765  -2.183  23.560  0.00  0.00    +0.295 HD
ENDBRANCH  31   7
ENDBRANCH  26  31
ENDBRANCH   5  26
ENDBRANCH  20   5
ENDBRANCH  18  20
TORSDOF 13
ENDMDL
MODEL 3
REMARK VINA RESULT:      -1.6      2.968      5.806
REMARK  Name = 26763478
REMARK  13 active torsions:
REMARK  status: ('A' for Active; 'I' for Inactive)
REMARK    1  A    between atoms: O_2  and  C_13
REMARK    2  A    between atoms: O_2  and  C_21
REMARK    3  A    between atoms: O_5  and  C_20
REMARK    4  A    between atoms: O_5  and  C_26
REMARK    5  A    between atoms: O_7  and  C_31
REMARK    6  A    between atoms: N_10  and  C_19
REMARK    7  A    between atoms: C_12  and  C_17
REMARK    8  A    between atoms: C_18  and  C_20
REMARK    9  A    between atoms: C_19  and  C_22
REMARK   10  A    between atoms: C_19  and  C_23
REMARK   11  A    between atoms: C_21  and  C_24
REMARK   12  A    between atoms: C_22  and  C_25
REMARK   13  A    between atoms: C_26  and  C_31
REMARK                            x       y       z     vdW  Elec       q    Type
REMARK                         _______ _______ _______ _____ _____    ______ ____
ROOT
ATOM      4  O   UNL     1      -6.648   1.735  24.354  0.00  0.00    -0.273 OA
ATOM      9  N   UNL     1      -4.826   0.406  24.937  0.00  0.00    -0.288 N 
ATOM     12  C   UNL     1      -3.597   0.207  25.721  0.00  0.00    +0.164 C 
ATOM     13  C   UNL     1      -3.515  -2.212  24.858  0.00  0.00    +0.122 C 
ATOM     14  C   UNL     1      -3.303  -1.264  26.038  0.00  0.00    +0.063 C 
ATOM     15  C   UNL     1      -4.875  -1.968  24.211  0.00  0.00    +0.050 C 
ATOM     16  C   UNL     1      -5.050  -0.508  23.811  0.00  0.00    +0.111 C 
ATOM     18  C   UNL     1      -5.696   1.492  25.099  0.00  0.00    +0.242 C 
ENDROOT
BRANCH  12  17
ATOM      3  O   UNL     1      -2.654   1.582  24.008  0.00  0.00    -0.274 OA
ATOM     10  N   UNL     1      -1.229   0.522  25.515  0.00  0.00    -0.302 N 
ATOM     17  C   UNL     1      -2.463   0.857  24.982  0.00  0.00    +0.234 C 
ATOM     32  H   UNL     1      -1.186  -0.123  26.298  0.00  0.00    +0.150 HD
BRANCH  10  19
ATOM     19  C   UNL     1       0.022   0.999  24.972  0.00  0.00    +0.163 C 
BRANCH  19  23
ATOM      6  O   UNL     1       0.470   2.916  26.397  0.00  0.00    -0.274 OA
ATOM     11  N   UNL     1      -0.184   3.289  24.225  0.00  0.00    -0.328 N 
ATOM     23  C   UNL     1       0.117   2.482  25.302  0.00  0.00    +0.231 C 
ATOM     33  H   UNL     1      -0.470   2.916  23.326  0.00  0.00    +0.145 HD
ATOM     34  H   UNL     1      -0.142   4.299  24.307  0.00  0.00    +0.145 HD
ENDBRANCH  19  23
BRANCH  19  22
ATOM     22  C   UNL     1       0.116   0.782  23.457  0.00  0.00    +0.074 C 
BRANCH  22  25
ATOM      1  S   UNL     1       1.884  -0.416  21.671  0.00  0.00    -0.102 S 
ATOM     25  C   UNL     1       1.540   0.637  22.976  0.00  0.00    -0.008 A 
ATOM     27  C   UNL     1       2.673   1.258  23.454  0.00  0.00    +0.011 A 
ATOM     29  C   UNL     1       3.840   0.862  22.738  0.00  0.00    +0.008 A 
ATOM     30  C   UNL     1       3.554  -0.044  21.741  0.00  0.00    +0.045 A 
ENDBRANCH  22  25
ENDBRANCH  19  22
ENDBRANCH  10  19
ENDBRANCH  12  17
BRANCH  13   2
ATOM      2  O   UNL     1      -2.475  -2.025  23.905  0.00  0.00    -0.372 OA
BRANCH   2  21
ATOM     21  C   UNL     1      -1.417  -2.953  24.100  0.00  0.00    +0.187 C 
BRANCH  21  24
ATOM     24  C   UNL     1      -0.655  -2.562  25.321  0.00  0.00    -0.007 C 
ATOM     28  C   UNL     1       0.681  -2.579  25.407  0.00  0.00    +0.006 C 
ENDBRANCH  21  24
ENDBRANCH   2  21
ENDBRANCH  13   2
BRANCH  18  20
ATOM     20  C   UNL     1      -5.434   2.401  26.275  0.00  0.00    +0.256 C 
BRANCH  20   5
ATOM      5  O   UNL     1      -4.975   3.621  25.745  0.00  0.00    -0.359 OA
BRANCH   5  26
ATOM     26  C   UNL     1      -3.738   4.027  26.328  0.00  0.00    +0.280 C 
BRANCH  26  31
ATOM      8  O   UNL     1      -1.848   5.283  25.457  0.00  0.00    -0.248 OA
ATOM     31  C   UNL     1      -2.834   4.587  25.264  0.00  0.00    +0.331 C 
BRANCH  31   7
ATOM      7  O   UNL     1      -3.266   4.208  24.036  0.00  0.00    -0.479 OA
ATOM     35  H   UNL     1      -3.991   4.782  23.708  0.00  0.00    +0.295 HD
ENDBRANCH  31   7
ENDBRANCH  26  31
ENDBRANCH   5  26
ENDBRANCH  20   5
ENDBRANCH  18  20
TORSDOF 13
ENDMDL
MODEL 4
REMARK VINA RESULT:      -1.5      2.682      4.605
REMARK  Name = 26763478
REMARK  13 active torsions:
REMARK  status: ('A' for Active; 'I' for Inactive)
REMARK    1  A    between atoms: O_2  and  C_13
REMARK    2  A    between atoms: O_2  and  C_21
REMARK    3  A    between atoms: O_5  and  C_20
REMARK    4  A    between atoms: O_5  and  C_26
REMARK    5  A    between atoms: O_7  and  C_31
REMARK    6  A    between atoms: N_10  and  C_19
REMARK    7  A    between atoms: C_12  and  C_17
REMARK    8  A    between atoms: C_18  and  C_20
REMARK    9  A    between atoms: C_19  and  C_22
REMARK   10  A    between atoms: C_19  and  C_23
REMARK   11  A    between atoms: C_21  and  C_24
REMARK   12  A    between atoms: C_22  and  C_25
REMARK   13  A    between atoms: C_26  and  C_31
REMARK                            x       y       z     vdW  Elec       q    Type
REMARK                         _______ _______ _______ _____ _____    ______ ____
ROOT
ATOM      4  O   UNL     1      -3.951  -1.104  26.124  0.00  0.00    -0.273 OA
ATOM      9  N   UNL     1      -3.763   0.655  24.610  0.00  0.00    -0.288 N 
ATOM     12  C   UNL     1      -3.390   1.149  23.275  0.00  0.00    +0.164 C 
ATOM     13  C   UNL     1      -4.403   3.425  23.904  0.00  0.00    +0.122 C 
ATOM     14  C   UNL     1      -4.205   2.366  22.821  0.00  0.00    +0.063 C 
ATOM     15  C   UNL     1      -4.897   2.784  25.198  0.00  0.00    +0.050 C 
ATOM     16  C   UNL     1      -3.972   1.663  25.655  0.00  0.00    +0.111 C 
ATOM     18  C   UNL     1      -3.774  -0.697  24.973  0.00  0.00    +0.242 C 
ENDROOT
BRANCH  12  17
ATOM      3  O   UNL     1      -1.433   2.368  22.643  0.00  0.00    -0.274 OA
ATOM     10  N   UNL     1      -1.208   0.524  24.048  0.00  0.00    -0.302 N 
ATOM     17  C   UNL     1      -1.916   1.434  23.279  0.00  0.00    +0.234 C 
ATOM     32  H   UNL     1      -1.706  -0.238  24.498  0.00  0.00    +0.150 HD
BRANCH  10  19
ATOM     19  C   UNL     1       0.228   0.565  24.198  0.00  0.00    +0.163 C 
BRANCH  19  23
ATOM      6  O   UNL     1       0.983   2.873  24.099  0.00  0.00    -0.274 OA
ATOM     11  N   UNL     1       0.351   2.009  26.133  0.00  0.00    -0.328 N 
ATOM     23  C   UNL     1       0.580   1.929  24.775  0.00  0.00    +0.231 C 
ATOM     33  H   UNL     1       0.014   1.223  26.678  0.00  0.00    +0.145 HD
ATOM     34  H   UNL     1       0.529   2.870  26.639  0.00  0.00    +0.145 HD
ENDBRANCH  19  23
BRANCH  19  22
ATOM     22  C   UNL     1       0.956   0.345  22.867  0.00  0.00    +0.074 C 
BRANCH  22  25
ATOM      1  S   UNL     1       3.587   1.207  22.572  0.00  0.00    -0.102 S 
ATOM     25  C   UNL     1       2.425   0.044  23.047  0.00  0.00    -0.008 A 
ATOM     27  C   UNL     1       3.009  -1.090  23.567  0.00  0.00    +0.011 A 
ATOM     29  C   UNL     1       4.432  -1.003  23.573  0.00  0.00    +0.008 A 
ATOM     30  C   UNL     1       4.879   0.194  23.060  0.00  0.00    +0.045 A 
ENDBRANCH  22  25
ENDBRANCH  19  22
ENDBRANCH  10  19
ENDBRANCH  12  17
BRANCH  13   2
ATOM      2  O   UNL     1      -3.175   4.109  24.131  0.00  0.00    -0.372 OA
BRANCH   2  21
ATOM     21  C   UNL     1      -2.878   4.199  25.517  0.00  0.00    +0.187 C 
BRANCH  21  24
ATOM     24  C   UNL     1      -1.589   4.931  25.685  0.00  0.00    -0.007 C 
ATOM     28  C   UNL     1      -0.843   5.378  24.668  0.00  0.00    +0.006 C 
ENDBRANCH  21  24
ENDBRANCH   2  21
ENDBRANCH  13   2
BRANCH  18  20
ATOM     20  C   UNL     1      -3.565  -1.700  23.865  0.00  0.00    +0.256 C 
BRANCH  20   5
ATOM      5  O   UNL     1      -2.207  -2.069  23.909  0.00  0.00    -0.359 OA
BRANCH   5  26
ATOM     26  C   UNL     1      -1.871  -2.732  25.126  0.00  0.00    +0.280 C 
BRANCH  26  31
ATOM      8  O   UNL     1       0.515  -2.561  25.556  0.00  0.00    -0.248 OA
ATOM     31  C   UNL     1      -0.620  -2.131  25.704  0.00  0.00    +0.331 C 
BRANCH  31   7
ATOM      7  O   UNL     1      -0.923  -1.024  26.427  0.00  0.00    -0.479 OA
ATOM     35  H   UNL     1      -1.682  -1.176  27.030  0.00  0.00    +0.295 HD
ENDBRANCH  31   7
ENDBRANCH  26  31
ENDBRANCH   5  26
ENDBRANCH  20   5
ENDBRANCH  18  20
TORSDOF 13
ENDMDL
MODEL 5
REMARK VINA RESULT:      -0.8      2.255      3.228
REMARK  Name = 26763478
REMARK  13 active torsions:
REMARK  status: ('A' for Active; 'I' for Inactive)
REMARK    1  A    between atoms: O_2  and  C_13
REMARK    2  A    between atoms: O_2  and  C_21
REMARK    3  A    between atoms: O_5  and  C_20
REMARK    4  A    between atoms: O_5  and  C_26
REMARK    5  A    between atoms: O_7  and  C_31
REMARK    6  A    between atoms: N_10  and  C_19
REMARK    7  A    between atoms: C_12  and  C_17
REMARK    8  A    between atoms: C_18  and  C_20
REMARK    9  A    between atoms: C_19  and  C_22
REMARK   10  A    between atoms: C_19  and  C_23
REMARK   11  A    between atoms: C_21  and  C_24
REMARK   12  A    between atoms: C_22  and  C_25
REMARK   13  A    between atoms: C_26  and  C_31
REMARK                            x       y       z     vdW  Elec       q    Type
REMARK                         _______ _______ _______ _____ _____    ______ ____
ROOT
ATOM      4  O   UNL     1       0.321  -2.058  25.518  0.00  0.00    -0.273 OA
ATOM      9  N   UNL     1      -1.624  -1.110  24.656  0.00  0.00    -0.288 N 
ATOM     12  C   UNL     1      -2.327  -0.425  23.560  0.00  0.00    +0.164 C 
ATOM     13  C   UNL     1      -4.519  -0.715  24.868  0.00  0.00    +0.122 C 
ATOM     14  C   UNL     1      -3.828  -0.732  23.506  0.00  0.00    +0.063 C 
ATOM     15  C   UNL     1      -3.741  -1.557  25.876  0.00  0.00    +0.050 C 
ATOM     16  C   UNL     1      -2.285  -1.116  25.967  0.00  0.00    +0.111 C 
ATOM     18  C   UNL     1      -0.319  -1.608  24.564  0.00  0.00    +0.242 C 
ENDROOT
BRANCH  12  17
ATOM      3  O   UNL     1      -2.393   1.844  22.812  0.00  0.00    -0.274 OA
ATOM     10  N   UNL     1      -1.404   1.363  24.864  0.00  0.00    -0.302 N 
ATOM     17  C   UNL     1      -2.062   1.048  23.687  0.00  0.00    +0.234 C 
ATOM     32  H   UNL     1      -1.139   0.616  25.499  0.00  0.00    +0.150 HD
BRANCH  10  19
ATOM     19  C   UNL     1      -1.014   2.709  25.215  0.00  0.00    +0.163 C 
BRANCH  19  23
ATOM      6  O   UNL     1       0.849   2.985  26.753  0.00  0.00    -0.274 OA
ATOM     11  N   UNL     1       1.271   2.153  24.652  0.00  0.00    -0.328 N 
ATOM     23  C   UNL     1       0.448   2.656  25.638  0.00  0.00    +0.231 C 
ATOM     33  H   UNL     1       0.925   1.881  23.738  0.00  0.00    +0.145 HD
ATOM     34  H   UNL     1       2.267   2.049  24.812  0.00  0.00    +0.145 HD
ENDBRANCH  19  23
BRANCH  19  22
ATOM     22  C   UNL     1      -1.875   3.285  26.345  0.00  0.00    +0.074 C 
BRANCH  22  25
ATOM      1  S   UNL     1      -3.289   4.354  24.199  0.00  0.00    -0.102 S 
ATOM     25  C   UNL     1      -3.158   3.903  25.844  0.00  0.00    -0.008 A 
ATOM     27  C   UNL     1      -4.310   4.176  26.550  0.00  0.00    +0.011 A 
ATOM     29  C   UNL     1      -5.313   4.765  25.727  0.00  0.00    +0.008 A 
ATOM     30  C   UNL     1      -4.891   4.918  24.425  0.00  0.00    +0.045 A 
ENDBRANCH  22  25
ENDBRANCH  19  22
ENDBRANCH  10  19
ENDBRANCH  12  17
BRANCH  13   2
ATOM      2  O   UNL     1      -4.630   0.627  25.329  0.00  0.00    -0.372 OA
BRANCH   2  21
ATOM     21  C   UNL     1      -5.659   1.328  24.646  0.00  0.00    +0.187 C 
BRANCH  21  24
ATOM     24  C   UNL     1      -6.622   1.866  25.650  0.00  0.00    -0.007 C 
ATOM     28  C   UNL     1      -6.644   1.500  26.937  0.00  0.00    +0.006 C 
ENDBRANCH  21  24
ENDBRANCH   2  21
ENDBRANCH  13   2
BRANCH  18  20
ATOM     20  C   UNL     1       0.319  -1.593  23.196  0.00  0.00    +0.256 C 
BRANCH  20   5
ATOM      5  O   UNL     1       0.854  -0.303  23.017  0.00  0.00    -0.359 OA
BRANCH   5  26
ATOM     26  C   UNL     1       1.980  -0.307  22.142  0.00  0.00    +0.280 C 
BRANCH  26  31
ATOM      8  O   UNL     1       3.680   1.223  22.968  0.00  0.00    -0.248 OA
ATOM     31  C   UNL     1       3.215   0.094  22.902  0.00  0.00    +0.331 C 
BRANCH  31   7
ATOM      7  O   UNL     1       3.756  -0.986  23.520  0.00  0.00    -0.479 OA
ATOM     35  H   UNL     1       4.626  -0.780  23.924  0.00  0.00    +0.295 HD
ENDBRANCH  31   7
ENDBRANCH  26  31
ENDBRANCH   5  26
ENDBRANCH  20   5
ENDBRANCH  18  20
TORSDOF 13
ENDMDL
MODEL 6
REMARK VINA RESULT:      -0.2      2.825      6.050
REMARK  Name = 26763478
REMARK  13 active torsions:
REMARK  status: ('A' for Active; 'I' for Inactive)
REMARK    1  A    between atoms: O_2  and  C_13
REMARK    2  A    between atoms: O_2  and  C_21
REMARK    3  A    between atoms: O_5  and  C_20
REMARK    4  A    between atoms: O_5  and  C_26
REMARK    5  A    between atoms: O_7  and  C_31
REMARK    6  A    between atoms: N_10  and  C_19
REMARK    7  A    between atoms: C_12  and  C_17
REMARK    8  A    between atoms: C_18  and  C_20
REMARK    9  A    between atoms: C_19  and  C_22
REMARK   10  A    between atoms: C_19  and  C_23
REMARK   11  A    between atoms: C_21  and  C_24
REMARK   12  A    between atoms: C_22  and  C_25
REMARK   13  A    between atoms: C_26  and  C_31
REMARK                            x       y       z     vdW  Elec       q    Type
REMARK                         _______ _______ _______ _____ _____    ______ ____
ROOT
ATOM      4  O   UNL     1      -3.487   2.047  21.922  0.00  0.00    -0.273 OA
ATOM      9  N   UNL     1      -3.454   0.714  23.831  0.00  0.00    -0.288 N 
ATOM     12  C   UNL     1      -3.271   0.579  25.285  0.00  0.00    +0.164 C 
ATOM     13  C   UNL     1      -4.062  -1.858  25.094  0.00  0.00    +0.122 C 
ATOM     14  C   UNL     1      -4.087  -0.562  25.903  0.00  0.00    +0.063 C 
ATOM     15  C   UNL     1      -4.378  -1.582  23.627  0.00  0.00    +0.050 C 
ATOM     16  C   UNL     1      -3.448  -0.525  23.044  0.00  0.00    +0.111 C 
ATOM     18  C   UNL     1      -3.473   1.937  23.151  0.00  0.00    +0.242 C 
ENDROOT
BRANCH  12  17
ATOM      3  O   UNL     1      -1.380   0.061  26.651  0.00  0.00    -0.274 OA
ATOM     10  N   UNL     1      -1.028   0.763  24.459  0.00  0.00    -0.302 N 
ATOM     17  C   UNL     1      -1.802   0.427  25.557  0.00  0.00    +0.234 C 
ATOM     32  H   UNL     1      -1.483   1.096  23.614  0.00  0.00    +0.150 HD
BRANCH  10  19
ATOM     19  C   UNL     1       0.416   0.723  24.469  0.00  0.00    +0.163 C 
BRANCH  19  23
ATOM      6  O   UNL     1       1.221   2.976  24.041  0.00  0.00    -0.274 OA
ATOM     11  N   UNL     1       0.894   2.322  26.219  0.00  0.00    -0.328 N 
ATOM     23  C   UNL     1       0.901   2.114  24.856  0.00  0.00    +0.231 C 
ATOM     33  H   UNL     1       0.622   1.601  26.880  0.00  0.00    +0.145 HD
ATOM     34  H   UNL     1       1.178   3.214  26.609  0.00  0.00    +0.145 HD
ENDBRANCH  19  23
BRANCH  19  22
ATOM     22  C   UNL     1       0.994   0.317  23.108  0.00  0.00    +0.074 C 
BRANCH  22  25
ATOM      1  S   UNL     1       3.196  -1.270  23.726  0.00  0.00    -0.102 S 
ATOM     25  C   UNL     1       2.497   0.174  23.131  0.00  0.00    -0.008 A 
ATOM     27  C   UNL     1       3.450   1.081  22.722  0.00  0.00    +0.011 A 
ATOM     29  C   UNL     1       4.773   0.583  22.902  0.00  0.00    +0.008 A 
ATOM     30  C   UNL     1       4.780  -0.685  23.440  0.00  0.00    +0.045 A 
ENDBRANCH  22  25
ENDBRANCH  19  22
ENDBRANCH  10  19
ENDBRANCH  12  17
BRANCH  13   2
ATOM      2  O   UNL     1      -2.782  -2.470  25.216  0.00  0.00    -0.372 OA
BRANCH   2  21
ATOM     21  C   UNL     1      -2.263  -2.846  23.949  0.00  0.00    +0.187 C 
BRANCH  21  24
ATOM     24  C   UNL     1      -0.773  -2.775  24.000  0.00  0.00    -0.007 C 
ATOM     28  C   UNL     1      -0.066  -2.693  25.133  0.00  0.00    +0.006 C 
ENDBRANCH  21  24
ENDBRANCH   2  21
ENDBRANCH  13   2
BRANCH  18  20
ATOM     20  C   UNL     1      -3.489   3.185  23.998  0.00  0.00    +0.256 C 
BRANCH  20   5
ATOM      5  O   UNL     1      -4.840   3.545  24.160  0.00  0.00    -0.359 OA
BRANCH   5  26
ATOM     26  C   UNL     1      -5.257   3.461  25.521  0.00  0.00    +0.280 C 
BRANCH  26  31
ATOM      8  O   UNL     1      -6.676   1.628  24.788  0.00  0.00    -0.248 OA
ATOM     31  C   UNL     1      -6.218   2.316  25.689  0.00  0.00    +0.331 C 
BRANCH  31   7
ATOM      7  O   UNL     1      -6.514   2.141  27.001  0.00  0.00    -0.479 OA
ATOM     35  H   UNL     1      -6.099   1.331  27.366  0.00  0.00    +0.295 HD
ENDBRANCH  31   7
ENDBRANCH  26  31
ENDBRANCH   5  26
ENDBRANCH  20   5
ENDBRANCH  18  20
TORSDOF 13
ENDMDL
MODEL 7
REMARK VINA RESULT:       0.3      2.712      4.104
REMARK  Name = 26763478
REMARK  13 active torsions:
REMARK  status: ('A' for Active; 'I' for Inactive)
REMARK    1  A    between atoms: O_2  and  C_13
REMARK    2  A    between atoms: O_2  and  C_21
REMARK    3  A    between atoms: O_5  and  C_20
REMARK    4  A    between atoms: O_5  and  C_26
REMARK    5  A    between atoms: O_7  and  C_31
REMARK    6  A    between atoms: N_10  and  C_19
REMARK    7  A    between atoms: C_12  and  C_17
REMARK    8  A    between atoms: C_18  and  C_20
REMARK    9  A    between atoms: C_19  and  C_22
REMARK   10  A    between atoms: C_19  and  C_23
REMARK   11  A    between atoms: C_21  and  C_24
REMARK   12  A    between atoms: C_22  and  C_25
REMARK   13  A    between atoms: C_26  and  C_31
REMARK                            x       y       z     vdW  Elec       q    Type
REMARK                         _______ _______ _______ _____ _____    ______ ____
ROOT
ATOM      4  O   UNL     1       1.856   1.713  25.488  0.00  0.00    -0.273 OA
ATOM      9  N   UNL     1      -0.103   0.791  24.631  0.00  0.00    -0.288 N 
ATOM     12  C   UNL     1      -1.022   0.581  23.501  0.00  0.00    +0.164 C 
ATOM     13  C   UNL     1      -2.352  -1.057  24.967  0.00  0.00    +0.122 C 
ATOM     14  C   UNL     1      -1.800  -0.738  23.578  0.00  0.00    +0.063 C 
ATOM     15  C   UNL     1      -1.263  -0.906  26.025  0.00  0.00    +0.050 C 
ATOM     16  C   UNL     1      -0.616   0.472  25.969  0.00  0.00    +0.111 C 
ATOM     18  C   UNL     1       1.146   1.412  24.524  0.00  0.00    +0.242 C 
ENDROOT
BRANCH  12  17
ATOM      3  O   UNL     1      -2.687   1.945  22.461  0.00  0.00    -0.274 OA
ATOM     10  N   UNL     1      -1.812   2.604  24.516  0.00  0.00    -0.302 N 
ATOM     17  C   UNL     1      -1.939   1.767  23.420  0.00  0.00    +0.234 C 
ATOM     32  H   UNL     1      -1.128   2.381  25.233  0.00  0.00    +0.150 HD
BRANCH  10  19
ATOM     19  C   UNL     1      -2.567   3.826  24.669  0.00  0.00    +0.163 C 
BRANCH  19  23
ATOM      6  O   UNL     1      -1.842   6.100  25.132  0.00  0.00    -0.274 OA
ATOM     11  N   UNL     1      -0.291   4.585  24.370  0.00  0.00    -0.328 N 
ATOM     23  C   UNL     1      -1.562   4.968  24.741  0.00  0.00    +0.231 C 
ATOM     33  H   UNL     1      -0.073   3.645  24.054  0.00  0.00    +0.145 HD
ATOM     34  H   UNL     1       0.477   5.247  24.389  0.00  0.00    +0.145 HD
ENDBRANCH  19  23
BRANCH  19  22
ATOM     22  C   UNL     1      -3.447   3.810  25.925  0.00  0.00    +0.074 C 
BRANCH  22  25
ATOM      1  S   UNL     1      -5.335   2.786  24.153  0.00  0.00    -0.102 S 
ATOM     25  C   UNL     1      -4.722   3.025  25.733  0.00  0.00    -0.008 A 
ATOM     27  C   UNL     1      -5.518   2.436  26.692  0.00  0.00    +0.011 A 
ATOM     29  C   UNL     1      -6.646   1.781  26.120  0.00  0.00    +0.008 A 
ATOM     30  C   UNL     1      -6.670   1.893  24.748  0.00  0.00    +0.045 A 
ENDBRANCH  22  25
ENDBRANCH  19  22
ENDBRANCH  10  19
ENDBRANCH  12  17
BRANCH  13   2
ATOM      2  O   UNL     1      -3.443  -0.190  25.256  0.00  0.00    -0.372 OA
BRANCH   2  21
ATOM     21  C   UNL     1      -4.645  -0.648  24.654  0.00  0.00    +0.187 C 
BRANCH  21  24
ATOM     24  C   UNL     1      -4.325  -1.793  23.753  0.00  0.00    -0.007 C 
ATOM     28  C   UNL     1      -4.231  -3.064  24.162  0.00  0.00    +0.006 C 
ENDBRANCH  21  24
ENDBRANCH   2  21
ENDBRANCH  13   2
BRANCH  18  20
ATOM     20  C   UNL     1       1.638   1.713  23.130  0.00  0.00    +0.256 C 
BRANCH  20   5
ATOM      5  O   UNL     1       2.410   0.607  22.729  0.00  0.00    -0.359 OA
BRANCH   5  26
ATOM     26  C   UNL     1       3.793   0.935  22.604  0.00  0.00    +0.280 C 
BRANCH  26  31
ATOM      8  O   UNL     1       5.796   0.074  23.677  0.00  0.00    -0.248 OA
ATOM     31  C   UNL     1       4.623  -0.063  23.363  0.00  0.00    +0.331 C 
BRANCH  31   7
ATOM      7  O   UNL     1       3.881  -1.158  23.663  0.00  0.00    -0.479 OA
ATOM     35  H   UNL     1       4.439  -1.951  23.811  0.00  0.00    +0.295 HD
ENDBRANCH  31   7
ENDBRANCH  26  31
ENDBRANCH   5  26
ENDBRANCH  20   5
ENDBRANCH  18  20
TORSDOF 13
ENDMDL
MODEL 8
REMARK VINA RESULT:       0.5      2.469      4.298
REMARK  Name = 26763478
REMARK  13 active torsions:
REMARK  status: ('A' for Active; 'I' for Inactive)
REMARK    1  A    between atoms: O_2  and  C_13
REMARK    2  A    between atoms: O_2  and  C_21
REMARK    3  A    between atoms: O_5  and  C_20
REMARK    4  A    between atoms: O_5  and  C_26
REMARK    5  A    between atoms: O_7  and  C_31
REMARK    6  A    between atoms: N_10  and  C_19
REMARK    7  A    between atoms: C_12  and  C_17
REMARK    8  A    between atoms: C_18  and  C_20
REMARK    9  A    between atoms: C_19  and  C_22
REMARK   10  A    between atoms: C_19  and  C_23
REMARK   11  A    between atoms: C_21  and  C_24
REMARK   12  A    between atoms: C_22  and  C_25
REMARK   13  A    between atoms: C_26  and  C_31
REMARK                            x       y       z     vdW  Elec       q    Type
REMARK                         _______ _______ _______ _____ _____    ______ ____
ROOT
ATOM      4  O   UNL     1       0.703   2.396  26.271  0.00  0.00    -0.273 OA
ATOM      9  N   UNL     1      -0.541   0.788  25.136  0.00  0.00    -0.288 N 
ATOM     12  C   UNL     1      -1.216   0.334  23.909  0.00  0.00    +0.164 C 
ATOM     13  C   UNL     1      -1.616  -1.936  25.045  0.00  0.00    +0.122 C 
ATOM     14  C   UNL     1      -1.257  -1.192  23.760  0.00  0.00    +0.063 C 
ATOM     15  C   UNL     1      -0.763  -1.441  26.209  0.00  0.00    +0.050 C 
ATOM     16  C   UNL     1      -0.865   0.070  26.375  0.00  0.00    +0.111 C 
ATOM     18  C   UNL     1       0.252   1.938  25.218  0.00  0.00    +0.242 C 
ENDROOT
BRANCH  12  17
ATOM      3  O   UNL     1      -3.212   1.091  22.836  0.00  0.00    -0.274 OA
ATOM     10  N   UNL     1      -3.030   1.293  25.149  0.00  0.00    -0.302 N 
ATOM     17  C   UNL     1      -2.591   0.935  23.885  0.00  0.00    +0.234 C 
ATOM     32  H   UNL     1      -2.413   1.158  25.944  0.00  0.00    +0.150 HD
BRANCH  10  19
ATOM     19  C   UNL     1      -4.311   1.913  25.394  0.00  0.00    +0.163 C 
BRANCH  19  23
ATOM      6  O   UNL     1      -5.183  -0.272  24.786  0.00  0.00    -0.274 OA
ATOM     11  N   UNL     1      -6.609   1.529  24.747  0.00  0.00    -0.328 N 
ATOM     23  C   UNL     1      -5.380   0.932  24.933  0.00  0.00    +0.231 C 
ATOM     33  H   UNL     1      -6.758   2.525  24.877  0.00  0.00    +0.145 HD
ATOM     34  H   UNL     1      -7.412   0.983  24.456  0.00  0.00    +0.145 HD
ENDBRANCH  19  23
BRANCH  19  22
ATOM     22  C   UNL     1      -4.460   3.249  24.656  0.00  0.00    +0.074 C 
BRANCH  22  25
ATOM      1  S   UNL     1      -2.423   4.337  26.212  0.00  0.00    -0.102 S 
ATOM     25  C   UNL     1      -3.206   4.089  24.711  0.00  0.00    -0.008 A 
ATOM     27  C   UNL     1      -2.555   4.724  23.676  0.00  0.00    +0.011 A 
ATOM     29  C   UNL     1      -1.398   5.426  24.123  0.00  0.00    +0.008 A 
ATOM     30  C   UNL     1      -1.209   5.299  25.482  0.00  0.00    +0.045 A 
ENDBRANCH  22  25
ENDBRANCH  19  22
ENDBRANCH  10  19
ENDBRANCH  12  17
BRANCH  13   2
ATOM      2  O   UNL     1      -2.998  -1.749  25.333  0.00  0.00    -0.372 OA
BRANCH   2  21
ATOM     21  C   UNL     1      -3.698  -2.984  25.347  0.00  0.00    +0.187 C 
BRANCH  21  24
ATOM     24  C   UNL     1      -3.989  -3.388  23.941  0.00  0.00    -0.007 C 
ATOM     28  C   UNL     1      -4.589  -2.597  23.044  0.00  0.00    +0.006 C 
ENDBRANCH  21  24
ENDBRANCH   2  21
ENDBRANCH  13   2
BRANCH  18  20
ATOM     20  C   UNL     1       0.568   2.639  23.919  0.00  0.00    +0.256 C 
BRANCH  20   5
ATOM      5  O   UNL     1       1.916   2.359  23.630  0.00  0.00    -0.359 OA
BRANCH   5  26
ATOM     26  C   UNL     1       2.103   1.010  23.203  0.00  0.00    +0.280 C 
BRANCH  26  31
ATOM      8  O   UNL     1       4.519   0.855  23.427  0.00  0.00    -0.248 OA
ATOM     31  C   UNL     1       3.517   0.819  22.727  0.00  0.00    +0.331 C 
BRANCH  31   7
ATOM      7  O   UNL     1       3.534   0.594  21.390  0.00  0.00    -0.479 OA
ATOM     35  H   UNL     1       2.703   0.885  20.958  0.00  0.00    +0.295 HD
ENDBRANCH  31   7
ENDBRANCH  26  31
ENDBRANCH   5  26
ENDBRANCH  20   5
ENDBRANCH  18  20
TORSDOF 13
ENDMDL
MODEL 9
REMARK VINA RESULT:       1.2      2.861      5.881
REMARK  Name = 26763478
REMARK  13 active torsions:
REMARK  status: ('A' for Active; 'I' for Inactive)
REMARK    1  A    between atoms: O_2  and  C_13
REMARK    2  A    between atoms: O_2  and  C_21
REMARK    3  A    between atoms: O_5  and  C_20
REMARK    4  A    between atoms: O_5  and  C_26
REMARK    5  A    between atoms: O_7  and  C_31
REMARK    6  A    between atoms: N_10  and  C_19
REMARK    7  A    between atoms: C_12  and  C_17
REMARK    8  A    between atoms: C_18  and  C_20
REMARK    9  A    between atoms: C_19  and  C_22
REMARK   10  A    between atoms: C_19  and  C_23
REMARK   11  A    between atoms: C_21  and  C_24
REMARK   12  A    between atoms: C_22  and  C_25
REMARK   13  A    between atoms: C_26  and  C_31
REMARK                            x       y       z     vdW  Elec       q    Type
REMARK                         _______ _______ _______ _____ _____    ______ ____
ROOT
ATOM      4  O   UNL     1      -2.992   3.072  23.122  0.00  0.00    -0.273 OA
ATOM      9  N   UNL     1      -2.180   1.371  24.489  0.00  0.00    -0.288 N 
ATOM     12  C   UNL     1      -1.075   0.774  25.257  0.00  0.00    +0.164 C 
ATOM     13  C   UNL     1      -2.733  -0.962  26.173  0.00  0.00    +0.122 C 
ATOM     14  C   UNL     1      -1.540  -0.052  26.462  0.00  0.00    +0.063 C 
ATOM     15  C   UNL     1      -3.845  -0.184  25.477  0.00  0.00    +0.050 C 
ATOM     16  C   UNL     1      -3.339   0.512  24.219  0.00  0.00    +0.111 C 
ATOM     18  C   UNL     1      -2.124   2.629  23.879  0.00  0.00    +0.242 C 
ENDROOT
BRANCH  12  17
ATOM      3  O   UNL     1      -0.412  -1.246  24.165  0.00  0.00    -0.274 OA
ATOM     10  N   UNL     1       0.728   0.725  23.677  0.00  0.00    -0.302 N 
ATOM     17  C   UNL     1      -0.238  -0.039  24.312  0.00  0.00    +0.234 C 
ATOM     32  H   UNL     1       0.811   1.710  23.907  0.00  0.00    +0.150 HD
BRANCH  10  19
ATOM     19  C   UNL     1       1.676   0.176  22.735  0.00  0.00    +0.163 C 
BRANCH  19  23
ATOM      6  O   UNL     1       1.346  -0.994  20.631  0.00  0.00    -0.274 OA
ATOM     11  N   UNL     1      -0.415   0.183  21.522  0.00  0.00    -0.328 N 
ATOM     23  C   UNL     1       0.887  -0.270  21.512  0.00  0.00    +0.231 C 
ATOM     33  H   UNL     1      -0.782   0.776  22.259  0.00  0.00    +0.145 HD
ATOM     34  H   UNL     1      -1.054  -0.058  20.772  0.00  0.00    +0.145 HD
ENDBRANCH  19  23
BRANCH  19  22
ATOM     22  C   UNL     1       2.460  -1.004  23.324  0.00  0.00    +0.074 C 
BRANCH  22  25
ATOM      1  S   UNL     1       4.550   0.798  22.956  0.00  0.00    -0.102 S 
ATOM     25  C   UNL     1       3.925  -0.693  23.516  0.00  0.00    -0.008 A 
ATOM     27  C   UNL     1       4.895  -1.471  24.109  0.00  0.00    +0.011 A 
ATOM     29  C   UNL     1       6.169  -0.834  24.102  0.00  0.00    +0.008 A 
ATOM     30  C   UNL     1       6.124   0.407  23.505  0.00  0.00    +0.045 A 
ENDBRANCH  22  25
ENDBRANCH  19  22
ENDBRANCH  10  19
ENDBRANCH  12  17
BRANCH  13   2
ATOM      2  O   UNL     1      -2.312  -2.054  25.362  0.00  0.00    -0.372 OA
BRANCH   2  21
ATOM     21  C   UNL     1      -3.282  -3.091  25.344  0.00  0.00    +0.187 C 
BRANCH  21  24
ATOM     24  C   UNL     1      -3.742  -3.295  23.940  0.00  0.00    -0.007 C 
ATOM     28  C   UNL     1      -4.587  -2.477  23.302  0.00  0.00    +0.006 C 
ENDBRANCH  21  24
ENDBRANCH   2  21
ENDBRANCH  13   2
BRANCH  18  20
ATOM     20  C   UNL     1      -0.919   3.483  24.192  0.00  0.00    +0.256 C 
BRANCH  20   5
ATOM      5  O   UNL     1      -1.138   4.034  25.469  0.00  0.00    -0.359 OA
BRANCH   5  26
ATOM     26  C   UNL     1      -2.284   4.883  25.496  0.00  0.00    +0.280 C 
BRANCH  26  31
ATOM      8  O   UNL     1      -3.290   3.917  27.487  0.00  0.00    -0.248 OA
ATOM     31  C   UNL     1      -3.373   4.240  26.312  0.00  0.00    +0.331 C 
BRANCH  31   7
ATOM      7  O   UNL     1      -4.484   4.065  25.554  0.00  0.00    -0.479 OA
ATOM     35  H   UNL     1      -4.363   3.359  24.883  0.00  0.00    +0.295 HD
ENDBRANCH  31   7
ENDBRANCH  26  31
ENDBRANCH   5  26
ENDBRANCH  20   5
ENDBRANCH  18  20
TORSDOF 13
ENDMDL
