MODEL 1
REMARK VINA RESULT:      -0.8      0.000      0.000
REMARK  Name = 7114634
REMARK  14 active torsions:
REMARK  status: ('A' for Active; 'I' for Inactive)
REMARK    1  A    between atoms: O_3  and  C_21
REMARK    2  A    between atoms: O_3  and  C_31
REMARK    3  A    between atoms: O_5  and  C_25
REMARK    4  A    between atoms: O_5  and  C_34
REMARK    5  A    between atoms: O_6  and  C_24
REMARK    6  A    between atoms: O_6  and  C_35
REMARK    7  A    between atoms: N_9  and  C_12
REMARK    8  A    between atoms: N_10  and  C_19
REMARK    9  A    between atoms: C_13  and  C_17
REMARK   10  A    between atoms: C_18  and  C_21
REMARK   11  A    between atoms: C_19  and  C_22
REMARK   12  A    between atoms: C_19  and  C_25
REMARK   13  A    between atoms: C_20  and  C_24
REMARK   14  A    between atoms: C_22  and  C_23
REMARK                            x       y       z     vdW  Elec       q    Type
REMARK                         _______ _______ _______ _____ _____    ______ ____
ROOT
ATOM      1  O   UNL     1      -2.928   1.314  22.754  0.00  0.00    -0.274 OA
ATOM     10  N   UNL     1      -3.601   1.873  24.912  0.00  0.00    -0.301 N 
ATOM     17  C   UNL     1      -2.830   1.999  23.769  0.00  0.00    +0.234 C 
ATOM     37  H   UNL     1      -3.347   2.402  25.740  0.00  0.00    +0.150 HD
ENDROOT
BRANCH  17  13
ATOM      2  O   UNL     1      -2.598   4.776  27.068  0.00  0.00    -0.273 OA
ATOM      8  N   UNL     1      -1.782   3.506  25.297  0.00  0.00    -0.288 N 
ATOM     12  C   UNL     1       0.327   1.789  24.233  0.00  0.00    +0.077 C 
ATOM     13  C   UNL     1      -1.832   3.115  23.878  0.00  0.00    +0.164 C 
ATOM     14  C   UNL     1      -0.465   2.721  23.313  0.00  0.00    +0.054 C 
ATOM     15  C   UNL     1       0.397   2.371  25.643  0.00  0.00    +0.041 C 
ATOM     16  C   UNL     1      -0.999   2.642  26.188  0.00  0.00    +0.110 C 
ATOM     18  C   UNL     1      -2.541   4.540  25.859  0.00  0.00    +0.242 C 
BRANCH  12   9
ATOM      4  O   UNL     1       1.170  -0.341  22.459  0.00  0.00    -0.273 OA
ATOM      9  N   UNL     1       1.652   1.559  23.712  0.00  0.00    -0.310 N 
ATOM     20  C   UNL     1       1.962   0.505  22.864  0.00  0.00    +0.239 C 
ATOM     36  H   UNL     1       2.402   2.167  24.029  0.00  0.00    +0.149 HD
BRANCH  20  24
ATOM     24  C   UNL     1       3.426   0.510  22.474  0.00  0.00    +0.255 C 
BRANCH  24   6
ATOM      6  O   UNL     1       4.234   0.860  23.578  0.00  0.00    -0.374 OA
ATOM     35  C   UNL     1       5.421   0.075  23.637  0.00  0.00    +0.194 C 
ENDBRANCH  24   6
ENDBRANCH  20  24
ENDBRANCH  12   9
BRANCH  18  21
ATOM     21  C   UNL     1      -3.319   5.408  24.902  0.00  0.00    +0.255 C 
BRANCH  21   3
ATOM      3  O   UNL     1      -4.467   4.679  24.544  0.00  0.00    -0.374 OA
ATOM     31  C   UNL     1      -5.573   4.966  25.398  0.00  0.00    +0.194 C 
ENDBRANCH  21   3
ENDBRANCH  18  21
ENDBRANCH  17  13
BRANCH  10  19
ATOM     19  C   UNL     1      -4.649   0.888  25.054  0.00  0.00    +0.186 C 
BRANCH  19  25
ATOM      7  O   UNL     1      -6.895   1.573  24.483  0.00  0.00    -0.249 OA
ATOM     25  C   UNL     1      -6.005   1.529  25.325  0.00  0.00    +0.328 C 
BRANCH  25   5
ATOM      5  O   UNL     1      -6.086   2.047  26.583  0.00  0.00    -0.467 OA
ATOM     34  C   UNL     1      -6.909   1.322  27.501  0.00  0.00    +0.280 C 
ENDBRANCH  25   5
ENDBRANCH  19  25
BRANCH  19  22
ATOM     22  C   UNL     1      -4.697  -0.073  23.857  0.00  0.00    +0.071 C 
BRANCH  22  23
ATOM     11  N   UNL     1      -3.496  -3.542  24.114  0.00  0.00    -0.360 N 
ATOM     23  C   UNL     1      -3.965  -1.373  24.064  0.00  0.00    -0.020 A 
ATOM     26  C   UNL     1      -2.647  -1.531  24.576  0.00  0.00    +0.003 A 
ATOM     27  C   UNL     1      -4.461  -2.627  23.788  0.00  0.00    +0.087 A 
ATOM     28  C   UNL     1      -2.377  -2.902  24.598  0.00  0.00    +0.047 A 
ATOM     29  C   UNL     1      -1.655  -0.638  25.026  0.00  0.00    +0.010 A 
ATOM     30  C   UNL     1      -1.160  -3.425  25.048  0.00  0.00    +0.026 A 
ATOM     32  C   UNL     1      -0.432  -1.147  25.479  0.00  0.00    +0.001 A 
ATOM     33  C   UNL     1      -0.191  -2.520  25.489  0.00  0.00    +0.002 A 
ATOM     38  H   UNL     1      -3.589  -4.544  24.012  0.00  0.00    +0.165 HD
ENDBRANCH  22  23
ENDBRANCH  19  22
ENDBRANCH  10  19
TORSDOF 11
ENDMDL
MODEL 2
REMARK VINA RESULT:       0.5      2.322      5.599
REMARK  Name = 7114634
REMARK  14 active torsions:
REMARK  status: ('A' for Active; 'I' for Inactive)
REMARK    1  A    between atoms: O_3  and  C_21
REMARK    2  A    between atoms: O_3  and  C_31
REMARK    3  A    between atoms: O_5  and  C_25
REMARK    4  A    between atoms: O_5  and  C_34
REMARK    5  A    between atoms: O_6  and  C_24
REMARK    6  A    between atoms: O_6  and  C_35
REMARK    7  A    between atoms: N_9  and  C_12
REMARK    8  A    between atoms: N_10  and  C_19
REMARK    9  A    between atoms: C_13  and  C_17
REMARK   10  A    between atoms: C_18  and  C_21
REMARK   11  A    between atoms: C_19  and  C_22
REMARK   12  A    between atoms: C_19  and  C_25
REMARK   13  A    between atoms: C_20  and  C_24
REMARK   14  A    between atoms: C_22  and  C_23
REMARK                            x       y       z     vdW  Elec       q    Type
REMARK                         _______ _______ _______ _____ _____    ______ ____
ROOT
ATOM      1  O   UNL     1      -0.975  -0.478  27.482  0.00  0.00    -0.274 OA
ATOM     10  N   UNL     1      -0.890   1.222  25.894  0.00  0.00    -0.301 N 
ATOM     17  C   UNL     1      -0.933  -0.096  26.316  0.00  0.00    +0.234 C 
ATOM     37  H   UNL     1      -0.724   1.422  24.913  0.00  0.00    +0.150 HD
ENDROOT
BRANCH  17  13
ATOM      2  O   UNL     1      -4.169  -0.496  23.485  0.00  0.00    -0.273 OA
ATOM      8  N   UNL     1      -1.960  -0.573  24.214  0.00  0.00    -0.288 N 
ATOM     12  C   UNL     1       0.858  -0.039  23.668  0.00  0.00    +0.077 C 
ATOM     13  C   UNL     1      -0.948  -1.060  25.165  0.00  0.00    +0.164 C 
ATOM     14  C   UNL     1       0.438  -1.227  24.538  0.00  0.00    +0.054 C 
ATOM     15  C   UNL     1      -0.235   0.285  22.651  0.00  0.00    +0.041 C 
ATOM     16  C   UNL     1      -1.564   0.544  23.348  0.00  0.00    +0.110 C 
ATOM     18  C   UNL     1      -3.293  -1.001  24.191  0.00  0.00    +0.242 C 
BRANCH  12   9
ATOM      4  O   UNL     1       3.041   1.812  23.217  0.00  0.00    -0.273 OA
ATOM      9  N   UNL     1       2.108  -0.308  23.001  0.00  0.00    -0.310 N 
ATOM     20  C   UNL     1       3.100   0.648  22.831  0.00  0.00    +0.239 C 
ATOM     36  H   UNL     1       2.241  -1.228  22.589  0.00  0.00    +0.149 HD
BRANCH  20  24
ATOM     24  C   UNL     1       4.301   0.087  22.099  0.00  0.00    +0.255 C 
BRANCH  24   6
ATOM      6  O   UNL     1       5.462   0.191  22.895  0.00  0.00    -0.374 OA
ATOM     35  C   UNL     1       5.395  -0.646  24.045  0.00  0.00    +0.194 C 
ENDBRANCH  24   6
ENDBRANCH  20  24
ENDBRANCH  12   9
BRANCH  18  21
ATOM     21  C   UNL     1      -3.650  -2.159  25.089  0.00  0.00    +0.255 C 
BRANCH  21   3
ATOM      3  O   UNL     1      -3.854  -3.269  24.249  0.00  0.00    -0.374 OA
ATOM     31  C   UNL     1      -2.651  -3.674  23.597  0.00  0.00    +0.194 C 
ENDBRANCH  21   3
ENDBRANCH  18  21
ENDBRANCH  17  13
BRANCH  10  19
ATOM     19  C   UNL     1      -0.890   2.344  26.805  0.00  0.00    +0.186 C 
BRANCH  19  25
ATOM      7  O   UNL     1       1.475   2.842  26.792  0.00  0.00    -0.249 OA
ATOM     25  C   UNL     1       0.476   2.562  27.445  0.00  0.00    +0.328 C 
BRANCH  25   5
ATOM      5  O   UNL     1       0.443   2.392  28.797  0.00  0.00    -0.467 OA
ATOM     34  C   UNL     1       1.712   2.420  29.457  0.00  0.00    +0.280 C 
ENDBRANCH  25   5
ENDBRANCH  19  25
BRANCH  19  22
ATOM     22  C   UNL     1      -1.424   3.621  26.141  0.00  0.00    +0.071 C 
BRANCH  22  23
ATOM     11  N   UNL     1      -3.560   3.279  23.164  0.00  0.00    -0.360 N 
ATOM     23  C   UNL     1      -2.498   3.392  25.109  0.00  0.00    -0.020 A 
ATOM     26  C   UNL     1      -3.818   2.922  25.351  0.00  0.00    +0.003 A 
ATOM     27  C   UNL     1      -2.368   3.601  23.755  0.00  0.00    +0.087 A 
ATOM     28  C   UNL     1      -4.464   2.861  24.113  0.00  0.00    +0.047 A 
ATOM     29  C   UNL     1      -4.529   2.543  26.506  0.00  0.00    +0.010 A 
ATOM     30  C   UNL     1      -5.790   2.437  23.975  0.00  0.00    +0.026 A 
ATOM     32  C   UNL     1      -5.857   2.117  26.383  0.00  0.00    +0.001 A 
ATOM     33  C   UNL     1      -6.476   2.066  25.135  0.00  0.00    +0.002 A 
ATOM     38  H   UNL     1      -3.749   3.336  22.172  0.00  0.00    +0.165 HD
ENDBRANCH  22  23
ENDBRANCH  19  22
ENDBRANCH  10  19
TORSDOF 11
ENDMDL
MODEL 3
REMARK VINA RESULT:       1.6      2.124      5.400
REMARK  Name = 7114634
REMARK  14 active torsions:
REMARK  status: ('A' for Active; 'I' for Inactive)
REMARK    1  A    between atoms: O_3  and  C_21
REMARK    2  A    between atoms: O_3  and  C_31
REMARK    3  A    between atoms: O_5  and  C_25
REMARK    4  A    between atoms: O_5  and  C_34
REMARK    5  A    between atoms: O_6  and  C_24
REMARK    6  A    between atoms: O_6  and  C_35
REMARK    7  A    between atoms: N_9  and  C_12
REMARK    8  A    between atoms: N_10  and  C_19
REMARK    9  A    between atoms: C_13  and  C_17
REMARK   10  A    between atoms: C_18  and  C_21
REMARK   11  A    between atoms: C_19  and  C_22
REMARK   12  A    between atoms: C_19  and  C_25
REMARK   13  A    between atoms: C_20  and  C_24
REMARK   14  A    between atoms: C_22  and  C_23
REMARK                            x       y       z     vdW  Elec       q    Type
REMARK                         _______ _______ _______ _____ _____    ______ ____
ROOT
ATOM      1  O   UNL     1      -0.429   1.479  27.184  0.00  0.00    -0.274 OA
ATOM     10  N   UNL     1      -1.051   2.462  25.167  0.00  0.00    -0.301 N 
ATOM     17  C   UNL     1      -0.715   1.402  25.992  0.00  0.00    +0.234 C 
ATOM     37  H   UNL     1      -1.139   2.303  24.169  0.00  0.00    +0.150 HD
ENDROOT
BRANCH  17  13
ATOM      2  O   UNL     1      -4.027   0.015  23.593  0.00  0.00    -0.273 OA
ATOM      8  N   UNL     1      -1.798   0.199  24.236  0.00  0.00    -0.288 N 
ATOM     12  C   UNL     1       1.000   0.489  23.452  0.00  0.00    +0.077 C 
ATOM     13  C   UNL     1      -0.755   0.086  25.270  0.00  0.00    +0.164 C 
ATOM     14  C   UNL     1       0.613  -0.302  24.705  0.00  0.00    +0.054 C 
ATOM     15  C   UNL     1      -0.124   0.426  22.419  0.00  0.00    +0.041 C 
ATOM     16  C   UNL     1      -1.434   0.924  23.013  0.00  0.00    +0.110 C 
ATOM     18  C   UNL     1      -3.128  -0.203  24.409  0.00  0.00    +0.242 C 
BRANCH  12   9
ATOM      4  O   UNL     1       3.490   1.934  23.128  0.00  0.00    -0.273 OA
ATOM      9  N   UNL     1       2.233  -0.009  22.892  0.00  0.00    -0.310 N 
ATOM     20  C   UNL     1       3.380   0.762  22.777  0.00  0.00    +0.239 C 
ATOM     36  H   UNL     1       2.239  -0.953  22.515  0.00  0.00    +0.149 HD
BRANCH  20  24
ATOM     24  C   UNL     1       4.521  -0.017  22.156  0.00  0.00    +0.255 C 
BRANCH  24   6
ATOM      6  O   UNL     1       5.646  -0.017  23.008  0.00  0.00    -0.374 OA
ATOM     35  C   UNL     1       5.386  -0.697  24.232  0.00  0.00    +0.194 C 
ENDBRANCH  24   6
ENDBRANCH  20  24
ENDBRANCH  12   9
BRANCH  18  21
ATOM     21  C   UNL     1      -3.452  -0.955  25.675  0.00  0.00    +0.255 C 
BRANCH  21   3
ATOM      3  O   UNL     1      -3.764  -2.271  25.290  0.00  0.00    -0.374 OA
ATOM     31  C   UNL     1      -2.707  -2.878  24.548  0.00  0.00    +0.194 C 
ENDBRANCH  21   3
ENDBRANCH  18  21
ENDBRANCH  17  13
BRANCH  10  19
ATOM     19  C   UNL     1      -1.108   3.832  25.625  0.00  0.00    +0.186 C 
BRANCH  19  25
ATOM      7  O   UNL     1      -0.525   6.012  24.760  0.00  0.00    -0.249 OA
ATOM     25  C   UNL     1      -0.461   4.794  24.636  0.00  0.00    +0.328 C 
BRANCH  25   5
ATOM      5  O   UNL     1       0.162   4.140  23.616  0.00  0.00    -0.467 OA
ATOM     34  C   UNL     1       0.615   4.962  22.536  0.00  0.00    +0.280 C 
ENDBRANCH  25   5
ENDBRANCH  19  25
BRANCH  19  22
ATOM     22  C   UNL     1      -2.540   4.255  25.986  0.00  0.00    +0.071 C 
BRANCH  22  23
ATOM     11  N   UNL     1      -4.798   2.989  23.370  0.00  0.00    -0.360 N 
ATOM     23  C   UNL     1      -3.614   3.629  25.135  0.00  0.00    -0.020 A 
ATOM     26  C   UNL     1      -4.739   2.891  25.598  0.00  0.00    +0.003 A 
ATOM     27  C   UNL     1      -3.677   3.671  23.761  0.00  0.00    +0.087 A 
ATOM     28  C   UNL     1      -5.466   2.502  24.470  0.00  0.00    +0.047 A 
ATOM     29  C   UNL     1      -5.211   2.517  26.872  0.00  0.00    +0.010 A 
ATOM     30  C   UNL     1      -6.645   1.754  24.554  0.00  0.00    +0.026 A 
ATOM     32  C   UNL     1      -6.389   1.768  26.971  0.00  0.00    +0.001 A 
ATOM     33  C   UNL     1      -7.094   1.394  25.828  0.00  0.00    +0.002 A 
ATOM     38  H   UNL     1      -5.092   2.859  22.412  0.00  0.00    +0.165 HD
ENDBRANCH  22  23
ENDBRANCH  19  22
ENDBRANCH  10  19
TORSDOF 11
ENDMDL
MODEL 4
REMARK VINA RESULT:       2.2      1.885      4.070
REMARK  Name = 7114634
REMARK  14 active torsions:
REMARK  status: ('A' for Active; 'I' for Inactive)
REMARK    1  A    between atoms: O_3  and  C_21
REMARK    2  A    between atoms: O_3  and  C_31
REMARK    3  A    between atoms: O_5  and  C_25
REMARK    4  A    between atoms: O_5  and  C_34
REMARK    5  A    between atoms: O_6  and  C_24
REMARK    6  A    between atoms: O_6  and  C_35
REMARK    7  A    between atoms: N_9  and  C_12
REMARK    8  A    between atoms: N_10  and  C_19
REMARK    9  A    between atoms: C_13  and  C_17
REMARK   10  A    between atoms: C_18  and  C_21
REMARK   11  A    between atoms: C_19  and  C_22
REMARK   12  A    between atoms: C_19  and  C_25
REMARK   13  A    between atoms: C_20  and  C_24
REMARK   14  A    between atoms: C_22  and  C_23
REMARK                            x       y       z     vdW  Elec       q    Type
REMARK                         _______ _______ _______ _____ _____    ______ ____
ROOT
ATOM      1  O   UNL     1      -2.560   1.581  22.308  0.00  0.00    -0.274 OA
ATOM     10  N   UNL     1      -2.327   0.695  24.449  0.00  0.00    -0.301 N 
ATOM     17  C   UNL     1      -2.066   1.598  23.433  0.00  0.00    +0.234 C 
ATOM     37  H   UNL     1      -1.765   0.725  25.293  0.00  0.00    +0.150 HD
ENDROOT
BRANCH  17  13
ATOM      2  O   UNL     1      -2.124   3.594  27.262  0.00  0.00    -0.273 OA
ATOM      8  N   UNL     1      -1.158   2.738  25.325  0.00  0.00    -0.288 N 
ATOM     12  C   UNL     1       1.051   1.292  24.078  0.00  0.00    +0.077 C 
ATOM     13  C   UNL     1      -1.097   2.664  23.856  0.00  0.00    +0.164 C 
ATOM     14  C   UNL     1       0.314   2.402  23.324  0.00  0.00    +0.054 C 
ATOM     15  C   UNL     1       1.007   1.555  25.583  0.00  0.00    +0.041 C 
ATOM     16  C   UNL     1      -0.430   1.702  26.066  0.00  0.00    +0.110 C 
ATOM     18  C   UNL     1      -1.974   3.625  26.038  0.00  0.00    +0.242 C 
BRANCH  12   9
ATOM      4  O   UNL     1       2.025  -0.227  21.812  0.00  0.00    -0.273 OA
ATOM      9  N   UNL     1       2.415   1.181  23.622  0.00  0.00    -0.310 N 
ATOM     20  C   UNL     1       2.787   0.424  22.520  0.00  0.00    +0.239 C 
ATOM     36  H   UNL     1       3.140   1.634  24.171  0.00  0.00    +0.149 HD
BRANCH  20  24
ATOM     24  C   UNL     1       4.280   0.491  22.272  0.00  0.00    +0.255 C 
BRANCH  24   6
ATOM      6  O   UNL     1       4.971   0.787  23.467  0.00  0.00    -0.374 OA
ATOM     35  C   UNL     1       5.528  -0.381  24.062  0.00  0.00    +0.194 C 
ENDBRANCH  24   6
ENDBRANCH  20  24
ENDBRANCH  12   9
BRANCH  18  21
ATOM     21  C   UNL     1      -2.694   4.681  25.236  0.00  0.00    +0.255 C 
BRANCH  21   3
ATOM      3  O   UNL     1      -1.922   5.852  25.333  0.00  0.00    -0.374 OA
ATOM     31  C   UNL     1      -0.677   5.732  24.646  0.00  0.00    +0.194 C 
ENDBRANCH  21   3
ENDBRANCH  18  21
ENDBRANCH  17  13
BRANCH  10  19
ATOM     19  C   UNL     1      -3.242  -0.414  24.305  0.00  0.00    +0.186 C 
BRANCH  19  25
ATOM      7  O   UNL     1      -2.892  -0.930  26.640  0.00  0.00    -0.249 OA
ATOM     25  C   UNL     1      -3.244  -1.319  25.531  0.00  0.00    +0.328 C 
BRANCH  25   5
ATOM      5  O   UNL     1      -3.659  -2.583  25.236  0.00  0.00    -0.467 OA
ATOM     34  C   UNL     1      -3.040  -3.190  24.098  0.00  0.00    +0.280 C 
ENDBRANCH  25   5
ENDBRANCH  19  25
BRANCH  19  22
ATOM     22  C   UNL     1      -4.657   0.056  23.935  0.00  0.00    +0.071 C 
BRANCH  22  23
ATOM     11  N   UNL     1      -6.266   2.015  26.602  0.00  0.00    -0.360 N 
ATOM     23  C   UNL     1      -5.241   1.085  24.867  0.00  0.00    -0.020 A 
ATOM     26  C   UNL     1      -5.231   2.496  24.685  0.00  0.00    +0.003 A 
ATOM     27  C   UNL     1      -5.884   0.820  26.055  0.00  0.00    +0.087 A 
ATOM     28  C   UNL     1      -5.882   3.056  25.788  0.00  0.00    +0.047 A 
ATOM     29  C   UNL     1      -4.732   3.354  23.685  0.00  0.00    +0.010 A 
ATOM     30  C   UNL     1      -6.056   4.435  25.940  0.00  0.00    +0.026 A 
ATOM     32  C   UNL     1      -4.899   4.736  23.825  0.00  0.00    +0.001 A 
ATOM     33  C   UNL     1      -5.552   5.266  24.936  0.00  0.00    +0.002 A 
ATOM     38  H   UNL     1      -6.758   2.120  27.479  0.00  0.00    +0.165 HD
ENDBRANCH  22  23
ENDBRANCH  19  22
ENDBRANCH  10  19
TORSDOF 11
ENDMDL
MODEL 5
REMARK VINA RESULT:       2.4      1.201      1.837
REMARK  Name = 7114634
REMARK  14 active torsions:
REMARK  status: ('A' for Active; 'I' for Inactive)
REMARK    1  A    between atoms: O_3  and  C_21
REMARK    2  A    between atoms: O_3  and  C_31
REMARK    3  A    between atoms: O_5  and  C_25
REMARK    4  A    between atoms: O_5  and  C_34
REMARK    5  A    between atoms: O_6  and  C_24
REMARK    6  A    between atoms: O_6  and  C_35
REMARK    7  A    between atoms: N_9  and  C_12
REMARK    8  A    between atoms: N_10  and  C_19
REMARK    9  A    between atoms: C_13  and  C_17
REMARK   10  A    between atoms: C_18  and  C_21
REMARK   11  A    between atoms: C_19  and  C_22
REMARK   12  A    between atoms: C_19  and  C_25
REMARK   13  A    between atoms: C_20  and  C_24
REMARK   14  A    between atoms: C_22  and  C_23
REMARK                            x       y       z     vdW  Elec       q    Type
REMARK                         _______ _______ _______ _____ _____    ______ ____
ROOT
ATOM      1  O   UNL     1      -3.074   0.743  23.186  0.00  0.00    -0.274 OA
ATOM     10  N   UNL     1      -3.497   1.697  25.268  0.00  0.00    -0.301 N 
ATOM     17  C   UNL     1      -2.887   1.618  24.027  0.00  0.00    +0.234 C 
ATOM     37  H   UNL     1      -3.171   2.387  25.936  0.00  0.00    +0.150 HD
ENDROOT
BRANCH  17  13
ATOM      2  O   UNL     1      -2.573   5.117  26.539  0.00  0.00    -0.273 OA
ATOM      8  N   UNL     1      -1.818   3.488  25.058  0.00  0.00    -0.288 N 
ATOM     12  C   UNL     1       0.302   1.647  24.256  0.00  0.00    +0.077 C 
ATOM     13  C   UNL     1      -1.950   2.765  23.782  0.00  0.00    +0.164 C 
ATOM     14  C   UNL     1      -0.608   2.299  23.212  0.00  0.00    +0.054 C 
ATOM     15  C   UNL     1       0.442   2.555  25.477  0.00  0.00    +0.041 C 
ATOM     16  C   UNL     1      -0.923   2.896  26.059  0.00  0.00    +0.110 C 
ATOM     18  C   UNL     1      -2.591   4.597  25.421  0.00  0.00    +0.242 C 
BRANCH  12   9
ATOM      4  O   UNL     1       0.971  -0.503  22.433  0.00  0.00    -0.273 OA
ATOM      9  N   UNL     1       1.597   1.349  23.694  0.00  0.00    -0.310 N 
ATOM     20  C   UNL     1       1.822   0.291  22.825  0.00  0.00    +0.239 C 
ATOM     36  H   UNL     1       2.389   1.910  23.996  0.00  0.00    +0.149 HD
BRANCH  20  24
ATOM     24  C   UNL     1       3.271   0.218  22.393  0.00  0.00    +0.255 C 
BRANCH  24   6
ATOM      6  O   UNL     1       4.088   0.980  23.256  0.00  0.00    -0.374 OA
ATOM     35  C   UNL     1       5.302   0.305  23.572  0.00  0.00    +0.194 C 
ENDBRANCH  24   6
ENDBRANCH  20  24
ENDBRANCH  12   9
BRANCH  18  21
ATOM     21  C   UNL     1      -3.487   5.179  24.356  0.00  0.00    +0.255 C 
BRANCH  21   3
ATOM      3  O   UNL     1      -4.641   4.375  24.320  0.00  0.00    -0.374 OA
ATOM     31  C   UNL     1      -5.462   4.565  25.472  0.00  0.00    +0.194 C 
ENDBRANCH  21   3
ENDBRANCH  18  21
ENDBRANCH  17  13
BRANCH  10  19
ATOM     19  C   UNL     1      -4.460   0.726  25.737  0.00  0.00    +0.186 C 
BRANCH  19  25
ATOM      7  O   UNL     1      -5.145  -0.870  24.057  0.00  0.00    -0.249 OA
ATOM     25  C   UNL     1      -5.344   0.206  24.611  0.00  0.00    +0.328 C 
BRANCH  25   5
ATOM      5  O   UNL     1      -6.345   1.077  24.299  0.00  0.00    -0.467 OA
ATOM     34  C   UNL     1      -6.783   1.926  25.364  0.00  0.00    +0.280 C 
ENDBRANCH  25   5
ENDBRANCH  19  25
BRANCH  19  22
ATOM     22  C   UNL     1      -3.789  -0.415  26.516  0.00  0.00    +0.071 C 
BRANCH  22  23
ATOM     11  N   UNL     1      -0.453  -1.350  25.277  0.00  0.00    -0.360 N 
ATOM     23  C   UNL     1      -2.566  -0.994  25.855  0.00  0.00    -0.020 A 
ATOM     26  C   UNL     1      -2.536  -2.059  24.913  0.00  0.00    +0.003 A 
ATOM     27  C   UNL     1      -1.269  -0.579  26.060  0.00  0.00    +0.087 A 
ATOM     28  C   UNL     1      -1.198  -2.263  24.566  0.00  0.00    +0.047 A 
ATOM     29  C   UNL     1      -3.521  -2.872  24.319  0.00  0.00    +0.010 A 
ATOM     30  C   UNL     1      -0.796  -3.242  23.652  0.00  0.00    +0.026 A 
ATOM     32  C   UNL     1      -3.133  -3.857  23.403  0.00  0.00    +0.001 A 
ATOM     33  C   UNL     1      -1.790  -4.037  23.076  0.00  0.00    +0.002 A 
ATOM     38  H   UNL     1       0.554  -1.264  25.230  0.00  0.00    +0.165 HD
ENDBRANCH  22  23
ENDBRANCH  19  22
ENDBRANCH  10  19
TORSDOF 11
ENDMDL
MODEL 6
REMARK VINA RESULT:       3.1      2.154      4.363
REMARK  Name = 7114634
REMARK  14 active torsions:
REMARK  status: ('A' for Active; 'I' for Inactive)
REMARK    1  A    between atoms: O_3  and  C_21
REMARK    2  A    between atoms: O_3  and  C_31
REMARK    3  A    between atoms: O_5  and  C_25
REMARK    4  A    between atoms: O_5  and  C_34
REMARK    5  A    between atoms: O_6  and  C_24
REMARK    6  A    between atoms: O_6  and  C_35
REMARK    7  A    between atoms: N_9  and  C_12
REMARK    8  A    between atoms: N_10  and  C_19
REMARK    9  A    between atoms: C_13  and  C_17
REMARK   10  A    between atoms: C_18  and  C_21
REMARK   11  A    between atoms: C_19  and  C_22
REMARK   12  A    between atoms: C_19  and  C_25
REMARK   13  A    between atoms: C_20  and  C_24
REMARK   14  A    between atoms: C_22  and  C_23
REMARK                            x       y       z     vdW  Elec       q    Type
REMARK                         _______ _______ _______ _____ _____    ______ ____
ROOT
ATOM      1  O   UNL     1      -1.091  -0.974  24.806  0.00  0.00    -0.274 OA
ATOM     10  N   UNL     1      -3.078  -0.375  23.751  0.00  0.00    -0.301 N 
ATOM     17  C   UNL     1      -1.704  -0.383  23.922  0.00  0.00    +0.234 C 
ATOM     37  H   UNL     1      -3.487   0.253  23.068  0.00  0.00    +0.150 HD
ENDROOT
BRANCH  17  13
ATOM      2  O   UNL     1      -1.917   3.913  23.530  0.00  0.00    -0.273 OA
ATOM      8  N   UNL     1      -0.944   1.807  23.345  0.00  0.00    -0.288 N 
ATOM     12  C   UNL     1       1.436   0.135  23.608  0.00  0.00    +0.077 C 
ATOM     13  C   UNL     1      -0.996   0.415  22.865  0.00  0.00    +0.164 C 
ATOM     14  C   UNL     1       0.383  -0.161  22.537  0.00  0.00    +0.054 C 
ATOM     15  C   UNL     1       1.461   1.630  23.927  0.00  0.00    +0.041 C 
ATOM     16  C   UNL     1       0.081   2.118  24.348  0.00  0.00    +0.110 C 
ATOM     18  C   UNL     1      -1.888   2.789  23.022  0.00  0.00    +0.242 C 
BRANCH  12   9
ATOM      4  O   UNL     1       3.674   1.774  22.773  0.00  0.00    -0.273 OA
ATOM      9  N   UNL     1       2.739  -0.315  23.186  0.00  0.00    -0.310 N 
ATOM     20  C   UNL     1       3.754   0.549  22.801  0.00  0.00    +0.239 C 
ATOM     36  H   UNL     1       2.898  -1.317  23.115  0.00  0.00    +0.149 HD
BRANCH  20  24
ATOM     24  C   UNL     1       5.011  -0.199  22.409  0.00  0.00    +0.255 C 
BRANCH  24   6
ATOM      6  O   UNL     1       6.019  -0.023  23.381  0.00  0.00    -0.374 OA
ATOM     35  C   UNL     1       5.660  -0.604  24.631  0.00  0.00    +0.194 C 
ENDBRANCH  24   6
ENDBRANCH  20  24
ENDBRANCH  12   9
BRANCH  18  21
ATOM     21  C   UNL     1      -2.915   2.428  21.978  0.00  0.00    +0.255 C 
BRANCH  21   3
ATOM      3  O   UNL     1      -3.983   3.329  22.138  0.00  0.00    -0.374 OA
ATOM     31  C   UNL     1      -4.336   3.965  20.911  0.00  0.00    +0.194 C 
ENDBRANCH  21   3
ENDBRANCH  18  21
ENDBRANCH  17  13
BRANCH  10  19
ATOM     19  C   UNL     1      -3.986  -1.086  24.622  0.00  0.00    +0.186 C 
BRANCH  19  25
ATOM      7  O   UNL     1      -3.156  -2.817  26.090  0.00  0.00    -0.249 OA
ATOM     25  C   UNL     1      -3.483  -2.485  24.956  0.00  0.00    +0.328 C 
BRANCH  25   5
ATOM      5  O   UNL     1      -3.429  -3.288  23.856  0.00  0.00    -0.467 OA
ATOM     34  C   UNL     1      -4.638  -3.379  23.094  0.00  0.00    +0.280 C 
ENDBRANCH  25   5
ENDBRANCH  19  25
BRANCH  19  22
ATOM     22  C   UNL     1      -4.319  -0.278  25.885  0.00  0.00    +0.071 C 
BRANCH  22  23
ATOM     11  N   UNL     1      -6.384   2.656  25.068  0.00  0.00    -0.360 N 
ATOM     23  C   UNL     1      -4.930   1.074  25.624  0.00  0.00    -0.020 A 
ATOM     26  C   UNL     1      -4.296   2.337  25.788  0.00  0.00    +0.003 A 
ATOM     27  C   UNL     1      -6.213   1.303  25.181  0.00  0.00    +0.087 A 
ATOM     28  C   UNL     1      -5.230   3.313  25.432  0.00  0.00    +0.047 A 
ATOM     29  C   UNL     1      -3.014   2.745  26.206  0.00  0.00    +0.010 A 
ATOM     30  C   UNL     1      -4.944   4.682  25.473  0.00  0.00    +0.026 A 
ATOM     32  C   UNL     1      -2.714   4.111  26.252  0.00  0.00    +0.001 A 
ATOM     33  C   UNL     1      -3.665   5.063  25.891  0.00  0.00    +0.002 A 
ATOM     38  H   UNL     1      -7.235   3.110  24.764  0.00  0.00    +0.165 HD
ENDBRANCH  22  23
ENDBRANCH  19  22
ENDBRANCH  10  19
TORSDOF 11
ENDMDL
