MODEL 1
REMARK VINA RESULT:      -4.8      0.000      0.000
REMARK  Name = 11885192
REMARK  1 active torsions:
REMARK  status: ('A' for Active; 'I' for Inactive)
REMARK    1  A    between atoms: C_14  and  C_16
REMARK                            x       y       z     vdW  Elec       q    Type
REMARK                         _______ _______ _______ _____ _____    ______ ____
ROOT
ATOM      2  O   UNL     1      -6.914 -10.294  12.218  0.00  0.00    -0.267 OA
ATOM      3  N   UNL     1      -7.800 -10.054  14.362  0.00  0.00    -0.311 N 
ATOM      4  N   UNL     1      -9.444  -7.629  15.652  0.00  0.00    -0.315 NA
ATOM      5  C   UNL     1     -10.315  -9.822  14.802  0.00  0.00    +0.023 C 
ATOM      6  C   UNL     1      -8.744  -9.796  16.681  0.00  0.00    +0.050 C 
ATOM      7  C   UNL     1      -9.992 -10.487  16.135  0.00  0.00    +0.017 C 
ATOM      8  C   UNL     1      -9.167 -10.097  13.822  0.00  0.00    +0.130 C 
ATOM      9  C   UNL     1     -10.565  -8.315  15.011  0.00  0.00    +0.086 C 
ATOM     10  C   UNL     1      -9.037  -8.295  16.891  0.00  0.00    +0.090 C 
ATOM     11  C   UNL     1      -7.570  -9.981  15.738  0.00  0.00    +0.026 A 
ATOM     12  C   UNL     1      -6.318 -10.057  16.216  0.00  0.00    +0.022 A 
ATOM     13  C   UNL     1      -6.748 -10.193  13.435  0.00  0.00    +0.260 A 
ATOM     14  C   UNL     1      -5.353 -10.241  13.999  0.00  0.00    +0.053 A 
ATOM     15  C   UNL     1      -5.196 -10.182  15.331  0.00  0.00    +0.016 A 
ATOM     20  H   UNL     1      -9.700  -6.663  15.849  0.00  0.00    +0.122 HD
ENDROOT
BRANCH  14  16
ATOM      1  S   UNL     1      -2.641 -10.703  13.792  0.00  0.00    -0.096 S 
ATOM     16  C   UNL     1      -4.177 -10.340  13.119  0.00  0.00    +0.024 A 
ATOM     17  C   UNL     1      -4.104 -10.178  11.748  0.00  0.00    +0.016 A 
ATOM     18  C   UNL     1      -2.780 -10.352  11.251  0.00  0.00    +0.008 A 
ATOM     19  C   UNL     1      -1.884 -10.642  12.256  0.00  0.00    +0.046 A 
ENDBRANCH  14  16
TORSDOF 1
ENDMDL
MODEL 2
REMARK VINA RESULT:      -1.6     14.662     16.378
REMARK  Name = 11885192
REMARK  1 active torsions:
REMARK  status: ('A' for Active; 'I' for Inactive)
REMARK    1  A    between atoms: C_14  and  C_16
REMARK                            x       y       z     vdW  Elec       q    Type
REMARK                         _______ _______ _______ _____ _____    ______ ____
ROOT
ATOM      2  O   UNL     1      -0.253   1.299  25.156  0.00  0.00    -0.267 OA
ATOM      3  N   UNL     1      -2.065  -0.167  25.223  0.00  0.00    -0.311 N 
ATOM      4  N   UNL     1      -2.977  -2.411  23.130  0.00  0.00    -0.315 NA
ATOM      5  C   UNL     1      -1.783  -2.713  25.315  0.00  0.00    +0.023 C 
ATOM      6  C   UNL     1      -4.030  -1.739  25.295  0.00  0.00    +0.050 C 
ATOM      7  C   UNL     1      -3.110  -2.684  26.064  0.00  0.00    +0.017 C 
ATOM      8  C   UNL     1      -1.156  -1.314  25.365  0.00  0.00    +0.130 C 
ATOM      9  C   UNL     1      -2.003  -3.211  23.873  0.00  0.00    +0.086 C 
ATOM     10  C   UNL     1      -4.239  -2.276  23.863  0.00  0.00    +0.090 C 
ATOM     11  C   UNL     1      -3.451  -0.337  25.257  0.00  0.00    +0.026 A 
ATOM     12  C   UNL     1      -4.262   0.733  25.238  0.00  0.00    +0.022 A 
ATOM     13  C   UNL     1      -1.471   1.108  25.154  0.00  0.00    +0.260 A 
ATOM     14  C   UNL     1      -2.405   2.287  25.101  0.00  0.00    +0.053 A 
ATOM     15  C   UNL     1      -3.727   2.062  25.153  0.00  0.00    +0.016 A 
ATOM     20  H   UNL     1      -3.152  -2.839  22.222  0.00  0.00    +0.122 HD
ENDROOT
BRANCH  14  16
ATOM      1  S   UNL     1      -2.898   4.984  25.418  0.00  0.00    -0.096 S 
ATOM     16  C   UNL     1      -1.893   3.663  24.984  0.00  0.00    +0.024 A 
ATOM     17  C   UNL     1      -0.651   4.092  24.552  0.00  0.00    +0.016 A 
ATOM     18  C   UNL     1      -0.528   5.511  24.579  0.00  0.00    +0.008 A 
ATOM     19  C   UNL     1      -1.678   6.121  25.030  0.00  0.00    +0.046 A 
ENDBRANCH  14  16
TORSDOF 1
ENDMDL
MODEL 3
REMARK VINA RESULT:      -1.5     15.359     16.450
REMARK  Name = 11885192
REMARK  1 active torsions:
REMARK  status: ('A' for Active; 'I' for Inactive)
REMARK    1  A    between atoms: C_14  and  C_16
REMARK                            x       y       z     vdW  Elec       q    Type
REMARK                         _______ _______ _______ _____ _____    ______ ____
ROOT
ATOM      2  O   UNL     1      -0.947  -0.214  23.987  0.00  0.00    -0.267 OA
ATOM      3  N   UNL     1      -2.021   1.720  24.727  0.00  0.00    -0.311 N 
ATOM      4  N   UNL     1      -4.551   3.262  23.516  0.00  0.00    -0.315 NA
ATOM      5  C   UNL     1      -4.464   1.735  25.502  0.00  0.00    +0.023 C 
ATOM      6  C   UNL     1      -3.170   3.813  25.523  0.00  0.00    +0.050 C 
ATOM      7  C   UNL     1      -4.019   2.889  26.393  0.00  0.00    +0.017 C 
ATOM      8  C   UNL     1      -3.225   0.944  25.061  0.00  0.00    +0.130 C 
ATOM      9  C   UNL     1      -5.279   2.273  24.309  0.00  0.00    +0.086 C 
ATOM     10  C   UNL     1      -4.020   4.343  24.350  0.00  0.00    +0.090 C 
ATOM     11  C   UNL     1      -1.943   3.086  25.004  0.00  0.00    +0.026 A 
ATOM     12  C   UNL     1      -0.795   3.751  24.795  0.00  0.00    +0.022 A 
ATOM     13  C   UNL     1      -0.926   0.998  24.212  0.00  0.00    +0.260 A 
ATOM     14  C   UNL     1       0.336   1.777  23.956  0.00  0.00    +0.053 A 
ATOM     15  C   UNL     1       0.356   3.085  24.258  0.00  0.00    +0.016 A 
ATOM     20  H   UNL     1      -5.167   3.650  22.802  0.00  0.00    +0.122 HD
ENDROOT
BRANCH  14  16
ATOM      1  S   UNL     1       1.361  -0.337  22.508  0.00  0.00    -0.096 S 
ATOM     16  C   UNL     1       1.528   1.132  23.379  0.00  0.00    +0.024 A 
ATOM     17  C   UNL     1       2.846   1.546  23.429  0.00  0.00    +0.016 A 
ATOM     18  C   UNL     1       3.721   0.650  22.748  0.00  0.00    +0.008 A 
ATOM     19  C   UNL     1       3.044  -0.417  22.201  0.00  0.00    +0.046 A 
ENDBRANCH  14  16
TORSDOF 1
ENDMDL
MODEL 4
REMARK VINA RESULT:      -1.3     14.333     16.157
REMARK  Name = 11885192
REMARK  1 active torsions:
REMARK  status: ('A' for Active; 'I' for Inactive)
REMARK    1  A    between atoms: C_14  and  C_16
REMARK                            x       y       z     vdW  Elec       q    Type
REMARK                         _______ _______ _______ _____ _____    ______ ____
ROOT
ATOM      2  O   UNL     1      -1.647   0.519  23.399  0.00  0.00    -0.267 OA
ATOM      3  N   UNL     1      -2.952   2.259  24.241  0.00  0.00    -0.311 N 
ATOM      4  N   UNL     1      -2.330   4.356  26.578  0.00  0.00    -0.315 NA
ATOM      5  C   UNL     1      -2.239   4.718  24.098  0.00  0.00    +0.023 C 
ATOM      6  C   UNL     1      -4.370   4.129  25.152  0.00  0.00    +0.050 C 
ATOM      7  C   UNL     1      -3.737   4.995  24.066  0.00  0.00    +0.017 C 
ATOM      8  C   UNL     1      -2.000   3.250  23.717  0.00  0.00    +0.130 C 
ATOM      9  C   UNL     1      -1.667   5.068  25.486  0.00  0.00    +0.086 C 
ATOM     10  C   UNL     1      -3.785   4.518  26.527  0.00  0.00    +0.090 C 
ATOM     11  C   UNL     1      -4.133   2.656  24.872  0.00  0.00    +0.026 A 
ATOM     12  C   UNL     1      -5.041   1.739  25.242  0.00  0.00    +0.022 A 
ATOM     13  C   UNL     1      -2.662   0.905  23.983  0.00  0.00    +0.260 A 
ATOM     14  C   UNL     1      -3.682  -0.103  24.440  0.00  0.00    +0.053 A 
ATOM     15  C   UNL     1      -4.805   0.340  25.026  0.00  0.00    +0.016 A 
ATOM     20  H   UNL     1      -1.978   4.695  27.472  0.00  0.00    +0.122 HD
ENDROOT
BRANCH  14  16
ATOM      1  S   UNL     1      -1.923  -2.222  24.614  0.00  0.00    -0.096 S 
ATOM     16  C   UNL     1      -3.461  -1.548  24.261  0.00  0.00    +0.024 A 
ATOM     17  C   UNL     1      -4.350  -2.514  23.826  0.00  0.00    +0.016 A 
ATOM     18  C   UNL     1      -3.763  -3.811  23.783  0.00  0.00    +0.008 A 
ATOM     19  C   UNL     1      -2.445  -3.796  24.186  0.00  0.00    +0.046 A 
ENDBRANCH  14  16
TORSDOF 1
ENDMDL
MODEL 5
REMARK VINA RESULT:      -1.2     13.873     15.019
REMARK  Name = 11885192
REMARK  1 active torsions:
REMARK  status: ('A' for Active; 'I' for Inactive)
REMARK    1  A    between atoms: C_14  and  C_16
REMARK                            x       y       z     vdW  Elec       q    Type
REMARK                         _______ _______ _______ _____ _____    ______ ____
ROOT
ATOM      2  O   UNL     1       0.674  -1.903  24.058  0.00  0.00    -0.267 OA
ATOM      3  N   UNL     1      -1.379  -0.942  24.609  0.00  0.00    -0.311 N 
ATOM      4  N   UNL     1      -4.289  -1.458  23.381  0.00  0.00    -0.315 NA
ATOM      5  C   UNL     1      -3.339  -2.306  25.541  0.00  0.00    +0.023 C 
ATOM      6  C   UNL     1      -3.590   0.106  25.199  0.00  0.00    +0.050 C 
ATOM      7  C   UNL     1      -3.718  -1.005  26.239  0.00  0.00    +0.017 C 
ATOM      8  C   UNL     1      -1.864  -2.231  25.124  0.00  0.00    +0.130 C 
ATOM      9  C   UNL     1      -4.280  -2.557  24.346  0.00  0.00    +0.086 C 
ATOM     10  C   UNL     1      -4.555  -0.171  24.027  0.00  0.00    +0.090 C 
ATOM     11  C   UNL     1      -2.161   0.211  24.697  0.00  0.00    +0.026 A 
ATOM     12  C   UNL     1      -1.656   1.398  24.325  0.00  0.00    +0.022 A 
ATOM     13  C   UNL     1      -0.057  -0.912  24.120  0.00  0.00    +0.260 A 
ATOM     14  C   UNL     1       0.469   0.426  23.678  0.00  0.00    +0.053 A 
ATOM     15  C   UNL     1      -0.324   1.502  23.802  0.00  0.00    +0.016 A 
ATOM     20  H   UNL     1      -4.994  -1.635  22.667  0.00  0.00    +0.122 HD
ENDROOT
BRANCH  14  16
ATOM      1  S   UNL     1       2.245  -0.315  21.701  0.00  0.00    -0.096 S 
ATOM     16  C   UNL     1       1.821   0.566  23.111  0.00  0.00    +0.024 A 
ATOM     17  C   UNL     1       2.874   1.342  23.560  0.00  0.00    +0.016 A 
ATOM     18  C   UNL     1       4.032   1.211  22.741  0.00  0.00    +0.008 A 
ATOM     19  C   UNL     1       3.828   0.340  21.693  0.00  0.00    +0.046 A 
ENDBRANCH  14  16
TORSDOF 1
ENDMDL
MODEL 6
REMARK VINA RESULT:      -1.0     14.983     15.745
REMARK  Name = 11885192
REMARK  1 active torsions:
REMARK  status: ('A' for Active; 'I' for Inactive)
REMARK    1  A    between atoms: C_14  and  C_16
REMARK                            x       y       z     vdW  Elec       q    Type
REMARK                         _______ _______ _______ _____ _____    ______ ____
ROOT
ATOM      2  O   UNL     1      -1.725   2.695  22.907  0.00  0.00    -0.267 OA
ATOM      3  N   UNL     1      -3.546   1.896  24.125  0.00  0.00    -0.311 N 
ATOM      4  N   UNL     1      -5.005   3.128  26.694  0.00  0.00    -0.315 NA
ATOM      5  C   UNL     1      -5.760   3.176  24.303  0.00  0.00    +0.023 C 
ATOM      6  C   UNL     1      -5.505   1.023  25.442  0.00  0.00    +0.050 C 
ATOM      7  C   UNL     1      -6.377   1.791  24.451  0.00  0.00    +0.017 C 
ATOM      8  C   UNL     1      -4.366   3.032  23.678  0.00  0.00    +0.130 C 
ATOM      9  C   UNL     1      -5.723   3.886  25.671  0.00  0.00    +0.086 C 
ATOM     10  C   UNL     1      -5.505   1.754  26.801  0.00  0.00    +0.090 C 
ATOM     11  C   UNL     1      -4.089   0.881  24.915  0.00  0.00    +0.026 A 
ATOM     12  C   UNL     1      -3.356  -0.202  25.218  0.00  0.00    +0.022 A 
ATOM     13  C   UNL     1      -2.227   1.836  23.634  0.00  0.00    +0.260 A 
ATOM     14  C   UNL     1      -1.418   0.626  24.018  0.00  0.00    +0.053 A 
ATOM     15  C   UNL     1      -1.999  -0.324  24.767  0.00  0.00    +0.016 A 
ATOM     20  H   UNL     1      -5.094   3.596  27.594  0.00  0.00    +0.122 HD
ENDROOT
BRANCH  14  16
ATOM      1  S   UNL     1       1.147   1.640  24.097  0.00  0.00    -0.096 S 
ATOM     16  C   UNL     1      -0.014   0.480  23.597  0.00  0.00    +0.024 A 
ATOM     17  C   UNL     1       0.557  -0.504  22.811  0.00  0.00    +0.016 A 
ATOM     18  C   UNL     1       1.954  -0.302  22.621  0.00  0.00    +0.008 A 
ATOM     19  C   UNL     1       2.406   0.828  23.266  0.00  0.00    +0.046 A 
ENDBRANCH  14  16
TORSDOF 1
ENDMDL
