MODEL 1
REMARK VINA RESULT:      -4.4      0.000      0.000
REMARK  Name = 71693245
REMARK  6 active torsions:
REMARK  status: ('A' for Active; 'I' for Inactive)
REMARK    1  A    between atoms: S_1  and  N_8
REMARK    2  A    between atoms: S_1  and  C_20
REMARK    3  A    between atoms: O_3  and  C_12
REMARK    4  A    between atoms: N_8  and  C_17
REMARK    5  A    between atoms: CA_9  and  C_12
REMARK    6  A    between atoms: C_10  and  C_11
REMARK                            x       y       z     vdW  Elec       q    Type
REMARK                         _______ _______ _______ _____ _____    ______ ____
ROOT
ATOM     11  C   UNL     1      -1.830   1.141  24.757  0.00  0.00    -0.017 A 
ATOM     15  C   UNL     1      -1.350  -0.031  25.342  0.00  0.00    +0.008 A 
ATOM     16  C   UNL     1      -1.176   1.687  23.652  0.00  0.00    +0.008 A 
ATOM     17  C   UNL     1       0.436  -0.112  23.716  0.00  0.00    +0.048 A 
ATOM     18  C   UNL     1      -0.218  -0.658  24.822  0.00  0.00    +0.025 A 
ATOM     19  C   UNL     1      -0.044   1.060  23.131  0.00  0.00    +0.025 A 
ENDROOT
BRANCH  11  10
ATOM      2  O   UNL     1      -2.910   3.230  25.110  0.00  0.00    -0.361 OA
ATOM      4  O   UNL     1      -6.283   4.267  25.758  0.00  0.00    -0.273 OA
ATOM      7  N   UNL     1      -5.476   2.223  25.094  0.00  0.00    -0.306 N 
ATOM      9  CA  UNL     1      -4.369   1.386  24.642  0.00  0.00    +0.131 C 
ATOM     10  C   UNL     1      -3.060   1.820  25.319  0.00  0.00    +0.171 C 
ATOM     13  C   UNL     1      -3.904   3.963  25.796  0.00  0.00    +0.256 C 
ATOM     14  C   UNL     1      -5.330   3.521  25.530  0.00  0.00    +0.239 C 
ATOM     21  H   UNL     1      -6.421   1.899  24.908  0.00  0.00    +0.149 HD
BRANCH   9  12
ATOM     12  C   UNL     1      -4.699  -0.084  24.894  0.00  0.00    +0.181 C 
BRANCH  12   3
ATOM      3  O   UNL     1      -4.345  -0.827  23.742  0.00  0.00    -0.393 OA
ATOM     22  H   UNL     1      -4.945  -0.553  23.028  0.00  0.00    +0.209 HD
ENDBRANCH  12   3
ENDBRANCH   9  12
ENDBRANCH  11  10
BRANCH  17   8
ATOM      8  N   UNL     1       1.595  -0.754  23.185  0.00  0.00    -0.221 N 
ATOM     23  H   UNL     1       1.858  -1.616  23.680  0.00  0.00    +0.173 HD
BRANCH   8   1
ATOM      1  S   UNL     1       2.914   0.234  22.685  0.00  0.00    +0.040 S 
ATOM      5  O   UNL     1       3.052   0.119  21.245  0.00  0.00    -0.155 OA
ATOM      6  O   UNL     1       2.855   1.536  23.318  0.00  0.00    -0.155 OA
ATOM     20  C   UNL     1       4.270  -0.664  23.406  0.00  0.00    +0.218 C 
ENDBRANCH   8   1
ENDBRANCH  17   8
TORSDOF 5
ENDMDL
MODEL 2
REMARK VINA RESULT:      -3.5      1.186      2.442
REMARK  Name = 71693245
REMARK  6 active torsions:
REMARK  status: ('A' for Active; 'I' for Inactive)
REMARK    1  A    between atoms: S_1  and  N_8
REMARK    2  A    between atoms: S_1  and  C_20
REMARK    3  A    between atoms: O_3  and  C_12
REMARK    4  A    between atoms: N_8  and  C_17
REMARK    5  A    between atoms: CA_9  and  C_12
REMARK    6  A    between atoms: C_10  and  C_11
REMARK                            x       y       z     vdW  Elec       q    Type
REMARK                         _______ _______ _______ _____ _____    ______ ____
ROOT
ATOM     11  C   UNL     1      -1.749   1.168  24.196  0.00  0.00    -0.017 A 
ATOM     15  C   UNL     1      -0.657   1.981  23.893  0.00  0.00    +0.008 A 
ATOM     16  C   UNL     1      -1.593  -0.217  24.255  0.00  0.00    +0.008 A 
ATOM     17  C   UNL     1       0.748   0.024  23.708  0.00  0.00    +0.048 A 
ATOM     18  C   UNL     1       0.592   1.409  23.648  0.00  0.00    +0.025 A 
ATOM     19  C   UNL     1      -0.345  -0.789  24.011  0.00  0.00    +0.025 A 
ENDROOT
BRANCH  11  10
ATOM      2  O   UNL     1      -3.881   0.833  25.196  0.00  0.00    -0.361 OA
ATOM      4  O   UNL     1      -6.530   2.982  26.308  0.00  0.00    -0.273 OA
ATOM      7  N   UNL     1      -4.383   3.500  25.682  0.00  0.00    -0.306 N 
ATOM      9  CA  UNL     1      -3.040   3.076  25.299  0.00  0.00    +0.131 C 
ATOM     10  C   UNL     1      -3.104   1.788  24.463  0.00  0.00    +0.171 C 
ATOM     13  C   UNL     1      -5.232   1.236  25.299  0.00  0.00    +0.256 C 
ATOM     14  C   UNL     1      -5.447   2.639  25.834  0.00  0.00    +0.239 C 
ATOM     21  H   UNL     1      -4.499   4.447  26.030  0.00  0.00    +0.149 HD
BRANCH   9  12
ATOM     12  C   UNL     1      -2.329   4.214  24.568  0.00  0.00    +0.181 C 
BRANCH  12   3
ATOM      3  O   UNL     1      -1.619   4.984  25.519  0.00  0.00    -0.393 OA
ATOM     22  H   UNL     1      -0.958   4.399  25.927  0.00  0.00    +0.209 HD
ENDBRANCH  12   3
ENDBRANCH   9  12
ENDBRANCH  11  10
BRANCH  17   8
ATOM      8  N   UNL     1       2.026  -0.561  23.458  0.00  0.00    -0.221 N 
ATOM     23  H   UNL     1       2.381  -1.134  24.235  0.00  0.00    +0.173 HD
BRANCH   8   1
ATOM      1  S   UNL     1       3.212   0.392  22.650  0.00  0.00    +0.040 S 
ATOM      5  O   UNL     1       3.140   0.104  21.229  0.00  0.00    -0.155 OA
ATOM      6  O   UNL     1       3.191   1.759  23.127  0.00  0.00    -0.155 OA
ATOM     20  C   UNL     1       4.698  -0.376  23.256  0.00  0.00    +0.218 C 
ENDBRANCH   8   1
ENDBRANCH  17   8
TORSDOF 5
ENDMDL
MODEL 3
REMARK VINA RESULT:      -3.4      2.001      2.552
REMARK  Name = 71693245
REMARK  6 active torsions:
REMARK  status: ('A' for Active; 'I' for Inactive)
REMARK    1  A    between atoms: S_1  and  N_8
REMARK    2  A    between atoms: S_1  and  C_20
REMARK    3  A    between atoms: O_3  and  C_12
REMARK    4  A    between atoms: N_8  and  C_17
REMARK    5  A    between atoms: CA_9  and  C_12
REMARK    6  A    between atoms: C_10  and  C_11
REMARK                            x       y       z     vdW  Elec       q    Type
REMARK                         _______ _______ _______ _____ _____    ______ ____
ROOT
ATOM     11  C   UNL     1      -0.200   0.893  23.945  0.00  0.00    -0.017 A 
ATOM     15  C   UNL     1       0.762   1.871  24.195  0.00  0.00    +0.008 A 
ATOM     16  C   UNL     1       0.117  -0.212  23.155  0.00  0.00    +0.008 A 
ATOM     17  C   UNL     1       2.360   0.639  22.865  0.00  0.00    +0.048 A 
ATOM     18  C   UNL     1       2.042   1.745  23.655  0.00  0.00    +0.025 A 
ATOM     19  C   UNL     1       1.397  -0.340  22.615  0.00  0.00    +0.025 A 
ENDROOT
BRANCH  11  10
ATOM      2  O   UNL     1      -2.266   2.064  23.809  0.00  0.00    -0.361 OA
ATOM      4  O   UNL     1      -5.622   1.429  24.905  0.00  0.00    -0.273 OA
ATOM      7  N   UNL     1      -3.813   0.018  24.819  0.00  0.00    -0.306 N 
ATOM      9  CA  UNL     1      -2.435  -0.249  24.419  0.00  0.00    +0.131 C 
ATOM     10  C   UNL     1      -1.589   1.029  24.532  0.00  0.00    +0.171 C 
ATOM     13  C   UNL     1      -3.488   2.413  24.427  0.00  0.00    +0.256 C 
ATOM     14  C   UNL     1      -4.419   1.250  24.715  0.00  0.00    +0.239 C 
ATOM     21  H   UNL     1      -4.413  -0.779  25.012  0.00  0.00    +0.149 HD
BRANCH   9  12
ATOM     12  C   UNL     1      -1.871  -1.400  25.249  0.00  0.00    +0.181 C 
BRANCH  12   3
ATOM      3  O   UNL     1      -2.062  -2.606  24.533  0.00  0.00    -0.393 OA
ATOM     22  H   UNL     1      -2.437  -3.252  25.154  0.00  0.00    +0.209 HD
ENDBRANCH  12   3
ENDBRANCH   9  12
ENDBRANCH  11  10
BRANCH  17   8
ATOM      8  N   UNL     1       3.670   0.509  22.313  0.00  0.00    -0.221 N 
ATOM     23  H   UNL     1       3.685   0.107  21.367  0.00  0.00    +0.173 HD
BRANCH   8   1
ATOM      1  S   UNL     1       4.942  -0.014  23.351  0.00  0.00    +0.040 S 
ATOM      5  O   UNL     1       6.113  -0.285  22.538  0.00  0.00    -0.155 OA
ATOM      6  O   UNL     1       5.037   0.834  24.521  0.00  0.00    -0.155 OA
ATOM     20  C   UNL     1       4.298  -1.589  23.868  0.00  0.00    +0.218 C 
ENDBRANCH   8   1
ENDBRANCH  17   8
TORSDOF 5
ENDMDL
MODEL 4
REMARK VINA RESULT:      -3.4      2.921      7.135
REMARK  Name = 71693245
REMARK  6 active torsions:
REMARK  status: ('A' for Active; 'I' for Inactive)
REMARK    1  A    between atoms: S_1  and  N_8
REMARK    2  A    between atoms: S_1  and  C_20
REMARK    3  A    between atoms: O_3  and  C_12
REMARK    4  A    between atoms: N_8  and  C_17
REMARK    5  A    between atoms: CA_9  and  C_12
REMARK    6  A    between atoms: C_10  and  C_11
REMARK                            x       y       z     vdW  Elec       q    Type
REMARK                         _______ _______ _______ _____ _____    ______ ____
ROOT
ATOM     11  C   UNL     1      -1.268   0.402  24.329  0.00  0.00    -0.017 A 
ATOM     15  C   UNL     1      -2.104   1.128  23.481  0.00  0.00    +0.008 A 
ATOM     16  C   UNL     1      -1.814  -0.373  25.351  0.00  0.00    +0.008 A 
ATOM     17  C   UNL     1      -4.034   0.303  24.678  0.00  0.00    +0.048 A 
ATOM     18  C   UNL     1      -3.487   1.079  23.655  0.00  0.00    +0.025 A 
ATOM     19  C   UNL     1      -3.198  -0.423  25.526  0.00  0.00    +0.025 A 
ENDROOT
BRANCH  11  10
ATOM      2  O   UNL     1       0.556  -0.364  23.007  0.00  0.00    -0.361 OA
ATOM      4  O   UNL     1       3.923   0.738  22.446  0.00  0.00    -0.273 OA
ATOM      7  N   UNL     1       2.183   1.807  23.494  0.00  0.00    -0.306 N 
ATOM      9  CA  UNL     1       0.772   1.866  23.862  0.00  0.00    +0.131 C 
ATOM     10  C   UNL     1       0.233   0.453  24.139  0.00  0.00    +0.171 C 
ATOM     13  C   UNL     1       1.950  -0.553  22.887  0.00  0.00    +0.256 C 
ATOM     14  C   UNL     1       2.777   0.719  22.894  0.00  0.00    +0.239 C 
ATOM     21  H   UNL     1       2.714   2.673  23.514  0.00  0.00    +0.149 HD
BRANCH   9  12
ATOM     12  C   UNL     1       0.589   2.806  25.051  0.00  0.00    +0.181 C 
BRANCH  12   3
ATOM      3  O   UNL     1       0.745   2.059  26.243  0.00  0.00    -0.393 OA
ATOM     22  H   UNL     1      -0.120   2.038  26.685  0.00  0.00    +0.209 HD
ENDBRANCH  12   3
ENDBRANCH   9  12
ENDBRANCH  11  10
BRANCH  17   8
ATOM      8  N   UNL     1      -5.450   0.253  24.855  0.00  0.00    -0.221 N 
ATOM     23  H   UNL     1      -5.949  -0.224  24.093  0.00  0.00    +0.173 HD
BRANCH   8   1
ATOM      1  S   UNL     1      -6.240   1.647  25.488  0.00  0.00    +0.040 S 
ATOM      5  O   UNL     1      -7.261   2.062  24.544  0.00  0.00    -0.155 OA
ATOM      6  O   UNL     1      -6.560   1.470  26.889  0.00  0.00    -0.155 OA
ATOM     20  C   UNL     1      -4.920   2.834  25.374  0.00  0.00    +0.218 C 
ENDBRANCH   8   1
ENDBRANCH  17   8
TORSDOF 5
ENDMDL
MODEL 5
REMARK VINA RESULT:      -2.3      2.314      3.424
REMARK  Name = 71693245
REMARK  6 active torsions:
REMARK  status: ('A' for Active; 'I' for Inactive)
REMARK    1  A    between atoms: S_1  and  N_8
REMARK    2  A    between atoms: S_1  and  C_20
REMARK    3  A    between atoms: O_3  and  C_12
REMARK    4  A    between atoms: N_8  and  C_17
REMARK    5  A    between atoms: CA_9  and  C_12
REMARK    6  A    between atoms: C_10  and  C_11
REMARK                            x       y       z     vdW  Elec       q    Type
REMARK                         _______ _______ _______ _____ _____    ______ ____
ROOT
ATOM     11  C   UNL     1       0.041   0.635  23.362  0.00  0.00    -0.017 A 
ATOM     15  C   UNL     1       0.909   1.548  23.962  0.00  0.00    +0.008 A 
ATOM     16  C   UNL     1       0.532  -0.293  22.444  0.00  0.00    +0.008 A 
ATOM     17  C   UNL     1       2.758   0.603  22.726  0.00  0.00    +0.048 A 
ATOM     18  C   UNL     1       2.267   1.533  23.644  0.00  0.00    +0.025 A 
ATOM     19  C   UNL     1       1.890  -0.310  22.126  0.00  0.00    +0.025 A 
ENDROOT
BRANCH  11  10
ATOM      2  O   UNL     1      -1.735  -0.584  24.372  0.00  0.00    -0.361 OA
ATOM      4  O   UNL     1      -4.951   0.262  25.716  0.00  0.00    -0.273 OA
ATOM      7  N   UNL     1      -3.213   1.627  25.095  0.00  0.00    -0.306 N 
ATOM      9  CA  UNL     1      -1.834   1.796  24.650  0.00  0.00    +0.131 C 
ATOM     10  C   UNL     1      -1.432   0.650  23.708  0.00  0.00    +0.171 C 
ATOM     13  C   UNL     1      -3.127  -0.754  24.536  0.00  0.00    +0.256 C 
ATOM     14  C   UNL     1      -3.846   0.409  25.193  0.00  0.00    +0.239 C 
ATOM     21  H   UNL     1      -3.673   2.425  25.525  0.00  0.00    +0.149 HD
BRANCH   9  12
ATOM     12  C   UNL     1      -1.664   3.170  24.006  0.00  0.00    +0.181 C 
BRANCH  12   3
ATOM      3  O   UNL     1      -1.215   4.078  24.995  0.00  0.00    -0.393 OA
ATOM     22  H   UNL     1      -2.001   4.521  25.356  0.00  0.00    +0.209 HD
ENDBRANCH  12   3
ENDBRANCH   9  12
ENDBRANCH  11  10
BRANCH  17   8
ATOM      8  N   UNL     1       4.148   0.588  22.401  0.00  0.00    -0.221 N 
ATOM     23  H   UNL     1       4.345   0.334  21.424  0.00  0.00    +0.173 HD
BRANCH   8   1
ATOM      1  S   UNL     1       5.247  -0.058  23.560  0.00  0.00    +0.040 S 
ATOM      5  O   UNL     1       6.496  -0.361  22.887  0.00  0.00    -0.155 OA
ATOM      6  O   UNL     1       5.237   0.728  24.777  0.00  0.00    -0.155 OA
ATOM     20  C   UNL     1       4.458  -1.614  23.908  0.00  0.00    +0.218 C 
ENDBRANCH   8   1
ENDBRANCH  17   8
TORSDOF 5
ENDMDL
MODEL 6
REMARK VINA RESULT:      -2.2      2.727      6.955
REMARK  Name = 71693245
REMARK  6 active torsions:
REMARK  status: ('A' for Active; 'I' for Inactive)
REMARK    1  A    between atoms: S_1  and  N_8
REMARK    2  A    between atoms: S_1  and  C_20
REMARK    3  A    between atoms: O_3  and  C_12
REMARK    4  A    between atoms: N_8  and  C_17
REMARK    5  A    between atoms: CA_9  and  C_12
REMARK    6  A    between atoms: C_10  and  C_11
REMARK                            x       y       z     vdW  Elec       q    Type
REMARK                         _______ _______ _______ _____ _____    ______ ____
ROOT
ATOM     11  C   UNL     1      -0.940   1.579  23.580  0.00  0.00    -0.017 A 
ATOM     15  C   UNL     1      -0.899   2.399  24.708  0.00  0.00    +0.008 A 
ATOM     16  C   UNL     1      -2.054   1.602  22.741  0.00  0.00    +0.008 A 
ATOM     17  C   UNL     1      -3.085   3.268  24.156  0.00  0.00    +0.048 A 
ATOM     18  C   UNL     1      -1.971   3.244  24.996  0.00  0.00    +0.025 A 
ATOM     19  C   UNL     1      -3.127   2.446  23.028  0.00  0.00    +0.025 A 
ENDROOT
BRANCH  11  10
ATOM      2  O   UNL     1       1.427   1.431  23.397  0.00  0.00    -0.361 OA
ATOM      4  O   UNL     1       3.814  -1.246  23.435  0.00  0.00    -0.273 OA
ATOM      7  N   UNL     1       1.584  -1.259  23.977  0.00  0.00    -0.306 N 
ATOM      9  CA  UNL     1       0.335  -0.541  24.214  0.00  0.00    +0.131 C 
ATOM     10  C   UNL     1       0.224   0.664  23.266  0.00  0.00    +0.171 C 
ATOM     13  C   UNL     1       2.548   0.722  22.911  0.00  0.00    +0.256 C 
ATOM     14  C   UNL     1       2.726  -0.672  23.482  0.00  0.00    +0.239 C 
ATOM     21  H   UNL     1       1.674  -2.194  24.365  0.00  0.00    +0.149 HD
BRANCH   9  12
ATOM     12  C   UNL     1      -0.844  -1.502  24.080  0.00  0.00    +0.181 C 
BRANCH  12   3
ATOM      3  O   UNL     1      -1.612  -1.438  25.268  0.00  0.00    -0.393 OA
ATOM     22  H   UNL     1      -2.145  -0.626  25.222  0.00  0.00    +0.209 HD
ENDBRANCH  12   3
ENDBRANCH   9  12
ENDBRANCH  11  10
BRANCH  17   8
ATOM      8  N   UNL     1      -4.182   4.132  24.451  0.00  0.00    -0.221 N 
ATOM     23  H   UNL     1      -3.939   5.131  24.446  0.00  0.00    +0.173 HD
BRANCH   8   1
ATOM      1  S   UNL     1      -5.284   3.654  25.686  0.00  0.00    +0.040 S 
ATOM      5  O   UNL     1      -4.523   3.344  26.883  0.00  0.00    -0.155 OA
ATOM      6  O   UNL     1      -6.417   4.555  25.746  0.00  0.00    -0.155 OA
ATOM     20  C   UNL     1      -5.851   2.105  25.020  0.00  0.00    +0.218 C 
ENDBRANCH   8   1
ENDBRANCH  17   8
TORSDOF 5
ENDMDL
MODEL 7
REMARK VINA RESULT:      -0.8      2.750      7.057
REMARK  Name = 71693245
REMARK  6 active torsions:
REMARK  status: ('A' for Active; 'I' for Inactive)
REMARK    1  A    between atoms: S_1  and  N_8
REMARK    2  A    between atoms: S_1  and  C_20
REMARK    3  A    between atoms: O_3  and  C_12
REMARK    4  A    between atoms: N_8  and  C_17
REMARK    5  A    between atoms: CA_9  and  C_12
REMARK    6  A    between atoms: C_10  and  C_11
REMARK                            x       y       z     vdW  Elec       q    Type
REMARK                         _______ _______ _______ _____ _____    ______ ____
ROOT
ATOM     11  C   UNL     1      -0.778   1.517  23.708  0.00  0.00    -0.017 A 
ATOM     15  C   UNL     1      -1.895   1.521  22.872  0.00  0.00    +0.008 A 
ATOM     16  C   UNL     1      -0.886   1.979  25.019  0.00  0.00    +0.008 A 
ATOM     17  C   UNL     1      -3.230   2.447  24.661  0.00  0.00    +0.048 A 
ATOM     18  C   UNL     1      -3.121   1.986  23.349  0.00  0.00    +0.025 A 
ATOM     19  C   UNL     1      -2.112   2.444  25.497  0.00  0.00    +0.025 A 
ENDROOT
BRANCH  11  10
ATOM      2  O   UNL     1       1.566   1.919  23.644  0.00  0.00    -0.361 OA
ATOM      4  O   UNL     1       4.467  -0.082  22.971  0.00  0.00    -0.273 OA
ATOM      7  N   UNL     1       2.292  -0.722  23.332  0.00  0.00    -0.306 N 
ATOM      9  CA  UNL     1       0.921  -0.390  23.704  0.00  0.00    +0.131 C 
ATOM     10  C   UNL     1       0.552   1.012  23.192  0.00  0.00    +0.171 C 
ATOM     13  C   UNL     1       2.810   1.651  23.029  0.00  0.00    +0.256 C 
ATOM     14  C   UNL     1       3.282   0.213  23.129  0.00  0.00    +0.239 C 
ATOM     21  H   UNL     1       2.580  -1.694  23.402  0.00  0.00    +0.149 HD
BRANCH   9  12
ATOM     12  C   UNL     1      -0.029  -1.469  23.190  0.00  0.00    +0.181 C 
BRANCH  12   3
ATOM      3  O   UNL     1      -0.920  -1.819  24.233  0.00  0.00    -0.393 OA
ATOM     22  H   UNL     1      -0.951  -2.789  24.271  0.00  0.00    +0.209 HD
ENDBRANCH  12   3
ENDBRANCH   9  12
ENDBRANCH  11  10
BRANCH  17   8
ATOM      8  N   UNL     1      -4.485   2.922  25.148  0.00  0.00    -0.221 N 
ATOM     23  H   UNL     1      -4.403   3.650  25.870  0.00  0.00    +0.173 HD
BRANCH   8   1
ATOM      1  S   UNL     1      -5.744   1.776  25.405  0.00  0.00    +0.040 S 
ATOM      5  O   UNL     1      -6.820   2.061  24.472  0.00  0.00    -0.155 OA
ATOM      6  O   UNL     1      -5.209   0.435  25.523  0.00  0.00    -0.155 OA
ATOM     20  C   UNL     1      -6.309   2.284  27.013  0.00  0.00    +0.218 C 
ENDBRANCH   8   1
ENDBRANCH  17   8
TORSDOF 5
ENDMDL
