MODEL 1
REMARK VINA RESULT:      -5.7      0.000      0.000
REMARK  Name = 75536968
REMARK  3 active torsions:
REMARK  status: ('A' for Active; 'I' for Inactive)
REMARK    1  A    between atoms: N_6  and  C_14
REMARK    2  A    between atoms: C_14  and  C_15
REMARK    3  A    between atoms: C_14  and  C_16
REMARK                            x       y       z     vdW  Elec       q    Type
REMARK                         _______ _______ _______ _____ _____    ______ ____
ROOT
ATOM      1  O   UNL     1      -6.240   1.966  25.499  0.00  0.00    -0.253 OA
ATOM      2  O   UNL     1      -0.422  -1.537  24.133  0.00  0.00    -0.253 OA
ATOM      3  N   UNL     1      -4.026   1.544  24.820  0.00  0.00    -0.278 N 
ATOM      4  N   UNL     1      -1.491   0.398  24.825  0.00  0.00    -0.282 N 
ATOM      5  N   UNL     1      -4.714   3.676  24.996  0.00  0.00    -0.297 N 
ATOM      6  N   UNL     1       0.561   0.478  23.653  0.00  0.00    -0.297 N 
ATOM      7  C   UNL     1      -2.911   2.334  24.326  0.00  0.00    +0.112 C 
ATOM      8  C   UNL     1      -1.609   1.865  24.967  0.00  0.00    +0.133 C 
ATOM      9  C   UNL     1      -3.940   0.094  24.827  0.00  0.00    +0.128 C 
ATOM     10  C   UNL     1      -3.312   3.768  24.663  0.00  0.00    +0.129 C 
ATOM     11  C   UNL     1      -2.607  -0.349  25.429  0.00  0.00    +0.128 C 
ATOM     12  C   UNL     1      -5.130   2.339  25.145  0.00  0.00    +0.303 C 
ATOM     13  C   UNL     1      -0.449  -0.304  24.201  0.00  0.00    +0.303 C 
ATOM     17  H   UNL     1      -5.311   4.476  25.183  0.00  0.00    +0.150 HD
ATOM     18  H   UNL     1       0.466   1.482  23.588  0.00  0.00    +0.150 HD
ENDROOT
BRANCH   6  14
ATOM     14  C   UNL     1       1.697  -0.104  22.975  0.00  0.00    +0.068 C 
ATOM     15  C   UNL     1       1.342  -0.443  21.533  0.00  0.00    +0.027 C 
ATOM     16  C   UNL     1       2.893   0.836  23.043  0.00  0.00    +0.027 C 
ENDBRANCH   6  14
TORSDOF 1
ENDMDL
MODEL 2
REMARK VINA RESULT:      -4.3      1.607      2.124
REMARK  Name = 75536968
REMARK  3 active torsions:
REMARK  status: ('A' for Active; 'I' for Inactive)
REMARK    1  A    between atoms: N_6  and  C_14
REMARK    2  A    between atoms: C_14  and  C_15
REMARK    3  A    between atoms: C_14  and  C_16
REMARK                            x       y       z     vdW  Elec       q    Type
REMARK                         _______ _______ _______ _____ _____    ______ ____
ROOT
ATOM      1  O   UNL     1      -4.569   2.659  25.027  0.00  0.00    -0.253 OA
ATOM      2  O   UNL     1       1.178  -0.585  22.922  0.00  0.00    -0.253 OA
ATOM      3  N   UNL     1      -2.311   2.316  24.460  0.00  0.00    -0.278 N 
ATOM      4  N   UNL     1       0.133   1.006  24.243  0.00  0.00    -0.282 N 
ATOM      5  N   UNL     1      -2.898   4.254  25.434  0.00  0.00    -0.297 N 
ATOM      6  N   UNL     1       2.326   1.336  23.423  0.00  0.00    -0.297 N 
ATOM      7  C   UNL     1      -1.097   3.117  24.453  0.00  0.00    +0.112 C 
ATOM      8  C   UNL     1       0.079   2.293  24.968  0.00  0.00    +0.133 C 
ATOM      9  C   UNL     1      -2.306   0.988  23.874  0.00  0.00    +0.128 C 
ATOM     10  C   UNL     1      -1.460   4.325  25.311  0.00  0.00    +0.129 C 
ATOM     11  C   UNL     1      -1.093   0.201  24.368  0.00  0.00    +0.128 C 
ATOM     12  C   UNL     1      -3.403   3.024  24.973  0.00  0.00    +0.303 C 
ATOM     13  C   UNL     1       1.211   0.511  23.493  0.00  0.00    +0.303 C 
ATOM     17  H   UNL     1      -3.470   4.969  25.876  0.00  0.00    +0.150 HD
ATOM     18  H   UNL     1       2.296   2.284  23.771  0.00  0.00    +0.150 HD
ENDROOT
BRANCH   6  14
ATOM     14  C   UNL     1       3.509   0.961  22.681  0.00  0.00    +0.068 C 
ATOM     15  C   UNL     1       4.520   0.281  23.595  0.00  0.00    +0.027 C 
ATOM     16  C   UNL     1       3.136   0.067  21.507  0.00  0.00    +0.027 C 
ENDBRANCH   6  14
TORSDOF 1
ENDMDL
MODEL 3
REMARK VINA RESULT:      -4.1      1.824      2.728
REMARK  Name = 75536968
REMARK  3 active torsions:
REMARK  status: ('A' for Active; 'I' for Inactive)
REMARK    1  A    between atoms: N_6  and  C_14
REMARK    2  A    between atoms: C_14  and  C_15
REMARK    3  A    between atoms: C_14  and  C_16
REMARK                            x       y       z     vdW  Elec       q    Type
REMARK                         _______ _______ _______ _____ _____    ______ ____
ROOT
ATOM      1  O   UNL     1      -6.119   4.800  26.051  0.00  0.00    -0.253 OA
ATOM      2  O   UNL     1       0.215   2.353  24.684  0.00  0.00    -0.253 OA
ATOM      3  N   UNL     1      -4.420   3.283  25.459  0.00  0.00    -0.278 N 
ATOM      4  N   UNL     1      -2.070   2.352  24.300  0.00  0.00    -0.282 N 
ATOM      5  N   UNL     1      -6.564   2.646  25.235  0.00  0.00    -0.297 N 
ATOM      6  N   UNL     1      -0.785   0.379  24.085  0.00  0.00    -0.297 N 
ATOM      7  C   UNL     1      -4.351   1.885  25.065  0.00  0.00    +0.112 C 
ATOM      8  C   UNL     1      -3.348   1.707  23.931  0.00  0.00    +0.133 C 
ATOM      9  C   UNL     1      -3.199   4.023  25.722  0.00  0.00    +0.128 C 
ATOM     10  C   UNL     1      -5.795   1.544  24.705  0.00  0.00    +0.129 C 
ATOM     11  C   UNL     1      -2.192   3.789  24.596  0.00  0.00    +0.128 C 
ATOM     12  C   UNL     1      -5.740   3.714  25.637  0.00  0.00    +0.303 C 
ATOM     13  C   UNL     1      -0.810   1.737  24.375  0.00  0.00    +0.303 C 
ATOM     17  H   UNL     1      -7.579   2.684  25.241  0.00  0.00    +0.150 HD
ATOM     18  H   UNL     1      -1.641  -0.146  23.971  0.00  0.00    +0.150 HD
ENDROOT
BRANCH   6  14
ATOM     14  C   UNL     1       0.439  -0.390  24.127  0.00  0.00    +0.068 C 
ATOM     15  C   UNL     1       0.166  -1.802  24.627  0.00  0.00    +0.027 C 
ATOM     16  C   UNL     1       1.100  -0.407  22.755  0.00  0.00    +0.027 C 
ENDBRANCH   6  14
TORSDOF 1
ENDMDL
MODEL 4
REMARK VINA RESULT:      -4.0      2.625      4.156
REMARK  Name = 75536968
REMARK  3 active torsions:
REMARK  status: ('A' for Active; 'I' for Inactive)
REMARK    1  A    between atoms: N_6  and  C_14
REMARK    2  A    between atoms: C_14  and  C_15
REMARK    3  A    between atoms: C_14  and  C_16
REMARK                            x       y       z     vdW  Elec       q    Type
REMARK                         _______ _______ _______ _____ _____    ______ ____
ROOT
ATOM      1  O   UNL     1      -0.564   5.640  25.068  0.00  0.00    -0.253 OA
ATOM      2  O   UNL     1      -0.495  -1.262  24.483  0.00  0.00    -0.253 OA
ATOM      3  N   UNL     1      -1.361   3.433  24.887  0.00  0.00    -0.278 N 
ATOM      4  N   UNL     1      -1.483   0.787  24.040  0.00  0.00    -0.282 N 
ATOM      5  N   UNL     1      -2.831   5.127  24.747  0.00  0.00    -0.297 N 
ATOM      6  N   UNL     1      -2.781  -1.171  24.315  0.00  0.00    -0.297 N 
ATOM      7  C   UNL     1      -2.662   2.789  24.821  0.00  0.00    +0.112 C 
ATOM      8  C   UNL     1      -2.643   1.668  23.788  0.00  0.00    +0.133 C 
ATOM      9  C   UNL     1      -0.159   2.628  25.013  0.00  0.00    +0.128 C 
ATOM     10  C   UNL     1      -3.615   3.939  24.504  0.00  0.00    +0.129 C 
ATOM     11  C   UNL     1      -0.186   1.484  24.000  0.00  0.00    +0.128 C 
ATOM     12  C   UNL     1      -1.467   4.828  24.923  0.00  0.00    +0.303 C 
ATOM     13  C   UNL     1      -1.517  -0.594  24.290  0.00  0.00    +0.303 C 
ATOM     17  H   UNL     1      -3.200   6.073  24.714  0.00  0.00    +0.150 HD
ATOM     18  H   UNL     1      -3.615  -0.601  24.297  0.00  0.00    +0.150 HD
ENDROOT
BRANCH   6  14
ATOM     14  C   UNL     1      -2.972  -2.581  24.567  0.00  0.00    +0.068 C 
ATOM     15  C   UNL     1      -3.185  -2.835  26.053  0.00  0.00    +0.027 C 
ATOM     16  C   UNL     1      -4.138  -3.112  23.743  0.00  0.00    +0.027 C 
ENDBRANCH   6  14
TORSDOF 1
ENDMDL
MODEL 5
REMARK VINA RESULT:      -3.9      1.976      6.229
REMARK  Name = 75536968
REMARK  3 active torsions:
REMARK  status: ('A' for Active; 'I' for Inactive)
REMARK    1  A    between atoms: N_6  and  C_14
REMARK    2  A    between atoms: C_14  and  C_15
REMARK    3  A    between atoms: C_14  and  C_16
REMARK                            x       y       z     vdW  Elec       q    Type
REMARK                         _______ _______ _______ _____ _____    ______ ____
ROOT
ATOM      1  O   UNL     1       2.522   1.429  23.318  0.00  0.00    -0.253 OA
ATOM      2  O   UNL     1      -3.501   4.048  25.520  0.00  0.00    -0.253 OA
ATOM      3  N   UNL     1       0.252   1.528  23.933  0.00  0.00    -0.278 N 
ATOM      4  N   UNL     1      -2.011   2.280  25.364  0.00  0.00    -0.282 N 
ATOM      5  N   UNL     1       1.172  -0.480  23.518  0.00  0.00    -0.297 N 
ATOM      6  N   UNL     1      -4.347   1.918  25.428  0.00  0.00    -0.297 N 
ATOM      7  C   UNL     1      -0.855   0.590  24.016  0.00  0.00    +0.112 C 
ATOM      8  C   UNL     1      -1.667   0.845  25.281  0.00  0.00    +0.133 C 
ATOM      9  C   UNL     1       0.015   2.948  24.124  0.00  0.00    +0.128 C 
ATOM     10  C   UNL     1      -0.173  -0.774  23.954  0.00  0.00    +0.129 C 
ATOM     11  C   UNL     1      -0.840   3.173  25.371  0.00  0.00    +0.128 C 
ATOM     12  C   UNL     1       1.445   0.900  23.559  0.00  0.00    +0.303 C 
ATOM     13  C   UNL     1      -3.299   2.831  25.445  0.00  0.00    +0.303 C 
ATOM     17  H   UNL     1       1.866  -1.185  23.289  0.00  0.00    +0.150 HD
ATOM     18  H   UNL     1      -4.185   0.941  25.226  0.00  0.00    +0.150 HD
ENDROOT
BRANCH   6  14
ATOM     14  C   UNL     1      -5.728   2.338  25.498  0.00  0.00    +0.068 C 
ATOM     15  C   UNL     1      -6.546   1.672  24.399  0.00  0.00    +0.027 C 
ATOM     16  C   UNL     1      -6.304   2.036  26.875  0.00  0.00    +0.027 C 
ENDBRANCH   6  14
TORSDOF 1
ENDMDL
MODEL 6
REMARK VINA RESULT:      -3.9     15.387     16.953
REMARK  Name = 75536968
REMARK  3 active torsions:
REMARK  status: ('A' for Active; 'I' for Inactive)
REMARK    1  A    between atoms: N_6  and  C_14
REMARK    2  A    between atoms: C_14  and  C_15
REMARK    3  A    between atoms: C_14  and  C_16
REMARK                            x       y       z     vdW  Elec       q    Type
REMARK                         _______ _______ _______ _____ _____    ______ ____
ROOT
ATOM      1  O   UNL     1      -6.469  -8.047   8.232  0.00  0.00    -0.253 OA
ATOM      2  O   UNL     1      -1.519 -10.344  12.499  0.00  0.00    -0.253 OA
ATOM      3  N   UNL     1      -5.441  -8.836  10.197  0.00  0.00    -0.278 N 
ATOM      4  N   UNL     1      -3.728 -10.329  11.801  0.00  0.00    -0.282 N 
ATOM      5  N   UNL     1      -7.680  -8.654  10.148  0.00  0.00    -0.297 N 
ATOM      6  N   UNL     1      -3.157 -10.652  14.073  0.00  0.00    -0.297 N 
ATOM      7  C   UNL     1      -5.867  -9.158  11.548  0.00  0.00    +0.112 C 
ATOM      8  C   UNL     1      -5.185 -10.437  12.025  0.00  0.00    +0.133 C 
ATOM      9  C   UNL     1      -4.027  -8.828   9.866  0.00  0.00    +0.128 C 
ATOM     10  C   UNL     1      -7.387  -9.246  11.432  0.00  0.00    +0.129 C 
ATOM     11  C   UNL     1      -3.357 -10.096  10.396  0.00  0.00    +0.128 C 
ATOM     12  C   UNL     1      -6.514  -8.459   9.383  0.00  0.00    +0.303 C 
ATOM     13  C   UNL     1      -2.720 -10.437  12.772  0.00  0.00    +0.303 C 
ATOM     17  H   UNL     1      -8.618  -8.475   9.801  0.00  0.00    +0.150 HD
ATOM     18  H   UNL     1      -4.137 -10.589  14.312  0.00  0.00    +0.150 HD
ENDROOT
BRANCH   6  14
ATOM     14  C   UNL     1      -2.235 -10.779  15.179  0.00  0.00    +0.068 C 
ATOM     15  C   UNL     1      -1.183  -9.679  15.127  0.00  0.00    +0.027 C 
ATOM     16  C   UNL     1      -2.990 -10.759  16.502  0.00  0.00    +0.027 C 
ENDBRANCH   6  14
TORSDOF 1
ENDMDL
MODEL 7
REMARK VINA RESULT:      -3.9     16.428     18.262
REMARK  Name = 75536968
REMARK  3 active torsions:
REMARK  status: ('A' for Active; 'I' for Inactive)
REMARK    1  A    between atoms: N_6  and  C_14
REMARK    2  A    between atoms: C_14  and  C_15
REMARK    3  A    between atoms: C_14  and  C_16
REMARK                            x       y       z     vdW  Elec       q    Type
REMARK                         _______ _______ _______ _____ _____    ______ ____
ROOT
ATOM      1  O   UNL     1      -1.777 -10.560  12.690  0.00  0.00    -0.253 OA
ATOM      2  O   UNL     1      -6.799  -8.448   8.411  0.00  0.00    -0.253 OA
ATOM      3  N   UNL     1      -3.940 -10.097  11.884  0.00  0.00    -0.278 N 
ATOM      4  N   UNL     1      -5.971  -8.738  10.555  0.00  0.00    -0.282 N 
ATOM      5  N   UNL     1      -3.697 -10.714  14.031  0.00  0.00    -0.297 N 
ATOM      6  N   UNL     1      -8.287  -8.886  10.101  0.00  0.00    -0.297 N 
ATOM      7  C   UNL     1      -5.297 -10.219  12.390  0.00  0.00    +0.112 C 
ATOM      8  C   UNL     1      -6.114  -8.990  12.005  0.00  0.00    +0.133 C 
ATOM      9  C   UNL     1      -3.713  -9.733  10.497  0.00  0.00    +0.128 C 
ATOM     10  C   UNL     1      -5.103 -10.416  13.890  0.00  0.00    +0.129 C 
ATOM     11  C   UNL     1      -4.579  -8.529  10.123  0.00  0.00    +0.128 C 
ATOM     12  C   UNL     1      -2.988 -10.469  12.840  0.00  0.00    +0.303 C 
ATOM     13  C   UNL     1      -7.005  -8.673   9.609  0.00  0.00    +0.303 C 
ATOM     17  H   UNL     1      -3.254 -10.988  14.903  0.00  0.00    +0.150 HD
ATOM     18  H   UNL     1      -8.435  -9.206  11.047  0.00  0.00    +0.150 HD
ENDROOT
BRANCH   6  14
ATOM     14  C   UNL     1      -9.450  -8.856   9.243  0.00  0.00    +0.068 C 
ATOM     15  C   UNL     1     -10.467  -9.900   9.685  0.00  0.00    +0.027 C 
ATOM     16  C   UNL     1     -10.060  -7.461   9.229  0.00  0.00    +0.027 C 
ENDBRANCH   6  14
TORSDOF 1
ENDMDL
MODEL 8
REMARK VINA RESULT:      -3.8     15.408     17.054
REMARK  Name = 75536968
REMARK  3 active torsions:
REMARK  status: ('A' for Active; 'I' for Inactive)
REMARK    1  A    between atoms: N_6  and  C_14
REMARK    2  A    between atoms: C_14  and  C_15
REMARK    3  A    between atoms: C_14  and  C_16
REMARK                            x       y       z     vdW  Elec       q    Type
REMARK                         _______ _______ _______ _____ _____    ______ ____
ROOT
ATOM      1  O   UNL     1      -4.369  -9.471   8.529  0.00  0.00    -0.253 OA
ATOM      2  O   UNL     1      -4.567 -10.298  15.404  0.00  0.00    -0.253 OA
ATOM      3  N   UNL     1      -5.210  -9.477  10.728  0.00  0.00    -0.278 N 
ATOM      4  N   UNL     1      -5.618 -10.341  13.340  0.00  0.00    -0.282 N 
ATOM      5  N   UNL     1      -6.631  -9.095   9.029  0.00  0.00    -0.297 N 
ATOM      6  N   UNL     1      -6.791  -9.750  15.306  0.00  0.00    -0.297 N 
ATOM      7  C   UNL     1      -6.476  -9.162  11.369  0.00  0.00    +0.112 C 
ATOM      8  C   UNL     1      -6.789 -10.191  12.449  0.00  0.00    +0.133 C 
ATOM      9  C   UNL     1      -4.038  -9.757  11.537  0.00  0.00    +0.128 C 
ATOM     10  C   UNL     1      -7.466  -9.128  10.208  0.00  0.00    +0.129 C 
ATOM     11  C   UNL     1      -4.389 -10.753  12.642  0.00  0.00    +0.128 C 
ATOM     12  C   UNL     1      -5.283  -9.360   9.335  0.00  0.00    +0.303 C 
ATOM     13  C   UNL     1      -5.590 -10.142  14.729  0.00  0.00    +0.303 C 
ATOM     17  H   UNL     1      -6.981  -8.979   8.083  0.00  0.00    +0.150 HD
ATOM     18  H   UNL     1      -7.584  -9.489  14.736  0.00  0.00    +0.150 HD
ENDROOT
BRANCH   6  14
ATOM     14  C   UNL     1      -6.913  -9.503  16.725  0.00  0.00    +0.068 C 
ATOM     15  C   UNL     1      -8.285  -8.929  17.052  0.00  0.00    +0.027 C 
ATOM     16  C   UNL     1      -6.647 -10.781  17.510  0.00  0.00    +0.027 C 
ENDBRANCH   6  14
TORSDOF 1
ENDMDL
MODEL 9
REMARK VINA RESULT:      -3.8      2.649      5.092
REMARK  Name = 75536968
REMARK  3 active torsions:
REMARK  status: ('A' for Active; 'I' for Inactive)
REMARK    1  A    between atoms: N_6  and  C_14
REMARK    2  A    between atoms: C_14  and  C_15
REMARK    3  A    between atoms: C_14  and  C_16
REMARK                            x       y       z     vdW  Elec       q    Type
REMARK                         _______ _______ _______ _____ _____    ______ ____
ROOT
ATOM      1  O   UNL     1      -3.585  -3.658  24.494  0.00  0.00    -0.253 OA
ATOM      2  O   UNL     1      -4.276   3.221  24.072  0.00  0.00    -0.253 OA
ATOM      3  N   UNL     1      -3.038  -1.373  24.632  0.00  0.00    -0.278 N 
ATOM      4  N   UNL     1      -2.964   1.317  23.929  0.00  0.00    -0.282 N 
ATOM      5  N   UNL     1      -1.412  -2.893  24.940  0.00  0.00    -0.297 N 
ATOM      6  N   UNL     1      -2.064   3.380  24.656  0.00  0.00    -0.297 N 
ATOM      7  C   UNL     1      -1.870  -0.594  25.008  0.00  0.00    +0.112 C 
ATOM      8  C   UNL     1      -1.689   0.578  24.049  0.00  0.00    +0.133 C 
ATOM      9  C   UNL     1      -4.303  -0.707  24.377  0.00  0.00    +0.128 C 
ATOM     10  C   UNL     1      -0.738  -1.617  24.992  0.00  0.00    +0.129 C 
ATOM     11  C   UNL     1      -4.087   0.492  23.454  0.00  0.00    +0.128 C 
ATOM     12  C   UNL     1      -2.786  -2.749  24.669  0.00  0.00    +0.303 C 
ATOM     13  C   UNL     1      -3.175   2.676  24.208  0.00  0.00    +0.303 C 
ATOM     17  H   UNL     1      -0.943  -3.792  25.008  0.00  0.00    +0.150 HD
ATOM     18  H   UNL     1      -1.207   2.902  24.897  0.00  0.00    +0.150 HD
ENDROOT
BRANCH   6  14
ATOM     14  C   UNL     1      -2.131   4.785  24.988  0.00  0.00    +0.068 C 
ATOM     15  C   UNL     1      -2.762   4.981  26.360  0.00  0.00    +0.027 C 
ATOM     16  C   UNL     1      -0.743   5.410  24.923  0.00  0.00    +0.027 C 
ENDBRANCH   6  14
TORSDOF 1
ENDMDL
MODEL 10
REMARK VINA RESULT:      -2.9      2.515      3.637
REMARK  Name = 75536968
REMARK  3 active torsions:
REMARK  status: ('A' for Active; 'I' for Inactive)
REMARK    1  A    between atoms: N_6  and  C_14
REMARK    2  A    between atoms: C_14  and  C_15
REMARK    3  A    between atoms: C_14  and  C_16
REMARK                            x       y       z     vdW  Elec       q    Type
REMARK                         _______ _______ _______ _____ _____    ______ ____
ROOT
ATOM      1  O   UNL     1      -4.349  -0.498  25.850  0.00  0.00    -0.253 OA
ATOM      2  O   UNL     1       1.722   2.108  23.769  0.00  0.00    -0.253 OA
ATOM      3  N   UNL     1      -2.129  -0.426  25.070  0.00  0.00    -0.278 N 
ATOM      4  N   UNL     1       0.087   0.471  23.649  0.00  0.00    -0.282 N 
ATOM      5  N   UNL     1      -3.203  -2.400  25.094  0.00  0.00    -0.297 N 
ATOM      6  N   UNL     1       2.368  -0.040  23.291  0.00  0.00    -0.297 N 
ATOM      7  C   UNL     1      -1.125  -1.399  24.672  0.00  0.00    +0.112 C 
ATOM      8  C   UNL     1      -0.385  -0.912  23.431  0.00  0.00    +0.133 C 
ATOM      9  C   UNL     1      -1.774   0.976  25.190  0.00  0.00    +0.128 C 
ATOM     10  C   UNL     1      -1.926  -2.683  24.480  0.00  0.00    +0.129 C 
ATOM     11  C   UNL     1      -0.992   1.426  23.956  0.00  0.00    +0.128 C 
ATOM     12  C   UNL     1      -3.347  -1.034  25.397  0.00  0.00    +0.303 C 
ATOM     13  C   UNL     1       1.412   0.927  23.580  0.00  0.00    +0.303 C 
ATOM     17  H   UNL     1      -3.943  -3.086  25.216  0.00  0.00    +0.150 HD
ATOM     18  H   UNL     1       2.128  -1.021  23.277  0.00  0.00    +0.150 HD
ENDROOT
BRANCH   6  14
ATOM     14  C   UNL     1       3.774   0.280  23.193  0.00  0.00    +0.068 C 
ATOM     15  C   UNL     1       4.621  -0.858  23.749  0.00  0.00    +0.027 C 
ATOM     16  C   UNL     1       4.146   0.592  21.750  0.00  0.00    +0.027 C 
ENDBRANCH   6  14
TORSDOF 1
ENDMDL
