MODEL 1
REMARK VINA RESULT:      -6.5      0.000      0.000
REMARK  Name = 25390299
REMARK  9 active torsions:
REMARK  status: ('A' for Active; 'I' for Inactive)
REMARK    1  A    between atoms: O_3  and  C_8
REMARK    2  A    between atoms: O_4  and  C_10
REMARK    3  A    between atoms: N_6  and  C_12
REMARK    4  A    between atoms: N_6  and  C_15
REMARK    5  A    between atoms: N_7  and  C_17
REMARK    6  A    between atoms: C_9  and  C_12
REMARK    7  A    between atoms: C_11  and  C_13
REMARK    8  A    between atoms: C_13  and  C_14
REMARK    9  A    between atoms: C_15  and  C_16
REMARK                            x       y       z     vdW  Elec       q    Type
REMARK                         _______ _______ _______ _____ _____    ______ ____
ROOT
ATOM      2  O   UNL     1      -2.477   3.005  23.307  0.00  0.00    -0.366 OA
ATOM      8  C   UNL     1      -1.127   3.468  25.210  0.00  0.00    +0.175 C 
ATOM      9  C   UNL     1      -1.161   2.768  23.857  0.00  0.00    +0.163 C 
ATOM     10  C   UNL     1      -2.583   3.422  25.625  0.00  0.00    +0.175 C 
ATOM     11  C   UNL     1      -3.286   3.660  24.299  0.00  0.00    +0.158 C 
ENDROOT
BRANCH   8   3
ATOM      3  O   UNL     1      -0.716   4.819  25.000  0.00  0.00    -0.387 OA
ATOM     28  H   UNL     1       0.231   4.803  24.780  0.00  0.00    +0.210 HD
ENDBRANCH   8   3
BRANCH  10   4
ATOM      4  O   UNL     1      -2.922   4.397  26.587  0.00  0.00    -0.387 OA
ATOM     29  H   UNL     1      -2.401   4.212  27.387  0.00  0.00    +0.210 HD
ENDBRANCH  10   4
BRANCH   9  12
ATOM     12  C   UNL     1      -0.963   1.262  23.961  0.00  0.00    +0.115 C 
BRANCH  12   6
ATOM      6  N   UNL     1       0.434   0.933  24.205  0.00  0.00    -0.309 NA
ATOM     30  H   UNL     1       0.977   1.794  24.277  0.00  0.00    +0.122 HD
BRANCH   6  15
ATOM     15  C   UNL     1       0.969   0.101  23.135  0.00  0.00    +0.116 C 
BRANCH  15  16
ATOM      1  F   UNL     1       6.590  -0.185  23.297  0.00  0.00    -0.205 F 
ATOM     16  C   UNL     1       2.468   0.025  23.178  0.00  0.00    -0.033 A 
ATOM     18  C   UNL     1       3.234   1.122  22.784  0.00  0.00    +0.008 A 
ATOM     19  C   UNL     1       3.095  -1.143  23.613  0.00  0.00    +0.008 A 
ATOM     22  C   UNL     1       4.626   1.051  22.824  0.00  0.00    +0.038 A 
ATOM     23  C   UNL     1       4.487  -1.214  23.653  0.00  0.00    +0.038 A 
ATOM     24  C   UNL     1       5.253  -0.117  23.258  0.00  0.00    +0.123 A 
ENDBRANCH  15  16
ENDBRANCH   6  15
ENDBRANCH  12   6
ENDBRANCH   9  12
BRANCH  11  13
ATOM     13  C   UNL     1      -4.697   3.104  24.257  0.00  0.00    +0.130 C 
BRANCH  13  14
ATOM      5  O   UNL     1      -5.525   1.512  25.863  0.00  0.00    -0.275 OA
ATOM      7  N   UNL     1      -4.001   0.813  24.217  0.00  0.00    -0.285 N 
ATOM     14  C   UNL     1      -4.807   1.726  24.891  0.00  0.00    +0.220 C 
ATOM     31  H   UNL     1      -3.463   1.158  23.424  0.00  0.00    +0.155 HD
BRANCH   7  17
ATOM     17  C   UNL     1      -3.831  -0.563  24.502  0.00  0.00    +0.033 A 
ATOM     20  C   UNL     1      -4.238  -1.522  23.574  0.00  0.00    +0.023 A 
ATOM     21  C   UNL     1      -3.257  -0.960  25.710  0.00  0.00    +0.023 A 
ATOM     25  C   UNL     1      -4.071  -2.878  23.855  0.00  0.00    +0.002 A 
ATOM     26  C   UNL     1      -3.090  -2.316  25.990  0.00  0.00    +0.002 A 
ATOM     27  C   UNL     1      -3.497  -3.275  25.063  0.00  0.00    +0.000 A 
ENDBRANCH   7  17
ENDBRANCH  13  14
ENDBRANCH  11  13
TORSDOF 9
ENDMDL
MODEL 2
REMARK VINA RESULT:      -6.2      2.653      7.011
REMARK  Name = 25390299
REMARK  9 active torsions:
REMARK  status: ('A' for Active; 'I' for Inactive)
REMARK    1  A    between atoms: O_3  and  C_8
REMARK    2  A    between atoms: O_4  and  C_10
REMARK    3  A    between atoms: N_6  and  C_12
REMARK    4  A    between atoms: N_6  and  C_15
REMARK    5  A    between atoms: N_7  and  C_17
REMARK    6  A    between atoms: C_9  and  C_12
REMARK    7  A    between atoms: C_11  and  C_13
REMARK    8  A    between atoms: C_13  and  C_14
REMARK    9  A    between atoms: C_15  and  C_16
REMARK                            x       y       z     vdW  Elec       q    Type
REMARK                         _______ _______ _______ _____ _____    ______ ____
ROOT
ATOM      2  O   UNL     1      -3.107   0.025  23.609  0.00  0.00    -0.366 OA
ATOM      8  C   UNL     1      -2.732  -1.475  25.417  0.00  0.00    +0.175 C 
ATOM      9  C   UNL     1      -3.802  -0.724  24.631  0.00  0.00    +0.163 C 
ATOM     10  C   UNL     1      -1.530  -0.566  25.260  0.00  0.00    +0.175 C 
ATOM     11  C   UNL     1      -1.689  -0.095  23.824  0.00  0.00    +0.158 C 
ENDROOT
BRANCH   8   3
ATOM      3  O   UNL     1      -2.497  -2.723  24.765  0.00  0.00    -0.387 OA
ATOM     28  H   UNL     1      -3.210  -3.328  25.030  0.00  0.00    +0.210 HD
ENDBRANCH   8   3
BRANCH  10   4
ATOM      4  O   UNL     1      -0.300  -1.225  25.468  0.00  0.00    -0.387 OA
ATOM     29  H   UNL     1      -0.243  -1.445  26.414  0.00  0.00    +0.210 HD
ENDBRANCH  10   4
BRANCH   9  12
ATOM     12  C   UNL     1      -4.583   0.265  25.485  0.00  0.00    +0.115 C 
BRANCH  12   6
ATOM      6  N   UNL     1      -5.485   1.064  24.667  0.00  0.00    -0.309 NA
ATOM     30  H   UNL     1      -5.110   1.135  23.721  0.00  0.00    +0.122 HD
BRANCH   6  15
ATOM     15  C   UNL     1      -5.655   2.398  25.229  0.00  0.00    +0.116 C 
BRANCH  15  16
ATOM      1  F   UNL     1      -0.870   5.363  25.120  0.00  0.00    -0.205 F 
ATOM     16  C   UNL     1      -4.379   3.188  25.200  0.00  0.00    -0.033 A 
ATOM     18  C   UNL     1      -3.786   3.511  23.979  0.00  0.00    +0.008 A 
ATOM     19  C   UNL     1      -3.787   3.601  26.394  0.00  0.00    +0.008 A 
ATOM     22  C   UNL     1      -2.601   4.245  23.952  0.00  0.00    +0.038 A 
ATOM     23  C   UNL     1      -2.602   4.336  26.366  0.00  0.00    +0.038 A 
ATOM     24  C   UNL     1      -2.008   4.657  25.146  0.00  0.00    +0.123 A 
ENDBRANCH  15  16
ENDBRANCH   6  15
ENDBRANCH  12   6
ENDBRANCH   9  12
BRANCH  11  13
ATOM     13  C   UNL     1      -1.015   1.236  23.548  0.00  0.00    +0.130 C 
BRANCH  13  14
ATOM      5  O   UNL     1       0.845   1.955  24.898  0.00  0.00    -0.275 OA
ATOM      7  N   UNL     1       1.197   0.394  23.178  0.00  0.00    -0.285 N 
ATOM     14  C   UNL     1       0.446   1.255  23.972  0.00  0.00    +0.220 C 
ATOM     31  H   UNL     1       0.707  -0.116  22.446  0.00  0.00    +0.155 HD
BRANCH   7  17
ATOM     17  C   UNL     1       2.586   0.135  23.259  0.00  0.00    +0.033 A 
ATOM     20  C   UNL     1       3.039  -1.111  23.694  0.00  0.00    +0.023 A 
ATOM     21  C   UNL     1       3.503   1.126  22.906  0.00  0.00    +0.023 A 
ATOM     25  C   UNL     1       4.407  -1.366  23.775  0.00  0.00    +0.002 A 
ATOM     26  C   UNL     1       4.871   0.871  22.987  0.00  0.00    +0.002 A 
ATOM     27  C   UNL     1       5.324  -0.375  23.422  0.00  0.00    +0.000 A 
ENDBRANCH   7  17
ENDBRANCH  13  14
ENDBRANCH  11  13
TORSDOF 9
ENDMDL
MODEL 3
REMARK VINA RESULT:      -5.8      1.978      4.695
REMARK  Name = 25390299
REMARK  9 active torsions:
REMARK  status: ('A' for Active; 'I' for Inactive)
REMARK    1  A    between atoms: O_3  and  C_8
REMARK    2  A    between atoms: O_4  and  C_10
REMARK    3  A    between atoms: N_6  and  C_12
REMARK    4  A    between atoms: N_6  and  C_15
REMARK    5  A    between atoms: N_7  and  C_17
REMARK    6  A    between atoms: C_9  and  C_12
REMARK    7  A    between atoms: C_11  and  C_13
REMARK    8  A    between atoms: C_13  and  C_14
REMARK    9  A    between atoms: C_15  and  C_16
REMARK                            x       y       z     vdW  Elec       q    Type
REMARK                         _______ _______ _______ _____ _____    ______ ____
ROOT
ATOM      2  O   UNL     1      -2.639  -0.554  25.987  0.00  0.00    -0.366 OA
ATOM      8  C   UNL     1      -2.320  -2.234  24.333  0.00  0.00    +0.175 C 
ATOM      9  C   UNL     1      -1.607  -1.308  25.312  0.00  0.00    +0.163 C 
ATOM     10  C   UNL     1      -3.578  -1.450  24.019  0.00  0.00    +0.175 C 
ATOM     11  C   UNL     1      -3.907  -0.845  25.373  0.00  0.00    +0.158 C 
ENDROOT
BRANCH   8   3
ATOM      3  O   UNL     1      -2.649  -3.440  25.023  0.00  0.00    -0.387 OA
ATOM     28  H   UNL     1      -2.063  -3.500  25.797  0.00  0.00    +0.210 HD
ENDBRANCH   8   3
BRANCH  10   4
ATOM      4  O   UNL     1      -4.629  -2.254  23.528  0.00  0.00    -0.387 OA
ATOM     29  H   UNL     1      -4.738  -2.047  22.584  0.00  0.00    +0.210 HD
ENDBRANCH  10   4
BRANCH   9  12
ATOM     12  C   UNL     1      -0.679  -0.317  24.625  0.00  0.00    +0.115 C 
BRANCH  12   6
ATOM      6  N   UNL     1       0.413  -1.003  23.949  0.00  0.00    -0.309 NA
ATOM     30  H   UNL     1       1.105  -1.299  24.638  0.00  0.00    +0.122 HD
BRANCH   6  15
ATOM     15  C   UNL     1       1.042  -0.137  22.960  0.00  0.00    +0.116 C 
BRANCH  15  16
ATOM      1  F   UNL     1       6.646  -0.044  23.499  0.00  0.00    -0.205 F 
ATOM     16  C   UNL     1       2.536  -0.112  23.104  0.00  0.00    -0.033 A 
ATOM     18  C   UNL     1       3.208  -1.228  23.605  0.00  0.00    +0.008 A 
ATOM     19  C   UNL     1       3.254   1.026  22.735  0.00  0.00    +0.008 A 
ATOM     22  C   UNL     1       4.596  -1.205  23.739  0.00  0.00    +0.038 A 
ATOM     23  C   UNL     1       4.642   1.048  22.869  0.00  0.00    +0.038 A 
ATOM     24  C   UNL     1       5.313  -0.066  23.371  0.00  0.00    +0.123 A 
ENDBRANCH  15  16
ENDBRANCH   6  15
ENDBRANCH  12   6
ENDBRANCH   9  12
BRANCH  11  13
ATOM     13  C   UNL     1      -4.734   0.424  25.280  0.00  0.00    +0.130 C 
BRANCH  13  14
ATOM      5  O   UNL     1      -4.230   1.853  23.409  0.00  0.00    -0.275 OA
ATOM      7  N   UNL     1      -3.084   2.153  25.438  0.00  0.00    -0.285 N 
ATOM     14  C   UNL     1      -4.000   1.556  24.577  0.00  0.00    +0.220 C 
ATOM     31  H   UNL     1      -3.016   1.780  26.383  0.00  0.00    +0.155 HD
BRANCH   7  17
ATOM     17  C   UNL     1      -2.214   3.234  25.158  0.00  0.00    +0.033 A 
ATOM     20  C   UNL     1      -0.992   2.999  24.528  0.00  0.00    +0.023 A 
ATOM     21  C   UNL     1      -2.578   4.533  25.512  0.00  0.00    +0.023 A 
ATOM     25  C   UNL     1      -0.134   4.064  24.252  0.00  0.00    +0.002 A 
ATOM     26  C   UNL     1      -1.720   5.597  25.236  0.00  0.00    +0.002 A 
ATOM     27  C   UNL     1      -0.498   5.363  24.606  0.00  0.00    +0.000 A 
ENDBRANCH   7  17
ENDBRANCH  13  14
ENDBRANCH  11  13
TORSDOF 9
ENDMDL
MODEL 4
REMARK VINA RESULT:      -5.5      3.189      6.275
REMARK  Name = 25390299
REMARK  9 active torsions:
REMARK  status: ('A' for Active; 'I' for Inactive)
REMARK    1  A    between atoms: O_3  and  C_8
REMARK    2  A    between atoms: O_4  and  C_10
REMARK    3  A    between atoms: N_6  and  C_12
REMARK    4  A    between atoms: N_6  and  C_15
REMARK    5  A    between atoms: N_7  and  C_17
REMARK    6  A    between atoms: C_9  and  C_12
REMARK    7  A    between atoms: C_11  and  C_13
REMARK    8  A    between atoms: C_13  and  C_14
REMARK    9  A    between atoms: C_15  and  C_16
REMARK                            x       y       z     vdW  Elec       q    Type
REMARK                         _______ _______ _______ _____ _____    ______ ____
ROOT
ATOM      2  O   UNL     1      -0.340   0.911  23.536  0.00  0.00    -0.366 OA
ATOM      8  C   UNL     1       1.589  -0.314  22.877  0.00  0.00    +0.175 C 
ATOM      9  C   UNL     1       0.135  -0.437  23.318  0.00  0.00    +0.163 C 
ATOM     10  C   UNL     1       2.017   0.971  23.555  0.00  0.00    +0.175 C 
ATOM     11  C   UNL     1       0.766   1.822  23.412  0.00  0.00    +0.158 C 
ENDROOT
BRANCH   8   3
ATOM      3  O   UNL     1       1.610  -0.156  21.458  0.00  0.00    -0.387 OA
ATOM     28  H   UNL     1       1.028  -0.837  21.081  0.00  0.00    +0.210 HD
ENDBRANCH   8   3
BRANCH  10   4
ATOM      4  O   UNL     1       3.140   1.575  22.951  0.00  0.00    -0.387 OA
ATOM     29  H   UNL     1       3.920   1.047  23.191  0.00  0.00    +0.210 HD
ENDBRANCH  10   4
BRANCH   9  12
ATOM     12  C   UNL     1      -0.028  -1.206  24.622  0.00  0.00    +0.115 C 
BRANCH  12   6
ATOM      6  N   UNL     1      -0.411  -0.317  25.710  0.00  0.00    -0.309 NA
ATOM     30  H   UNL     1       0.372  -0.217  26.356  0.00  0.00    +0.122 HD
BRANCH   6  15
ATOM     15  C   UNL     1      -1.574  -0.832  26.421  0.00  0.00    +0.116 C 
BRANCH  15  16
ATOM      1  F   UNL     1      -5.364  -3.080  22.917  0.00  0.00    -0.205 F 
ATOM     16  C   UNL     1      -2.584  -1.431  25.486  0.00  0.00    -0.033 A 
ATOM     18  C   UNL     1      -2.630  -2.813  25.301  0.00  0.00    +0.008 A 
ATOM     19  C   UNL     1      -3.479  -0.606  24.804  0.00  0.00    +0.008 A 
ATOM     22  C   UNL     1      -3.568  -3.370  24.433  0.00  0.00    +0.038 A 
ATOM     23  C   UNL     1      -4.418  -1.164  23.936  0.00  0.00    +0.038 A 
ATOM     24  C   UNL     1      -4.463  -2.545  23.750  0.00  0.00    +0.123 A 
ENDBRANCH  15  16
ENDBRANCH   6  15
ENDBRANCH  12   6
ENDBRANCH   9  12
BRANCH  11  13
ATOM     13  C   UNL     1       0.654   2.910  24.464  0.00  0.00    +0.130 C 
BRANCH  13  14
ATOM      5  O   UNL     1      -0.639   2.528  26.460  0.00  0.00    -0.275 OA
ATOM      7  N   UNL     1      -1.733   3.111  24.464  0.00  0.00    -0.285 N 
ATOM     14  C   UNL     1      -0.635   2.820  25.268  0.00  0.00    +0.220 C 
ATOM     31  H   UNL     1      -1.553   3.333  23.487  0.00  0.00    +0.155 HD
BRANCH   7  17
ATOM     17  C   UNL     1      -3.097   3.132  24.841  0.00  0.00    +0.033 A 
ATOM     20  C   UNL     1      -3.504   3.889  25.940  0.00  0.00    +0.023 A 
ATOM     21  C   UNL     1      -4.034   2.397  24.115  0.00  0.00    +0.023 A 
ATOM     25  C   UNL     1      -4.848   3.911  26.312  0.00  0.00    +0.002 A 
ATOM     26  C   UNL     1      -5.378   2.419  24.487  0.00  0.00    +0.002 A 
ATOM     27  C   UNL     1      -5.785   3.176  25.586  0.00  0.00    +0.000 A 
ENDBRANCH   7  17
ENDBRANCH  13  14
ENDBRANCH  11  13
TORSDOF 9
ENDMDL
MODEL 5
REMARK VINA RESULT:      -3.9      2.279      5.930
REMARK  Name = 25390299
REMARK  9 active torsions:
REMARK  status: ('A' for Active; 'I' for Inactive)
REMARK    1  A    between atoms: O_3  and  C_8
REMARK    2  A    between atoms: O_4  and  C_10
REMARK    3  A    between atoms: N_6  and  C_12
REMARK    4  A    between atoms: N_6  and  C_15
REMARK    5  A    between atoms: N_7  and  C_17
REMARK    6  A    between atoms: C_9  and  C_12
REMARK    7  A    between atoms: C_11  and  C_13
REMARK    8  A    between atoms: C_13  and  C_14
REMARK    9  A    between atoms: C_15  and  C_16
REMARK                            x       y       z     vdW  Elec       q    Type
REMARK                         _______ _______ _______ _____ _____    ______ ____
ROOT
ATOM      2  O   UNL     1      -3.479   3.712  26.044  0.00  0.00    -0.366 OA
ATOM      8  C   UNL     1      -4.189   3.549  23.780  0.00  0.00    +0.175 C 
ATOM      9  C   UNL     1      -4.653   3.817  25.207  0.00  0.00    +0.163 C 
ATOM     10  C   UNL     1      -3.000   2.637  24.000  0.00  0.00    +0.175 C 
ATOM     11  C   UNL     1      -2.377   3.245  25.246  0.00  0.00    +0.158 C 
ENDROOT
BRANCH   8   3
ATOM      3  O   UNL     1      -3.764   4.788  23.212  0.00  0.00    -0.387 OA
ATOM     28  H   UNL     1      -4.346   5.483  23.563  0.00  0.00    +0.210 HD
ENDBRANCH   8   3
BRANCH  10   4
ATOM      4  O   UNL     1      -2.101   2.618  22.913  0.00  0.00    -0.387 OA
ATOM     29  H   UNL     1      -1.984   3.535  22.614  0.00  0.00    +0.210 HD
ENDBRANCH  10   4
BRANCH   9  12
ATOM     12  C   UNL     1      -5.671   2.800  25.703  0.00  0.00    +0.115 C 
BRANCH  12   6
ATOM      6  N   UNL     1      -5.474   1.507  25.063  0.00  0.00    -0.309 NA
ATOM     30  H   UNL     1      -6.355   1.196  24.652  0.00  0.00    +0.122 HD
BRANCH   6  15
ATOM     15  C   UNL     1      -5.001   0.517  26.021  0.00  0.00    +0.116 C 
BRANCH  15  16
ATOM      1  F   UNL     1      -1.548  -3.241  23.643  0.00  0.00    -0.205 F 
ATOM     16  C   UNL     1      -4.080  -0.485  25.387  0.00  0.00    -0.033 A 
ATOM     18  C   UNL     1      -2.821  -0.723  25.939  0.00  0.00    +0.008 A 
ATOM     19  C   UNL     1      -4.485  -1.180  24.246  0.00  0.00    +0.008 A 
ATOM     22  C   UNL     1      -1.965  -1.653  25.349  0.00  0.00    +0.038 A 
ATOM     23  C   UNL     1      -3.628  -2.111  23.657  0.00  0.00    +0.038 A 
ATOM     24  C   UNL     1      -2.369  -2.347  24.208  0.00  0.00    +0.123 A 
ENDBRANCH  15  16
ENDBRANCH   6  15
ENDBRANCH  12   6
ENDBRANCH   9  12
BRANCH  11  13
ATOM     13  C   UNL     1      -1.546   2.259  26.046  0.00  0.00    +0.130 C 
BRANCH  13  14
ATOM      5  O   UNL     1       0.840   2.575  25.985  0.00  0.00    -0.275 OA
ATOM      7  N   UNL     1      -0.197   1.253  24.342  0.00  0.00    -0.285 N 
ATOM     14  C   UNL     1      -0.151   2.063  25.473  0.00  0.00    +0.220 C 
ATOM     31  H   UNL     1      -1.109   0.910  24.048  0.00  0.00    +0.155 HD
BRANCH   7  17
ATOM     17  C   UNL     1       0.888   0.842  23.531  0.00  0.00    +0.033 A 
ATOM     20  C   UNL     1       0.719  -0.201  22.619  0.00  0.00    +0.023 A 
ATOM     21  C   UNL     1       2.124   1.477  23.643  0.00  0.00    +0.023 A 
ATOM     25  C   UNL     1       1.787  -0.607  21.820  0.00  0.00    +0.002 A 
ATOM     26  C   UNL     1       3.192   1.070  22.844  0.00  0.00    +0.002 A 
ATOM     27  C   UNL     1       3.024   0.028  21.932  0.00  0.00    +0.000 A 
ENDBRANCH   7  17
ENDBRANCH  13  14
ENDBRANCH  11  13
TORSDOF 9
ENDMDL
MODEL 6
REMARK VINA RESULT:      -3.9      3.318      6.467
REMARK  Name = 25390299
REMARK  9 active torsions:
REMARK  status: ('A' for Active; 'I' for Inactive)
REMARK    1  A    between atoms: O_3  and  C_8
REMARK    2  A    between atoms: O_4  and  C_10
REMARK    3  A    between atoms: N_6  and  C_12
REMARK    4  A    between atoms: N_6  and  C_15
REMARK    5  A    between atoms: N_7  and  C_17
REMARK    6  A    between atoms: C_9  and  C_12
REMARK    7  A    between atoms: C_11  and  C_13
REMARK    8  A    between atoms: C_13  and  C_14
REMARK    9  A    between atoms: C_15  and  C_16
REMARK                            x       y       z     vdW  Elec       q    Type
REMARK                         _______ _______ _______ _____ _____    ______ ____
ROOT
ATOM      2  O   UNL     1      -0.233   0.864  23.634  0.00  0.00    -0.366 OA
ATOM      8  C   UNL     1       1.553  -0.430  22.746  0.00  0.00    +0.175 C 
ATOM      9  C   UNL     1       0.121  -0.487  23.265  0.00  0.00    +0.163 C 
ATOM     10  C   UNL     1       2.118   0.750  23.510  0.00  0.00    +0.175 C 
ATOM     11  C   UNL     1       0.932   1.700  23.524  0.00  0.00    +0.158 C 
ENDROOT
BRANCH   8   3
ATOM      3  O   UNL     1       1.507  -0.139  21.349  0.00  0.00    -0.387 OA
ATOM     28  H   UNL     1       1.883  -0.903  20.881  0.00  0.00    +0.210 HD
ENDBRANCH   8   3
BRANCH  10   4
ATOM      4  O   UNL     1       3.250   1.325  22.894  0.00  0.00    -0.387 OA
ATOM     29  H   UNL     1       3.072   1.369  21.939  0.00  0.00    +0.210 HD
ENDBRANCH  10   4
BRANCH   9  12
ATOM     12  C   UNL     1      -0.030  -1.363  24.501  0.00  0.00    +0.115 C 
BRANCH  12   6
ATOM      6  N   UNL     1      -0.719  -2.605  24.182  0.00  0.00    -0.309 NA
ATOM     30  H   UNL     1      -1.085  -2.554  23.231  0.00  0.00    +0.122 HD
BRANCH   6  15
ATOM     15  C   UNL     1      -1.810  -2.852  25.117  0.00  0.00    +0.116 C 
BRANCH  15  16
ATOM      1  F   UNL     1      -5.908   0.978  24.633  0.00  0.00    -0.205 F 
ATOM     16  C   UNL     1      -2.903  -1.831  24.988  0.00  0.00    -0.033 A 
ATOM     18  C   UNL     1      -2.970  -0.765  25.885  0.00  0.00    +0.008 A 
ATOM     19  C   UNL     1      -3.850  -1.947  23.970  0.00  0.00    +0.008 A 
ATOM     22  C   UNL     1      -3.986   0.184  25.766  0.00  0.00    +0.038 A 
ATOM     23  C   UNL     1      -4.865  -0.998  23.851  0.00  0.00    +0.038 A 
ATOM     24  C   UNL     1      -4.933   0.067  24.749  0.00  0.00    +0.123 A 
ENDBRANCH  15  16
ENDBRANCH   6  15
ENDBRANCH  12   6
ENDBRANCH   9  12
BRANCH  11  13
ATOM     13  C   UNL     1       0.965   2.688  24.675  0.00  0.00    +0.130 C 
BRANCH  13  14
ATOM      5  O   UNL     1      -0.478   2.417  26.584  0.00  0.00    -0.275 OA
ATOM      7  N   UNL     1      -1.350   3.294  24.586  0.00  0.00    -0.285 N 
ATOM     14  C   UNL     1      -0.361   2.773  25.415  0.00  0.00    +0.220 C 
ATOM     31  H   UNL     1      -1.084   3.540  23.635  0.00  0.00    +0.155 HD
BRANCH   7  17
ATOM     17  C   UNL     1      -2.710   3.527  24.905  0.00  0.00    +0.033 A 
ATOM     20  C   UNL     1      -3.689   3.395  23.921  0.00  0.00    +0.023 A 
ATOM     21  C   UNL     1      -3.070   3.889  26.204  0.00  0.00    +0.023 A 
ATOM     25  C   UNL     1      -5.028   3.625  24.234  0.00  0.00    +0.002 A 
ATOM     26  C   UNL     1      -4.409   4.119  26.517  0.00  0.00    +0.002 A 
ATOM     27  C   UNL     1      -5.388   3.987  25.533  0.00  0.00    +0.000 A 
ENDBRANCH   7  17
ENDBRANCH  13  14
ENDBRANCH  11  13
TORSDOF 9
ENDMDL
MODEL 7
REMARK VINA RESULT:      -3.4      3.633      5.976
REMARK  Name = 25390299
REMARK  9 active torsions:
REMARK  status: ('A' for Active; 'I' for Inactive)
REMARK    1  A    between atoms: O_3  and  C_8
REMARK    2  A    between atoms: O_4  and  C_10
REMARK    3  A    between atoms: N_6  and  C_12
REMARK    4  A    between atoms: N_6  and  C_15
REMARK    5  A    between atoms: N_7  and  C_17
REMARK    6  A    between atoms: C_9  and  C_12
REMARK    7  A    between atoms: C_11  and  C_13
REMARK    8  A    between atoms: C_13  and  C_14
REMARK    9  A    between atoms: C_15  and  C_16
REMARK                            x       y       z     vdW  Elec       q    Type
REMARK                         _______ _______ _______ _____ _____    ______ ____
ROOT
ATOM      2  O   UNL     1      -2.361  -1.481  26.072  0.00  0.00    -0.366 OA
ATOM      8  C   UNL     1      -0.330  -2.069  24.984  0.00  0.00    +0.175 C 
ATOM      9  C   UNL     1      -0.965  -1.116  25.990  0.00  0.00    +0.163 C 
ATOM     10  C   UNL     1      -1.499  -2.397  24.078  0.00  0.00    +0.175 C 
ATOM     11  C   UNL     1      -2.643  -2.478  25.075  0.00  0.00    +0.158 C 
ENDROOT
BRANCH   8   3
ATOM      3  O   UNL     1       0.094  -3.237  25.687  0.00  0.00    -0.387 OA
ATOM     28  H   UNL     1      -0.332  -3.220  26.561  0.00  0.00    +0.210 HD
ENDBRANCH   8   3
BRANCH  10   4
ATOM      4  O   UNL     1      -1.332  -3.602  23.364  0.00  0.00    -0.387 OA
ATOM     29  H   UNL     1      -0.866  -3.390  22.537  0.00  0.00    +0.210 HD
ENDBRANCH  10   4
BRANCH   9  12
ATOM     12  C   UNL     1      -0.890   0.342  25.557  0.00  0.00    +0.115 C 
BRANCH  12   6
ATOM      6  N   UNL     1      -0.159   0.479  24.305  0.00  0.00    -0.309 NA
ATOM     30  H   UNL     1       0.433  -0.340  24.167  0.00  0.00    +0.122 HD
BRANCH   6  15
ATOM     15  C   UNL     1       0.660   1.684  24.308  0.00  0.00    +0.116 C 
BRANCH  15  16
ATOM      1  F   UNL     1      -2.326   6.264  25.653  0.00  0.00    -0.205 F 
ATOM     16  C   UNL     1      -0.136   2.905  24.666  0.00  0.00    -0.033 A 
ATOM     18  C   UNL     1      -0.993   2.881  25.767  0.00  0.00    +0.008 A 
ATOM     19  C   UNL     1      -0.018   4.065  23.899  0.00  0.00    +0.008 A 
ATOM     22  C   UNL     1      -1.734   4.015  26.100  0.00  0.00    +0.038 A 
ATOM     23  C   UNL     1      -0.759   5.199  24.233  0.00  0.00    +0.038 A 
ATOM     24  C   UNL     1      -1.616   5.175  25.333  0.00  0.00    +0.123 A 
ENDBRANCH  15  16
ENDBRANCH   6  15
ENDBRANCH  12   6
ENDBRANCH   9  12
BRANCH  11  13
ATOM     13  C   UNL     1      -4.002  -2.212  24.455  0.00  0.00    +0.130 C 
BRANCH  13  14
ATOM      5  O   UNL     1      -3.987  -0.508  22.754  0.00  0.00    -0.275 OA
ATOM      7  N   UNL     1      -4.466   0.078  24.978  0.00  0.00    -0.285 N 
ATOM     14  C   UNL     1      -4.145  -0.789  23.938  0.00  0.00    +0.220 C 
ATOM     31  H   UNL     1      -4.560  -0.321  25.909  0.00  0.00    +0.155 HD
BRANCH   7  17
ATOM     17  C   UNL     1      -4.680   1.476  24.901  0.00  0.00    +0.033 A 
ATOM     20  C   UNL     1      -5.554   2.097  25.794  0.00  0.00    +0.023 A 
ATOM     21  C   UNL     1      -4.018   2.232  23.933  0.00  0.00    +0.023 A 
ATOM     25  C   UNL     1      -5.766   3.473  25.719  0.00  0.00    +0.002 A 
ATOM     26  C   UNL     1      -4.230   3.608  23.858  0.00  0.00    +0.002 A 
ATOM     27  C   UNL     1      -5.104   4.229  24.751  0.00  0.00    +0.000 A 
ENDBRANCH   7  17
ENDBRANCH  13  14
ENDBRANCH  11  13
TORSDOF 9
ENDMDL
MODEL 8
REMARK VINA RESULT:      -3.3      3.893      7.264
REMARK  Name = 25390299
REMARK  9 active torsions:
REMARK  status: ('A' for Active; 'I' for Inactive)
REMARK    1  A    between atoms: O_3  and  C_8
REMARK    2  A    between atoms: O_4  and  C_10
REMARK    3  A    between atoms: N_6  and  C_12
REMARK    4  A    between atoms: N_6  and  C_15
REMARK    5  A    between atoms: N_7  and  C_17
REMARK    6  A    between atoms: C_9  and  C_12
REMARK    7  A    between atoms: C_11  and  C_13
REMARK    8  A    between atoms: C_13  and  C_14
REMARK    9  A    between atoms: C_15  and  C_16
REMARK                            x       y       z     vdW  Elec       q    Type
REMARK                         _______ _______ _______ _____ _____    ______ ____
ROOT
ATOM      2  O   UNL     1      -1.782  -2.203  23.916  0.00  0.00    -0.366 OA
ATOM      8  C   UNL     1      -3.168  -1.582  25.746  0.00  0.00    +0.175 C 
ATOM      9  C   UNL     1      -3.159  -1.936  24.263  0.00  0.00    +0.163 C 
ATOM     10  C   UNL     1      -1.787  -0.988  25.937  0.00  0.00    +0.175 C 
ATOM     11  C   UNL     1      -0.945  -1.881  25.041  0.00  0.00    +0.158 C 
ENDROOT
BRANCH   8   3
ATOM      3  O   UNL     1      -3.292  -2.794  26.491  0.00  0.00    -0.387 OA
ATOM     28  H   UNL     1      -2.818  -3.486  25.999  0.00  0.00    +0.210 HD
ENDBRANCH   8   3
BRANCH  10   4
ATOM      4  O   UNL     1      -1.347  -1.015  27.277  0.00  0.00    -0.387 OA
ATOM     29  H   UNL     1      -0.755  -1.780  27.375  0.00  0.00    +0.210 HD
ENDBRANCH  10   4
BRANCH   9  12
ATOM     12  C   UNL     1      -3.652  -0.800  23.377  0.00  0.00    +0.115 C 
BRANCH  12   6
ATOM      6  N   UNL     1      -2.759   0.348  23.453  0.00  0.00    -0.309 NA
ATOM     30  H   UNL     1      -2.605   0.592  24.431  0.00  0.00    +0.122 HD
BRANCH   6  15
ATOM     15  C   UNL     1      -3.316   1.490  22.741  0.00  0.00    +0.116 C 
BRANCH  15  16
ATOM      1  F   UNL     1      -6.234   4.885  26.157  0.00  0.00    -0.205 F 
ATOM     16  C   UNL     1      -4.094   2.395  23.653  0.00  0.00    -0.033 A 
ATOM     18  C   UNL     1      -4.054   3.777  23.463  0.00  0.00    +0.008 A 
ATOM     19  C   UNL     1      -4.858   1.855  24.687  0.00  0.00    +0.008 A 
ATOM     22  C   UNL     1      -4.777   4.618  24.310  0.00  0.00    +0.038 A 
ATOM     23  C   UNL     1      -5.581   2.696  25.533  0.00  0.00    +0.038 A 
ATOM     24  C   UNL     1      -5.540   4.077  25.345  0.00  0.00    +0.123 A 
ENDBRANCH  15  16
ENDBRANCH   6  15
ENDBRANCH  12   6
ENDBRANCH   9  12
BRANCH  11  13
ATOM     13  C   UNL     1       0.331  -1.218  24.557  0.00  0.00    +0.130 C 
BRANCH  13  14
ATOM      5  O   UNL     1       0.293   0.555  22.928  0.00  0.00    -0.275 OA
ATOM      7  N   UNL     1      -0.307   1.012  25.153  0.00  0.00    -0.285 N 
ATOM     14  C   UNL     1       0.111   0.214  24.093  0.00  0.00    +0.220 C 
ATOM     31  H   UNL     1      -0.408   0.568  26.064  0.00  0.00    +0.155 HD
BRANCH   7  17
ATOM     17  C   UNL     1      -0.613   2.394  25.125  0.00  0.00    +0.033 A 
ATOM     20  C   UNL     1      -0.045   3.214  24.150  0.00  0.00    +0.023 A 
ATOM     21  C   UNL     1      -1.483   2.936  26.071  0.00  0.00    +0.023 A 
ATOM     25  C   UNL     1      -0.345   4.575  24.121  0.00  0.00    +0.002 A 
ATOM     26  C   UNL     1      -1.784   4.297  26.043  0.00  0.00    +0.002 A 
ATOM     27  C   UNL     1      -1.215   5.117  25.068  0.00  0.00    +0.000 A 
ENDBRANCH   7  17
ENDBRANCH  13  14
ENDBRANCH  11  13
TORSDOF 9
ENDMDL
MODEL 9
REMARK VINA RESULT:      -2.6     16.945     18.853
REMARK  Name = 25390299
REMARK  9 active torsions:
REMARK  status: ('A' for Active; 'I' for Inactive)
REMARK    1  A    between atoms: O_3  and  C_8
REMARK    2  A    between atoms: O_4  and  C_10
REMARK    3  A    between atoms: N_6  and  C_12
REMARK    4  A    between atoms: N_6  and  C_15
REMARK    5  A    between atoms: N_7  and  C_17
REMARK    6  A    between atoms: C_9  and  C_12
REMARK    7  A    between atoms: C_11  and  C_13
REMARK    8  A    between atoms: C_13  and  C_14
REMARK    9  A    between atoms: C_15  and  C_16
REMARK                            x       y       z     vdW  Elec       q    Type
REMARK                         _______ _______ _______ _____ _____    ______ ____
ROOT
ATOM      2  O   UNL     1      15.299  -6.692  30.361  0.00  0.00    -0.366 OA
ATOM      8  C   UNL     1      17.210  -7.509  31.519  0.00  0.00    +0.175 C 
ATOM      9  C   UNL     1      16.697  -6.408  30.597  0.00  0.00    +0.163 C 
ATOM     10  C   UNL     1      16.307  -8.670  31.155  0.00  0.00    +0.175 C 
ATOM     11  C   UNL     1      14.977  -7.967  30.943  0.00  0.00    +0.158 C 
ENDROOT
BRANCH   8   3
ATOM      3  O   UNL     1      16.975  -7.103  32.867  0.00  0.00    -0.387 OA
ATOM     28  H   UNL     1      17.633  -7.552  33.424  0.00  0.00    +0.210 HD
ENDBRANCH   8   3
BRANCH  10   4
ATOM      4  O   UNL     1      16.231  -9.655  32.162  0.00  0.00    -0.387 OA
ATOM     29  H   UNL     1      15.311  -9.684  32.474  0.00  0.00    +0.210 HD
ENDBRANCH  10   4
BRANCH   9  12
ATOM     12  C   UNL     1      17.402  -6.384  29.248  0.00  0.00    +0.115 C 
BRANCH  12   6
ATOM      6  N   UNL     1      16.504  -5.931  28.195  0.00  0.00    -0.309 NA
ATOM     30  H   UNL     1      15.541  -6.132  28.463  0.00  0.00    +0.122 HD
BRANCH   6  15
ATOM     15  C   UNL     1      16.810  -6.587  26.930  0.00  0.00    +0.116 C 
BRANCH  15  16
ATOM      1  F   UNL     1      17.325  -2.896  22.710  0.00  0.00    -0.205 F 
ATOM     16  C   UNL     1      16.948  -5.602  25.805  0.00  0.00    -0.033 A 
ATOM     18  C   UNL     1      17.114  -6.058  24.497  0.00  0.00    +0.008 A 
ATOM     19  C   UNL     1      16.907  -4.233  26.068  0.00  0.00    +0.008 A 
ATOM     22  C   UNL     1      17.242  -5.143  23.452  0.00  0.00    +0.038 A 
ATOM     23  C   UNL     1      17.035  -3.319  25.022  0.00  0.00    +0.038 A 
ATOM     24  C   UNL     1      17.203  -3.774  23.714  0.00  0.00    +0.123 A 
ENDBRANCH  15  16
ENDBRANCH   6  15
ENDBRANCH  12   6
ENDBRANCH   9  12
BRANCH  11  13
ATOM     13  C   UNL     1      14.034  -8.725  30.026  0.00  0.00    +0.130 C 
BRANCH  13  14
ATOM      5  O   UNL     1      13.144 -10.641  31.182  0.00  0.00    -0.275 OA
ATOM      7  N   UNL     1      11.822  -8.713  30.944  0.00  0.00    -0.285 N 
ATOM     14  C   UNL     1      12.964  -9.493  30.787  0.00  0.00    +0.220 C 
ATOM     31  H   UNL     1      11.838  -7.774  30.552  0.00  0.00    +0.155 HD
BRANCH   7  17
ATOM     17  C   UNL     1      10.616  -9.070  31.594  0.00  0.00    +0.033 A 
ATOM     20  C   UNL     1       9.808  -8.082  32.155  0.00  0.00    +0.023 A 
ATOM     21  C   UNL     1      10.236 -10.410  31.672  0.00  0.00    +0.023 A 
ATOM     25  C   UNL     1       8.620  -8.433  32.795  0.00  0.00    +0.002 A 
ATOM     26  C   UNL     1       9.048 -10.762  32.312  0.00  0.00    +0.002 A 
ATOM     27  C   UNL     1       8.240  -9.773  32.873  0.00  0.00    +0.000 A 
ENDBRANCH   7  17
ENDBRANCH  13  14
ENDBRANCH  11  13
TORSDOF 9
ENDMDL
