MODEL 1
REMARK VINA RESULT:      -0.5      0.000      0.000
REMARK  Name = 28960034
REMARK  7 active torsions:
REMARK  status: ('A' for Active; 'I' for Inactive)
REMARK    1  A    between atoms: O_2  and  C_23
REMARK    2  A    between atoms: N_5  and  C_20
REMARK    3  A    between atoms: C_8  and  C_12
REMARK    4  A    between atoms: C_9  and  C_18
REMARK    5  A    between atoms: C_12  and  C_20
REMARK    6  A    between atoms: C_14  and  C_17
REMARK    7  A    between atoms: C_18  and  C_23
REMARK                            x       y       z     vdW  Elec       q    Type
REMARK                         _______ _______ _______ _____ _____    ______ ____
ROOT
ATOM      1  O   UNL     1      -5.069   4.585  25.062  0.00  0.00    -0.275 OA
ATOM      4  N   UNL     1      -4.048   2.528  25.388  0.00  0.00    -0.301 N 
ATOM      8  C   UNL     1      -3.099   0.405  24.520  0.00  0.00    +0.011 C 
ATOM      9  C   UNL     1      -4.393  -0.317  24.977  0.00  0.00    +0.006 C 
ATOM     10  C   UNL     1      -2.867   1.658  25.383  0.00  0.00    +0.111 C 
ATOM     11  C   UNL     1      -5.594   0.645  25.015  0.00  0.00    +0.023 C 
ATOM     13  C   UNL     1      -5.283   1.888  25.844  0.00  0.00    +0.108 C 
ATOM     17  C   UNL     1      -4.047   3.882  25.020  0.00  0.00    +0.219 C 
ENDROOT
BRANCH  17  14
ATOM     14  C   UNL     1      -2.712   4.478  24.550  0.00  0.00    +0.075 C 
ATOM     15  C   UNL     1      -2.432   5.954  24.899  0.00  0.00    +0.013 C 
ATOM     16  C   UNL     1      -1.450   4.125  25.365  0.00  0.00    +0.013 C 
ATOM     19  C   UNL     1      -0.950   5.554  25.065  0.00  0.00    +0.001 C 
ENDBRANCH  17  14
BRANCH   8  12
ATOM     12  C   UNL     1      -3.083   0.773  23.032  0.00  0.00    +0.020 C 
BRANCH  12  20
ATOM     20  C   UNL     1      -1.882   1.649  22.702  0.00  0.00    +0.085 C 
BRANCH  20   5
ATOM      5  N   UNL     1      -0.663   1.043  23.236  0.00  0.00    -0.299 NA
ATOM      6  N   UNL     1       2.112   0.368  23.276  0.00  0.00    -0.313 N 
ATOM      7  N   UNL     1       3.705  -1.320  23.743  0.00  0.00    -0.240 NA
ATOM     21  C   UNL     1       0.348   2.071  23.509  0.00  0.00    +0.103 C 
ATOM     22  C   UNL     1      -0.127   0.051  22.296  0.00  0.00    +0.103 C 
ATOM     24  C   UNL     1       1.608   1.455  24.120  0.00  0.00    +0.122 C 
ATOM     25  C   UNL     1       1.117  -0.632  22.868  0.00  0.00    +0.122 C 
ATOM     26  C   UNL     1       3.446  -0.040  23.393  0.00  0.00    +0.121 A 
ATOM     27  C   UNL     1       4.424   0.908  23.138  0.00  0.00    +0.043 A 
ATOM     28  C   UNL     1       5.753   0.516  23.250  0.00  0.00    +0.005 A 
ATOM     29  C   UNL     1       5.008  -1.663  23.842  0.00  0.00    +0.113 A 
ATOM     30  C   UNL     1       6.060  -0.791  23.607  0.00  0.00    +0.020 A 
ENDBRANCH  20   5
ENDBRANCH  12  20
ENDBRANCH   8  12
BRANCH   9  18
ATOM     18  C   UNL     1      -4.719  -1.553  24.138  0.00  0.00    +0.124 C 
BRANCH  18  23
ATOM      3  O   UNL     1      -3.172  -3.316  23.474  0.00  0.00    -0.251 OA
ATOM     23  C   UNL     1      -3.707  -2.646  24.344  0.00  0.00    +0.305 C 
BRANCH  23   2
ATOM      2  O   UNL     1      -3.457  -2.794  25.671  0.00  0.00    -0.481 OA
ATOM     31  H   UNL     1      -4.106  -3.390  26.101  0.00  0.00    +0.295 HD
ENDBRANCH  23   2
ENDBRANCH  18  23
ENDBRANCH   9  18
TORSDOF 7
ENDMDL
MODEL 2
REMARK VINA RESULT:       0.0      1.453      4.608
REMARK  Name = 28960034
REMARK  7 active torsions:
REMARK  status: ('A' for Active; 'I' for Inactive)
REMARK    1  A    between atoms: O_2  and  C_23
REMARK    2  A    between atoms: N_5  and  C_20
REMARK    3  A    between atoms: C_8  and  C_12
REMARK    4  A    between atoms: C_9  and  C_18
REMARK    5  A    between atoms: C_12  and  C_20
REMARK    6  A    between atoms: C_14  and  C_17
REMARK    7  A    between atoms: C_18  and  C_23
REMARK                            x       y       z     vdW  Elec       q    Type
REMARK                         _______ _______ _______ _____ _____    ______ ____
ROOT
ATOM      1  O   UNL     1      -4.342  -0.824  26.493  0.00  0.00    -0.275 OA
ATOM      4  N   UNL     1      -4.609   0.855  24.915  0.00  0.00    -0.301 N 
ATOM      8  C   UNL     1      -3.700   2.681  23.502  0.00  0.00    +0.011 C 
ATOM      9  C   UNL     1      -4.310   3.704  24.495  0.00  0.00    +0.006 C 
ATOM     10  C   UNL     1      -4.501   1.368  23.545  0.00  0.00    +0.111 C 
ATOM     11  C   UNL     1      -4.452   3.106  25.906  0.00  0.00    +0.023 C 
ATOM     13  C   UNL     1      -5.211   1.782  25.874  0.00  0.00    +0.108 C 
ATOM     17  C   UNL     1      -4.209  -0.425  25.326  0.00  0.00    +0.219 C 
ENDROOT
BRANCH  17  14
ATOM     14  C   UNL     1      -3.583  -1.338  24.259  0.00  0.00    +0.075 C 
ATOM     15  C   UNL     1      -2.414  -2.244  24.697  0.00  0.00    +0.013 C 
ATOM     16  C   UNL     1      -4.346  -2.628  23.893  0.00  0.00    +0.013 C 
ATOM     19  C   UNL     1      -2.968  -3.302  23.719  0.00  0.00    +0.001 C 
ENDBRANCH  17  14
BRANCH   8  12
ATOM     12  C   UNL     1      -2.209   2.404  23.731  0.00  0.00    +0.020 C 
BRANCH  12  20
ATOM     20  C   UNL     1      -1.824   1.032  23.195  0.00  0.00    +0.085 C 
BRANCH  20   5
ATOM      5  N   UNL     1      -0.389   0.992  22.919  0.00  0.00    -0.299 NA
ATOM      6  N   UNL     1       2.331   0.234  23.353  0.00  0.00    -0.313 N 
ATOM      7  N   UNL     1       4.586   0.953  23.331  0.00  0.00    -0.240 NA
ATOM     21  C   UNL     1       0.049  -0.386  22.663  0.00  0.00    +0.103 C 
ATOM     22  C   UNL     1       0.369   1.557  24.042  0.00  0.00    +0.103 C 
ATOM     24  C   UNL     1       1.538  -0.435  22.317  0.00  0.00    +0.122 C 
ATOM     25  C   UNL     1       1.869   1.573  23.741  0.00  0.00    +0.122 C 
ATOM     26  C   UNL     1       3.695  -0.053  23.478  0.00  0.00    +0.121 A 
ATOM     27  C   UNL     1       4.045  -1.367  23.746  0.00  0.00    +0.043 A 
ATOM     28  C   UNL     1       5.397  -1.667  23.872  0.00  0.00    +0.005 A 
ATOM     29  C   UNL     1       5.890   0.623  23.460  0.00  0.00    +0.113 A 
ATOM     30  C   UNL     1       6.344  -0.659  23.728  0.00  0.00    +0.020 A 
ENDBRANCH  20   5
ENDBRANCH  12  20
ENDBRANCH   8  12
BRANCH   9  18
ATOM     18  C   UNL     1      -3.543   5.025  24.543  0.00  0.00    +0.124 C 
BRANCH  18  23
ATOM      3  O   UNL     1      -2.222   4.265  26.446  0.00  0.00    -0.251 OA
ATOM     23  C   UNL     1      -2.329   4.929  25.426  0.00  0.00    +0.305 C 
BRANCH  23   2
ATOM      2  O   UNL     1      -1.334   5.704  24.921  0.00  0.00    -0.481 OA
ATOM     31  H   UNL     1      -1.508   6.659  25.060  0.00  0.00    +0.295 HD
ENDBRANCH  23   2
ENDBRANCH  18  23
ENDBRANCH   9  18
TORSDOF 7
ENDMDL
MODEL 3
REMARK VINA RESULT:       0.6      1.351      4.352
REMARK  Name = 28960034
REMARK  7 active torsions:
REMARK  status: ('A' for Active; 'I' for Inactive)
REMARK    1  A    between atoms: O_2  and  C_23
REMARK    2  A    between atoms: N_5  and  C_20
REMARK    3  A    between atoms: C_8  and  C_12
REMARK    4  A    between atoms: C_9  and  C_18
REMARK    5  A    between atoms: C_12  and  C_20
REMARK    6  A    between atoms: C_14  and  C_17
REMARK    7  A    between atoms: C_18  and  C_23
REMARK                            x       y       z     vdW  Elec       q    Type
REMARK                         _______ _______ _______ _____ _____    ______ ____
ROOT
ATOM      1  O   UNL     1      -3.985  -1.018  26.669  0.00  0.00    -0.275 OA
ATOM      4  N   UNL     1      -4.598   0.608  25.133  0.00  0.00    -0.301 N 
ATOM      8  C   UNL     1      -4.057   2.545  23.678  0.00  0.00    +0.011 C 
ATOM      9  C   UNL     1      -4.731   3.471  24.724  0.00  0.00    +0.006 C 
ATOM     10  C   UNL     1      -4.661   1.132  23.765  0.00  0.00    +0.111 C 
ATOM     11  C   UNL     1      -4.686   2.858  26.134  0.00  0.00    +0.023 C 
ATOM     13  C   UNL     1      -5.253   1.441  26.142  0.00  0.00    +0.108 C 
ATOM     17  C   UNL     1      -3.993  -0.604  25.500  0.00  0.00    +0.219 C 
ENDROOT
BRANCH  17  14
ATOM     14  C   UNL     1      -3.325  -1.419  24.382  0.00  0.00    +0.075 C 
ATOM     15  C   UNL     1      -1.933  -2.016  24.674  0.00  0.00    +0.013 C 
ATOM     16  C   UNL     1      -3.817  -2.865  24.165  0.00  0.00    +0.013 C 
ATOM     19  C   UNL     1      -2.358  -3.227  23.816  0.00  0.00    +0.001 C 
ENDBRANCH  17  14
BRANCH   8  12
ATOM     12  C   UNL     1      -2.529   2.480  23.798  0.00  0.00    +0.020 C 
BRANCH  12  20
ATOM     20  C   UNL     1      -1.945   1.522  22.769  0.00  0.00    +0.085 C 
BRANCH  20   5
ATOM      5  N   UNL     1      -0.712   0.930  23.285  0.00  0.00    -0.299 NA
ATOM      6  N   UNL     1       2.081   0.330  23.311  0.00  0.00    -0.313 N 
ATOM      7  N   UNL     1       3.718  -1.330  23.723  0.00  0.00    -0.240 NA
ATOM     21  C   UNL     1       0.271   1.975  23.599  0.00  0.00    +0.103 C 
ATOM     22  C   UNL     1      -0.146  -0.012  22.311  0.00  0.00    +0.103 C 
ATOM     24  C   UNL     1       1.545   1.372  24.192  0.00  0.00    +0.122 C 
ATOM     25  C   UNL     1       1.115  -0.682  22.863  0.00  0.00    +0.122 C 
ATOM     26  C   UNL     1       3.425  -0.046  23.418  0.00  0.00    +0.121 A 
ATOM     27  C   UNL     1       4.377   0.937  23.201  0.00  0.00    +0.043 A 
ATOM     28  C   UNL     1       5.717   0.577  23.304  0.00  0.00    +0.005 A 
ATOM     29  C   UNL     1       5.030  -1.641  23.814  0.00  0.00    +0.113 A 
ATOM     30  C   UNL     1       6.058  -0.733  23.616  0.00  0.00    +0.020 A 
ENDBRANCH  20   5
ENDBRANCH  12  20
ENDBRANCH   8  12
BRANCH   9  18
ATOM     18  C   UNL     1      -4.155   4.887  24.732  0.00  0.00    +0.124 C 
BRANCH  18  23
ATOM      3  O   UNL     1      -1.804   5.459  25.037  0.00  0.00    -0.251 OA
ATOM     23  C   UNL     1      -2.833   4.943  25.448  0.00  0.00    +0.305 C 
BRANCH  23   2
ATOM      2  O   UNL     1      -2.939   4.326  26.653  0.00  0.00    -0.481 OA
ATOM     31  H   UNL     1      -2.061   4.167  27.060  0.00  0.00    +0.295 HD
ENDBRANCH  23   2
ENDBRANCH  18  23
ENDBRANCH   9  18
TORSDOF 7
ENDMDL
MODEL 4
REMARK VINA RESULT:       1.8      1.451      4.711
REMARK  Name = 28960034
REMARK  7 active torsions:
REMARK  status: ('A' for Active; 'I' for Inactive)
REMARK    1  A    between atoms: O_2  and  C_23
REMARK    2  A    between atoms: N_5  and  C_20
REMARK    3  A    between atoms: C_8  and  C_12
REMARK    4  A    between atoms: C_9  and  C_18
REMARK    5  A    between atoms: C_12  and  C_20
REMARK    6  A    between atoms: C_14  and  C_17
REMARK    7  A    between atoms: C_18  and  C_23
REMARK                            x       y       z     vdW  Elec       q    Type
REMARK                         _______ _______ _______ _____ _____    ______ ____
ROOT
ATOM      1  O   UNL     1      -0.606  -1.743  25.490  0.00  0.00    -0.275 OA
ATOM      4  N   UNL     1      -2.428  -0.308  25.523  0.00  0.00    -0.301 N 
ATOM      8  C   UNL     1      -3.890   1.383  24.444  0.00  0.00    +0.011 C 
ATOM      9  C   UNL     1      -3.185   2.477  25.287  0.00  0.00    +0.006 C 
ATOM     10  C   UNL     1      -3.812   0.029  25.173  0.00  0.00    +0.111 C 
ATOM     11  C   UNL     1      -1.755   2.058  25.674  0.00  0.00    +0.023 C 
ATOM     13  C   UNL     1      -1.741   0.688  26.347  0.00  0.00    +0.108 C 
ATOM     17  C   UNL     1      -1.773  -1.491  25.149  0.00  0.00    +0.219 C 
ENDROOT
BRANCH  17  14
ATOM     14  C   UNL     1      -2.562  -2.484  24.283  0.00  0.00    +0.075 C 
ATOM     15  C   UNL     1      -3.514  -3.458  25.008  0.00  0.00    +0.013 C 
ATOM     16  C   UNL     1      -3.801  -1.948  23.537  0.00  0.00    +0.013 C 
ATOM     19  C   UNL     1      -4.454  -3.322  23.791  0.00  0.00    +0.001 C 
ENDBRANCH  17  14
BRANCH   8  12
ATOM     12  C   UNL     1      -3.347   1.250  23.016  0.00  0.00    +0.020 C 
BRANCH  12  20
ATOM     20  C   UNL     1      -2.124   2.135  22.815  0.00  0.00    +0.085 C 
BRANCH  20   5
ATOM      5  N   UNL     1      -0.930   1.450  23.309  0.00  0.00    -0.299 NA
ATOM      6  N   UNL     1       1.801   0.614  23.268  0.00  0.00    -0.313 N 
ATOM      7  N   UNL     1       3.303  -1.171  23.670  0.00  0.00    -0.240 NA
ATOM     21  C   UNL     1       0.146   2.413  23.569  0.00  0.00    +0.103 C 
ATOM     22  C   UNL     1      -0.477   0.443  22.341  0.00  0.00    +0.103 C 
ATOM     24  C   UNL     1       1.383   1.716  24.139  0.00  0.00    +0.122 C 
ATOM     25  C   UNL     1       0.739  -0.320  22.872  0.00  0.00    +0.122 C 
ATOM     26  C   UNL     1       3.111   0.127  23.344  0.00  0.00    +0.121 A 
ATOM     27  C   UNL     1       4.136   1.020  23.076  0.00  0.00    +0.043 A 
ATOM     28  C   UNL     1       5.443   0.550  23.148  0.00  0.00    +0.005 A 
ATOM     29  C   UNL     1       4.586  -1.591  23.730  0.00  0.00    +0.113 A 
ATOM     30  C   UNL     1       5.681  -0.779  23.480  0.00  0.00    +0.020 A 
ENDBRANCH  20   5
ENDBRANCH  12  20
ENDBRANCH   8  12
BRANCH   9  18
ATOM     18  C   UNL     1      -3.180   3.847  24.610  0.00  0.00    +0.124 C 
BRANCH  18  23
ATOM      3  O   UNL     1      -1.388   5.442  25.044  0.00  0.00    -0.251 OA
ATOM     23  C   UNL     1      -2.398   4.856  25.405  0.00  0.00    +0.305 C 
BRANCH  23   2
ATOM      2  O   UNL     1      -2.983   5.036  26.617  0.00  0.00    -0.481 OA
ATOM     31  H   UNL     1      -3.307   5.954  26.733  0.00  0.00    +0.295 HD
ENDBRANCH  23   2
ENDBRANCH  18  23
ENDBRANCH   9  18
TORSDOF 7
ENDMDL
