MODEL 1
REMARK VINA RESULT:       3.7      0.000      0.000
REMARK  Name = 45361005
REMARK  9 active torsions:
REMARK  status: ('A' for Active; 'I' for Inactive)
REMARK    1  A    between atoms: N_3  and  C_17
REMARK    2  A    between atoms: N_4  and  C_19
REMARK    3  A    between atoms: N_6  and  C_25
REMARK    4  A    between atoms: N_8  and  C_28
REMARK    5  A    between atoms: C_14  and  C_18
REMARK    6  A    between atoms: C_17  and  C_20
REMARK    7  A    between atoms: C_18  and  C_21
REMARK    8  A    between atoms: C_21  and  C_22
REMARK    9  A    between atoms: C_28  and  C_31
REMARK                            x       y       z     vdW  Elec       q    Type
REMARK                         _______ _______ _______ _____ _____    ______ ____
ROOT
ATOM      1  O   UNL     1      -1.194   2.073  23.506  0.00  0.00    -0.274 OA
ATOM      3  N   UNL     1      -0.051  -0.331  23.965  0.00  0.00    -0.283 NA
ATOM      4  N   UNL     1      -3.330  -0.396  25.586  0.00  0.00    -0.296 NA
ATOM      5  N   UNL     1      -3.304   1.239  23.209  0.00  0.00    -0.312 N 
ATOM     10  C   UNL     1      -2.154  -1.032  24.953  0.00  0.00    +0.084 C 
ATOM     11  C   UNL     1      -1.505  -0.331  23.722  0.00  0.00    +0.161 C 
ATOM     12  C   UNL     1      -0.950  -1.198  25.898  0.00  0.00    +0.036 C 
ATOM     13  C   UNL     1       0.220  -1.370  24.952  0.00  0.00    +0.087 C 
ATOM     14  C   UNL     1      -4.530  -0.306  24.707  0.00  0.00    +0.074 C 
ATOM     15  C   UNL     1      -1.957   1.108  23.487  0.00  0.00    +0.232 C 
ATOM     16  C   UNL     1      -4.242   0.134  23.260  0.00  0.00    +0.123 C 
ATOM     19  C   UNL     1      -3.674  -1.070  26.850  0.00  0.00    +0.105 C 
ATOM     36  H   UNL     1      -3.666   2.169  23.019  0.00  0.00    +0.149 HD
ENDROOT
BRANCH   3  17
ATOM     17  C   UNL     1       0.737  -0.508  22.751  0.00  0.00    +0.159 C 
BRANCH  17  20
ATOM      6  N   UNL     1       2.931   0.669  23.072  0.00  0.00    -0.330 N 
ATOM      7  N   UNL     1       2.963  -1.545  23.262  0.00  0.00    -0.231 NA
ATOM     20  C   UNL     1       2.211  -0.492  23.031  0.00  0.00    +0.125 A 
ATOM     23  C   UNL     1       4.235   0.345  23.348  0.00  0.00    +0.069 A 
ATOM     24  C   UNL     1       4.230  -1.042  23.462  0.00  0.00    +0.089 A 
ATOM     25  C   UNL     1       2.414   2.004  22.862  0.00  0.00    +0.150 C 
ATOM     26  C   UNL     1       5.384   1.122  23.502  0.00  0.00    +0.028 A 
ATOM     27  C   UNL     1       5.431  -1.711  23.747  0.00  0.00    +0.030 A 
ATOM     29  C   UNL     1       6.571   0.440  23.785  0.00  0.00    +0.002 A 
ATOM     30  C   UNL     1       6.597  -0.952  23.907  0.00  0.00    +0.002 A 
ENDBRANCH  17  20
ENDBRANCH   3  17
BRANCH  14  18
ATOM     18  C   UNL     1      -5.558   0.682  25.298  0.00  0.00    +0.029 C 
BRANCH  18  21
ATOM     21  C   UNL     1      -5.809   1.831  24.340  0.00  0.00    +0.097 C 
BRANCH  21  22
ATOM      2  O   UNL     1      -4.448   3.751  23.770  0.00  0.00    -0.276 OA
ATOM      8  N   UNL     1      -4.681   3.154  26.002  0.00  0.00    -0.311 N 
ATOM     22  C   UNL     1      -4.909   3.017  24.640  0.00  0.00    +0.213 C 
ATOM     37  H   UNL     1      -5.081   2.486  26.654  0.00  0.00    +0.149 HD
BRANCH   8  28
ATOM     28  C   UNL     1      -3.855   4.207  26.542  0.00  0.00    +0.141 C 
BRANCH  28  31
ATOM      9  N   UNL     1      -0.340   2.861  26.171  0.00  0.00    -0.263 NA
ATOM     31  C   UNL     1      -2.426   4.083  26.099  0.00  0.00    -0.012 A 
ATOM     32  C   UNL     1      -1.855   5.021  25.246  0.00  0.00    +0.008 A 
ATOM     33  C   UNL     1      -1.633   3.031  26.528  0.00  0.00    +0.115 A 
ATOM     34  C   UNL     1      -0.528   4.880  24.854  0.00  0.00    +0.020 A 
ATOM     35  C   UNL     1       0.179   3.793  25.340  0.00  0.00    +0.111 A 
ENDBRANCH  28  31
ENDBRANCH   8  28
ENDBRANCH  21  22
ENDBRANCH  18  21
ENDBRANCH  14  18
TORSDOF 7
ENDMDL
MODEL 2
REMARK VINA RESULT:       5.2      2.062      2.959
REMARK  Name = 45361005
REMARK  9 active torsions:
REMARK  status: ('A' for Active; 'I' for Inactive)
REMARK    1  A    between atoms: N_3  and  C_17
REMARK    2  A    between atoms: N_4  and  C_19
REMARK    3  A    between atoms: N_6  and  C_25
REMARK    4  A    between atoms: N_8  and  C_28
REMARK    5  A    between atoms: C_14  and  C_18
REMARK    6  A    between atoms: C_17  and  C_20
REMARK    7  A    between atoms: C_18  and  C_21
REMARK    8  A    between atoms: C_21  and  C_22
REMARK    9  A    between atoms: C_28  and  C_31
REMARK                            x       y       z     vdW  Elec       q    Type
REMARK                         _______ _______ _______ _____ _____    ______ ____
ROOT
ATOM      1  O   UNL     1      -0.020   1.244  24.437  0.00  0.00    -0.274 OA
ATOM      3  N   UNL     1      -1.280  -1.145  24.383  0.00  0.00    -0.283 NA
ATOM      4  N   UNL     1      -3.835   1.380  25.082  0.00  0.00    -0.296 NA
ATOM      5  N   UNL     1      -1.713   2.388  23.407  0.00  0.00    -0.312 N 
ATOM     10  C   UNL     1      -3.374   0.067  24.579  0.00  0.00    +0.084 C 
ATOM     11  C   UNL     1      -2.018  -0.000  23.816  0.00  0.00    +0.161 C 
ATOM     12  C   UNL     1      -3.174  -0.989  25.682  0.00  0.00    +0.036 C 
ATOM     13  C   UNL     1      -2.261  -2.007  25.034  0.00  0.00    +0.087 C 
ATOM     14  C   UNL     1      -4.113   2.385  24.017  0.00  0.00    +0.074 C 
ATOM     15  C   UNL     1      -1.145   1.246  23.940  0.00  0.00    +0.232 C 
ATOM     16  C   UNL     1      -3.066   2.441  22.889  0.00  0.00    +0.123 C 
ATOM     19  C   UNL     1      -5.010   1.224  25.956  0.00  0.00    +0.105 C 
ATOM     36  H   UNL     1      -1.174   3.248  23.435  0.00  0.00    +0.149 HD
ENDROOT
BRANCH   3  17
ATOM     17  C   UNL     1      -0.485  -1.865  23.397  0.00  0.00    +0.159 C 
BRANCH  17  20
ATOM      6  N   UNL     1       1.336  -0.539  22.288  0.00  0.00    -0.330 N 
ATOM      7  N   UNL     1       1.880  -1.573  24.179  0.00  0.00    -0.231 NA
ATOM     20  C   UNL     1       0.919  -1.340  23.314  0.00  0.00    +0.125 A 
ATOM     23  C   UNL     1       2.656  -0.234  22.505  0.00  0.00    +0.069 A 
ATOM     24  C   UNL     1       2.973  -0.891  23.690  0.00  0.00    +0.089 A 
ATOM     25  C   UNL     1       0.534  -0.091  21.172  0.00  0.00    +0.150 C 
ATOM     26  C   UNL     1       3.572   0.536  21.787  0.00  0.00    +0.028 A 
ATOM     27  C   UNL     1       4.275  -0.785  24.206  0.00  0.00    +0.030 A 
ATOM     29  C   UNL     1       4.864   0.631  22.315  0.00  0.00    +0.002 A 
ATOM     30  C   UNL     1       5.211  -0.017  23.503  0.00  0.00    +0.002 A 
ENDBRANCH  17  20
ENDBRANCH   3  17
BRANCH  14  18
ATOM     18  C   UNL     1      -4.218   3.799  24.625  0.00  0.00    +0.029 C 
BRANCH  18  21
ATOM     21  C   UNL     1      -3.469   3.874  25.942  0.00  0.00    +0.097 C 
BRANCH  21  22
ATOM      2  O   UNL     1      -1.557   5.082  25.078  0.00  0.00    -0.276 OA
ATOM      8  N   UNL     1      -1.205   3.178  26.359  0.00  0.00    -0.311 N 
ATOM     22  C   UNL     1      -1.988   4.135  25.730  0.00  0.00    +0.213 C 
ATOM     37  H   UNL     1      -1.644   2.410  26.859  0.00  0.00    +0.149 HD
BRANCH   8  28
ATOM     28  C   UNL     1       0.237   3.206  26.305  0.00  0.00    +0.141 C 
BRANCH  28  31
ATOM      9  N   UNL     1       2.851   2.660  28.982  0.00  0.00    -0.263 NA
ATOM     31  C   UNL     1       0.855   2.915  27.641  0.00  0.00    -0.012 A 
ATOM     32  C   UNL     1       0.066   2.633  28.751  0.00  0.00    +0.008 A 
ATOM     33  C   UNL     1       2.231   2.916  27.808  0.00  0.00    +0.115 A 
ATOM     34  C   UNL     1       0.668   2.366  29.976  0.00  0.00    +0.020 A 
ATOM     35  C   UNL     1       2.051   2.391  30.038  0.00  0.00    +0.111 A 
ENDBRANCH  28  31
ENDBRANCH   8  28
ENDBRANCH  21  22
ENDBRANCH  18  21
ENDBRANCH  14  18
TORSDOF 7
ENDMDL
MODEL 3
REMARK VINA RESULT:       6.7      0.462      1.257
REMARK  Name = 45361005
REMARK  9 active torsions:
REMARK  status: ('A' for Active; 'I' for Inactive)
REMARK    1  A    between atoms: N_3  and  C_17
REMARK    2  A    between atoms: N_4  and  C_19
REMARK    3  A    between atoms: N_6  and  C_25
REMARK    4  A    between atoms: N_8  and  C_28
REMARK    5  A    between atoms: C_14  and  C_18
REMARK    6  A    between atoms: C_17  and  C_20
REMARK    7  A    between atoms: C_18  and  C_21
REMARK    8  A    between atoms: C_21  and  C_22
REMARK    9  A    between atoms: C_28  and  C_31
REMARK                            x       y       z     vdW  Elec       q    Type
REMARK                         _______ _______ _______ _____ _____    ______ ____
ROOT
ATOM      1  O   UNL     1      -1.389   2.238  23.281  0.00  0.00    -0.274 OA
ATOM      3  N   UNL     1      -0.106  -0.060  23.886  0.00  0.00    -0.283 NA
ATOM      4  N   UNL     1      -3.359  -0.198  25.555  0.00  0.00    -0.296 NA
ATOM      5  N   UNL     1      -3.451   1.268  23.072  0.00  0.00    -0.312 N 
ATOM     10  C   UNL     1      -2.156  -0.809  24.949  0.00  0.00    +0.084 C 
ATOM     11  C   UNL     1      -1.561  -0.159  23.665  0.00  0.00    +0.161 C 
ATOM     12  C   UNL     1      -0.934  -0.842  25.887  0.00  0.00    +0.036 C 
ATOM     13  C   UNL     1       0.234  -1.013  24.937  0.00  0.00    +0.087 C 
ATOM     14  C   UNL     1      -4.572  -0.236  24.689  0.00  0.00    +0.074 C 
ATOM     15  C   UNL     1      -2.096   1.232  23.339  0.00  0.00    +0.232 C 
ATOM     16  C   UNL     1      -4.324   0.119  23.211  0.00  0.00    +0.123 C 
ATOM     19  C   UNL     1      -3.650  -0.802  26.867  0.00  0.00    +0.105 C 
ATOM     36  H   UNL     1      -3.867   2.162  22.824  0.00  0.00    +0.149 HD
ENDROOT
BRANCH   3  17
ATOM     17  C   UNL     1       0.678  -0.277  22.676  0.00  0.00    +0.159 C 
BRANCH  17  20
ATOM      6  N   UNL     1       2.855  -1.165  23.556  0.00  0.00    -0.330 N 
ATOM      7  N   UNL     1       2.920   0.846  22.611  0.00  0.00    -0.231 NA
ATOM     20  C   UNL     1       2.152  -0.171  22.935  0.00  0.00    +0.125 A 
ATOM     23  C   UNL     1       4.164  -0.765  23.639  0.00  0.00    +0.069 A 
ATOM     24  C   UNL     1       4.179   0.493  23.044  0.00  0.00    +0.089 A 
ATOM     25  C   UNL     1       2.318  -2.418  24.041  0.00  0.00    +0.150 C 
ATOM     26  C   UNL     1       5.301  -1.375  24.169  0.00  0.00    +0.028 A 
ATOM     27  C   UNL     1       5.391   1.198  22.962  0.00  0.00    +0.030 A 
ATOM     29  C   UNL     1       6.499  -0.659  24.080  0.00  0.00    +0.002 A 
ATOM     30  C   UNL     1       6.546   0.605  23.487  0.00  0.00    +0.002 A 
ENDBRANCH  17  20
ENDBRANCH   3  17
BRANCH  14  18
ATOM     18  C   UNL     1      -5.648   0.730  25.226  0.00  0.00    +0.029 C 
BRANCH  18  21
ATOM     21  C   UNL     1      -5.825   1.910  24.288  0.00  0.00    +0.097 C 
BRANCH  21  22
ATOM      2  O   UNL     1      -4.481   3.874  23.845  0.00  0.00    -0.276 OA
ATOM      8  N   UNL     1      -4.631   3.076  26.020  0.00  0.00    -0.311 N 
ATOM     22  C   UNL     1      -4.910   3.064  24.661  0.00  0.00    +0.213 C 
ATOM     37  H   UNL     1      -5.008   2.352  26.623  0.00  0.00    +0.149 HD
BRANCH   8  28
ATOM     28  C   UNL     1      -3.782   4.076  26.622  0.00  0.00    +0.141 C 
BRANCH  28  31
ATOM      9  N   UNL     1      -0.279   2.777  26.041  0.00  0.00    -0.263 NA
ATOM     31  C   UNL     1      -2.370   3.989  26.121  0.00  0.00    -0.012 A 
ATOM     32  C   UNL     1      -1.832   4.983  25.311  0.00  0.00    +0.008 A 
ATOM     33  C   UNL     1      -1.558   2.916  26.454  0.00  0.00    +0.115 A 
ATOM     34  C   UNL     1      -0.520   4.875  24.864  0.00  0.00    +0.020 A 
ATOM     35  C   UNL     1       0.208   3.763  25.254  0.00  0.00    +0.111 A 
ENDBRANCH  28  31
ENDBRANCH   8  28
ENDBRANCH  21  22
ENDBRANCH  18  21
ENDBRANCH  14  18
TORSDOF 7
ENDMDL
MODEL 4
REMARK VINA RESULT:       7.0      1.349      1.916
REMARK  Name = 45361005
REMARK  9 active torsions:
REMARK  status: ('A' for Active; 'I' for Inactive)
REMARK    1  A    between atoms: N_3  and  C_17
REMARK    2  A    between atoms: N_4  and  C_19
REMARK    3  A    between atoms: N_6  and  C_25
REMARK    4  A    between atoms: N_8  and  C_28
REMARK    5  A    between atoms: C_14  and  C_18
REMARK    6  A    between atoms: C_17  and  C_20
REMARK    7  A    between atoms: C_18  and  C_21
REMARK    8  A    between atoms: C_21  and  C_22
REMARK    9  A    between atoms: C_28  and  C_31
REMARK                            x       y       z     vdW  Elec       q    Type
REMARK                         _______ _______ _______ _____ _____    ______ ____
ROOT
ATOM      1  O   UNL     1      -2.458   2.714  22.990  0.00  0.00    -0.274 OA
ATOM      3  N   UNL     1      -0.267   1.423  23.899  0.00  0.00    -0.283 NA
ATOM      4  N   UNL     1      -3.168  -0.297  25.318  0.00  0.00    -0.296 NA
ATOM      5  N   UNL     1      -3.707   0.817  22.711  0.00  0.00    -0.312 N 
ATOM     10  C   UNL     1      -1.761  -0.228  24.865  0.00  0.00    +0.084 C 
ATOM     11  C   UNL     1      -1.435   0.584  23.576  0.00  0.00    +0.161 C 
ATOM     12  C   UNL     1      -0.805   0.407  25.893  0.00  0.00    +0.036 C 
ATOM     13  C   UNL     1       0.387   0.822  25.056  0.00  0.00    +0.087 C 
ATOM     14  C   UNL     1      -4.087  -0.985  24.368  0.00  0.00    +0.074 C 
ATOM     15  C   UNL     1      -2.560   1.491  23.084  0.00  0.00    +0.232 C 
ATOM     16  C   UNL     1      -3.888  -0.611  22.887  0.00  0.00    +0.123 C 
ATOM     19  C   UNL     1      -3.259  -0.913  26.652  0.00  0.00    +0.105 C 
ATOM     36  H   UNL     1      -4.487   1.360  22.352  0.00  0.00    +0.149 HD
ENDROOT
BRANCH   3  17
ATOM     17  C   UNL     1       0.650   1.593  22.778  0.00  0.00    +0.159 C 
BRANCH  17  20
ATOM      6  N   UNL     1       2.151  -0.380  23.180  0.00  0.00    -0.330 N 
ATOM      7  N   UNL     1       3.125   1.618  23.185  0.00  0.00    -0.231 NA
ATOM     20  C   UNL     1       1.989   0.971  23.048  0.00  0.00    +0.125 A 
ATOM     23  C   UNL     1       3.479  -0.621  23.418  0.00  0.00    +0.069 A 
ATOM     24  C   UNL     1       4.067   0.641  23.417  0.00  0.00    +0.089 A 
ATOM     25  C   UNL     1       1.109  -1.379  23.086  0.00  0.00    +0.150 C 
ATOM     26  C   UNL     1       4.197  -1.800  23.628  0.00  0.00    +0.028 A 
ATOM     27  C   UNL     1       5.449   0.753  23.636  0.00  0.00    +0.030 A 
ATOM     29  C   UNL     1       5.572  -1.669  23.846  0.00  0.00    +0.002 A 
ATOM     30  C   UNL     1       6.190  -0.416  23.850  0.00  0.00    +0.002 A 
ENDBRANCH  17  20
ENDBRANCH   3  17
BRANCH  14  18
ATOM     18  C   UNL     1      -5.557  -0.686  24.730  0.00  0.00    +0.029 C 
BRANCH  18  21
ATOM     21  C   UNL     1      -5.923   0.738  24.356  0.00  0.00    +0.097 C 
BRANCH  21  22
ATOM      2  O   UNL     1      -6.080   1.575  26.622  0.00  0.00    -0.276 OA
ATOM      8  N   UNL     1      -4.802   2.741  25.073  0.00  0.00    -0.311 N 
ATOM     22  C   UNL     1      -5.629   1.707  25.487  0.00  0.00    +0.213 C 
ATOM     37  H   UNL     1      -4.493   2.789  24.107  0.00  0.00    +0.149 HD
BRANCH   8  28
ATOM     28  C   UNL     1      -4.377   3.792  25.967  0.00  0.00    +0.141 C 
BRANCH  28  31
ATOM      9  N   UNL     1      -1.473   5.854  24.697  0.00  0.00    -0.263 NA
ATOM     31  C   UNL     1      -2.970   4.233  25.686  0.00  0.00    -0.012 A 
ATOM     32  C   UNL     1      -1.882   3.482  26.118  0.00  0.00    +0.008 A 
ATOM     33  C   UNL     1      -2.713   5.401  24.986  0.00  0.00    +0.115 A 
ATOM     34  C   UNL     1      -0.590   3.916  25.841  0.00  0.00    +0.020 A 
ATOM     35  C   UNL     1      -0.441   5.097  25.134  0.00  0.00    +0.111 A 
ENDBRANCH  28  31
ENDBRANCH   8  28
ENDBRANCH  21  22
ENDBRANCH  18  21
ENDBRANCH  14  18
TORSDOF 7
ENDMDL
MODEL 5
REMARK VINA RESULT:       7.1      1.456      2.475
REMARK  Name = 45361005
REMARK  9 active torsions:
REMARK  status: ('A' for Active; 'I' for Inactive)
REMARK    1  A    between atoms: N_3  and  C_17
REMARK    2  A    between atoms: N_4  and  C_19
REMARK    3  A    between atoms: N_6  and  C_25
REMARK    4  A    between atoms: N_8  and  C_28
REMARK    5  A    between atoms: C_14  and  C_18
REMARK    6  A    between atoms: C_17  and  C_20
REMARK    7  A    between atoms: C_18  and  C_21
REMARK    8  A    between atoms: C_21  and  C_22
REMARK    9  A    between atoms: C_28  and  C_31
REMARK                            x       y       z     vdW  Elec       q    Type
REMARK                         _______ _______ _______ _____ _____    ______ ____
ROOT
ATOM      1  O   UNL     1      -3.238  -2.208  23.602  0.00  0.00    -0.274 OA
ATOM      3  N   UNL     1      -1.042  -0.660  23.326  0.00  0.00    -0.283 NA
ATOM      4  N   UNL     1      -3.870   1.604  23.843  0.00  0.00    -0.296 NA
ATOM      5  N   UNL     1      -4.198  -0.909  25.223  0.00  0.00    -0.312 N 
ATOM     10  C   UNL     1      -2.436   1.246  23.892  0.00  0.00    +0.084 C 
ATOM     11  C   UNL     1      -2.047  -0.205  24.305  0.00  0.00    +0.161 C 
ATOM     12  C   UNL     1      -1.707   1.400  22.543  0.00  0.00    +0.036 C 
ATOM     13  C   UNL     1      -0.476   0.533  22.707  0.00  0.00    +0.087 C 
ATOM     14  C   UNL     1      -4.567   1.540  25.158  0.00  0.00    +0.074 C 
ATOM     15  C   UNL     1      -3.201  -1.205  24.313  0.00  0.00    +0.232 C 
ATOM     16  C   UNL     1      -4.224   0.305  26.014  0.00  0.00    +0.123 C 
ATOM     19  C   UNL     1      -4.059   2.930  23.230  0.00  0.00    +0.105 C 
ATOM     36  H   UNL     1      -4.985  -1.547  25.295  0.00  0.00    +0.149 HD
ENDROOT
BRANCH   3  17
ATOM     17  C   UNL     1      -0.015  -1.515  23.908  0.00  0.00    +0.159 C 
BRANCH  17  20
ATOM      6  N   UNL     1       2.483  -1.606  24.143  0.00  0.00    -0.330 N 
ATOM      7  N   UNL     1       1.663   0.099  22.976  0.00  0.00    -0.231 NA
ATOM     20  C   UNL     1       1.366  -0.984  23.660  0.00  0.00    +0.125 A 
ATOM     23  C   UNL     1       3.574  -0.876  23.745  0.00  0.00    +0.069 A 
ATOM     24  C   UNL     1       3.037   0.183  23.019  0.00  0.00    +0.089 A 
ATOM     25  C   UNL     1       2.513  -2.816  24.933  0.00  0.00    +0.150 C 
ATOM     26  C   UNL     1       4.944  -1.046  23.952  0.00  0.00    +0.028 A 
ATOM     27  C   UNL     1       3.901   1.137  22.458  0.00  0.00    +0.030 A 
ATOM     29  C   UNL     1       5.789  -0.086  23.387  0.00  0.00    +0.002 A 
ATOM     30  C   UNL     1       5.280   0.987  22.653  0.00  0.00    +0.002 A 
ENDBRANCH  17  20
ENDBRANCH   3  17
BRANCH  14  18
ATOM     18  C   UNL     1      -6.097   1.557  24.960  0.00  0.00    +0.029 C 
BRANCH  18  21
ATOM     21  C   UNL     1      -6.740   2.612  25.841  0.00  0.00    +0.097 C 
BRANCH  21  22
ATOM      2  O   UNL     1      -6.291   4.973  25.554  0.00  0.00    -0.276 OA
ATOM      8  N   UNL     1      -4.636   3.609  26.442  0.00  0.00    -0.311 N 
ATOM     22  C   UNL     1      -5.894   3.870  25.918  0.00  0.00    +0.213 C 
ATOM     37  H   UNL     1      -4.378   2.660  26.696  0.00  0.00    +0.149 HD
BRANCH   8  28
ATOM     28  C   UNL     1      -3.645   4.644  26.616  0.00  0.00    +0.141 C 
BRANCH  28  31
ATOM      9  N   UNL     1      -0.463   2.692  26.011  0.00  0.00    -0.263 NA
ATOM     31  C   UNL     1      -2.314   4.248  26.046  0.00  0.00    -0.012 A 
ATOM     32  C   UNL     1      -1.695   5.017  25.067  0.00  0.00    +0.008 A 
ATOM     33  C   UNL     1      -1.662   3.104  26.479  0.00  0.00    +0.115 A 
ATOM     34  C   UNL     1      -0.461   4.625  24.559  0.00  0.00    +0.020 A 
ATOM     35  C   UNL     1       0.108   3.466  25.060  0.00  0.00    +0.111 A 
ENDBRANCH  28  31
ENDBRANCH   8  28
ENDBRANCH  21  22
ENDBRANCH  18  21
ENDBRANCH  14  18
TORSDOF 7
ENDMDL
