MODEL 1
REMARK VINA RESULT:       1.2      0.000      0.000
REMARK  Name = 75536427
REMARK  10 active torsions:
REMARK  status: ('A' for Active; 'I' for Inactive)
REMARK    1  A    between atoms: O_2  and  C_13
REMARK    2  A    between atoms: O_6  and  C_32
REMARK    3  A    between atoms: O_6  and  C_33
REMARK    4  A    between atoms: N_7  and  C_17
REMARK    5  A    between atoms: N_8  and  C_20
REMARK    6  A    between atoms: N_10  and  C_27
REMARK    7  A    between atoms: C_11  and  C_16
REMARK    8  A    between atoms: C_12  and  C_17
REMARK    9  A    between atoms: C_16  and  C_18
REMARK   10  A    between atoms: C_20  and  C_21
REMARK                            x       y       z     vdW  Elec       q    Type
REMARK                         _______ _______ _______ _____ _____    ______ ____
ROOT
ATOM      1  O   UNL     1      -3.543  -0.165  25.031  0.00  0.00    -0.369 OA
ATOM     11  C   UNL     1      -4.564  -0.462  24.076  0.00  0.00    +0.125 C 
ATOM     12  C   UNL     1      -2.270  -0.771  24.771  0.00  0.00    +0.164 C 
ATOM     13  C   UNL     1      -2.395  -2.294  24.636  0.00  0.00    +0.145 C 
ATOM     14  C   UNL     1      -4.805  -1.969  23.995  0.00  0.00    +0.034 C 
ATOM     15  C   UNL     1      -3.506  -2.704  23.673  0.00  0.00    +0.036 C 
ENDROOT
BRANCH  13   2
ATOM      2  O   UNL     1      -2.702  -2.847  25.918  0.00  0.00    -0.389 OA
ATOM     34  H   UNL     1      -1.930  -2.706  26.492  0.00  0.00    +0.210 HD
ENDBRANCH  13   2
BRANCH  11  16
ATOM     16  C   UNL     1      -5.829   0.265  24.516  0.00  0.00    +0.090 C 
BRANCH  16  18
ATOM      3  O   UNL     1      -5.728   3.200  26.604  0.00  0.00    -0.358 OA
ATOM      9  N   UNL     1      -6.294   1.998  26.200  0.00  0.00    -0.083 NA
ATOM     18  C   UNL     1      -5.513   1.565  25.206  0.00  0.00    +0.086 A 
ATOM     19  C   UNL     1      -4.450   2.445  24.941  0.00  0.00    +0.072 A 
ATOM     21  C   UNL     1      -4.631   3.456  25.847  0.00  0.00    +0.151 A 
BRANCH  21  20
ATOM     20  C   UNL     1      -3.906   4.697  26.144  0.00  0.00    +0.161 C 
BRANCH  20   8
ATOM      4  O   UNL     1      -0.111   3.600  24.723  0.00  0.00    -0.377 OA
ATOM      8  N   UNL     1      -2.455   4.562  26.020  0.00  0.00    -0.291 NA
ATOM     22  C   UNL     1      -2.054   3.151  26.106  0.00  0.00    +0.113 C 
ATOM     23  C   UNL     1      -1.982   5.145  24.757  0.00  0.00    +0.113 C 
ATOM     24  C   UNL     1      -0.538   3.034  25.963  0.00  0.00    +0.175 C 
ATOM     25  C   UNL     1      -0.470   4.981  24.645  0.00  0.00    +0.175 C 
ENDBRANCH  20   8
ENDBRANCH  21  20
ENDBRANCH  16  18
ENDBRANCH  11  16
BRANCH  12  17
ATOM     17  C   UNL     1      -1.586  -0.120  23.570  0.00  0.00    +0.140 C 
BRANCH  17   7
ATOM      5  O   UNL     1       0.975   1.098  23.975  0.00  0.00    -0.253 OA
ATOM      7  N   UNL     1      -0.307  -0.715  23.325  0.00  0.00    -0.297 N 
ATOM     10  N   UNL     1       1.991  -0.879  23.220  0.00  0.00    -0.269 N 
ATOM     26  C   UNL     1       0.913  -0.053  23.547  0.00  0.00    +0.304 C 
ATOM     35  H   UNL     1      -0.282  -1.649  22.926  0.00  0.00    +0.150 HD
ATOM     36  H   UNL     1       1.766  -1.810  22.879  0.00  0.00    +0.156 HD
BRANCH  10  27
ATOM     27  C   UNL     1       3.372  -0.580  23.304  0.00  0.00    +0.035 A 
ATOM     28  C   UNL     1       4.247  -1.487  23.901  0.00  0.00    +0.027 A 
ATOM     29  C   UNL     1       3.857   0.623  22.792  0.00  0.00    +0.027 A 
ATOM     30  C   UNL     1       5.607  -1.192  23.985  0.00  0.00    +0.047 A 
ATOM     31  C   UNL     1       5.217   0.919  22.876  0.00  0.00    +0.047 A 
ATOM     32  C   UNL     1       6.092   0.010  23.472  0.00  0.00    +0.120 A 
BRANCH  32   6
ATOM      6  O   UNL     1       7.421   0.299  23.554  0.00  0.00    -0.495 OA
ATOM     33  C   UNL     1       8.312  -0.533  22.812  0.00  0.00    +0.277 C 
ENDBRANCH  32   6
ENDBRANCH  10  27
ENDBRANCH  17   7
ENDBRANCH  12  17
TORSDOF 9
ENDMDL
MODEL 2
REMARK VINA RESULT:       2.2      2.414      4.383
REMARK  Name = 75536427
REMARK  10 active torsions:
REMARK  status: ('A' for Active; 'I' for Inactive)
REMARK    1  A    between atoms: O_2  and  C_13
REMARK    2  A    between atoms: O_6  and  C_32
REMARK    3  A    between atoms: O_6  and  C_33
REMARK    4  A    between atoms: N_7  and  C_17
REMARK    5  A    between atoms: N_8  and  C_20
REMARK    6  A    between atoms: N_10  and  C_27
REMARK    7  A    between atoms: C_11  and  C_16
REMARK    8  A    between atoms: C_12  and  C_17
REMARK    9  A    between atoms: C_16  and  C_18
REMARK   10  A    between atoms: C_20  and  C_21
REMARK                            x       y       z     vdW  Elec       q    Type
REMARK                         _______ _______ _______ _____ _____    ______ ____
ROOT
ATOM      1  O   UNL     1      -4.143   2.334  25.720  0.00  0.00    -0.369 OA
ATOM     11  C   UNL     1      -4.596   3.412  24.898  0.00  0.00    +0.125 C 
ATOM     12  C   UNL     1      -4.832   1.092  25.532  0.00  0.00    +0.164 C 
ATOM     13  C   UNL     1      -6.345   1.259  25.723  0.00  0.00    +0.145 C 
ATOM     14  C   UNL     1      -6.078   3.692  25.144  0.00  0.00    +0.034 C 
ATOM     15  C   UNL     1      -6.908   2.430  24.921  0.00  0.00    +0.036 C 
ENDROOT
BRANCH  13   2
ATOM      2  O   UNL     1      -6.610   1.510  27.106  0.00  0.00    -0.389 OA
ATOM     34  H   UNL     1      -6.481   0.675  27.586  0.00  0.00    +0.210 HD
ENDBRANCH  13   2
BRANCH  11  16
ATOM     16  C   UNL     1      -3.751   4.634  25.236  0.00  0.00    +0.090 C 
BRANCH  16  18
ATOM      3  O   UNL     1      -0.152   4.441  25.228  0.00  0.00    -0.358 OA
ATOM      9  N   UNL     1      -1.352   5.045  24.874  0.00  0.00    -0.083 NA
ATOM     18  C   UNL     1      -2.300   4.276  25.416  0.00  0.00    +0.086 A 
ATOM     19  C   UNL     1      -1.763   3.182  26.117  0.00  0.00    +0.072 A 
ATOM     21  C   UNL     1      -0.410   3.332  25.968  0.00  0.00    +0.151 A 
BRANCH  21  20
ATOM     20  C   UNL     1       0.755   2.568  26.430  0.00  0.00    +0.161 C 
BRANCH  20   8
ATOM      4  O   UNL     1       2.352   2.258  30.299  0.00  0.00    -0.377 OA
ATOM      8  N   UNL     1       1.157   2.898  27.796  0.00  0.00    -0.291 NA
ATOM     22  C   UNL     1       0.490   2.015  28.762  0.00  0.00    +0.113 C 
ATOM     23  C   UNL     1       2.615   2.801  27.949  0.00  0.00    +0.113 C 
ATOM     24  C   UNL     1       0.933   2.370  30.180  0.00  0.00    +0.175 C 
ATOM     25  C   UNL     1       3.009   3.137  29.384  0.00  0.00    +0.175 C 
ENDBRANCH  20   8
ENDBRANCH  21  20
ENDBRANCH  16  18
ENDBRANCH  11  16
BRANCH  12  17
ATOM     17  C   UNL     1      -4.468   0.458  24.191  0.00  0.00    +0.140 C 
BRANCH  17   7
ATOM      5  O   UNL     1      -2.069   1.627  23.150  0.00  0.00    -0.253 OA
ATOM      7  N   UNL     1      -3.153  -0.107  24.231  0.00  0.00    -0.297 N 
ATOM     10  N   UNL     1      -0.878  -0.258  23.882  0.00  0.00    -0.269 N 
ATOM     26  C   UNL     1      -2.019   0.528  23.697  0.00  0.00    +0.304 C 
ATOM     35  H   UNL     1      -3.043  -1.036  24.627  0.00  0.00    +0.150 HD
ATOM     36  H   UNL     1      -1.009  -1.147  24.359  0.00  0.00    +0.156 HD
BRANCH  10  27
ATOM     27  C   UNL     1       0.449   0.030  23.487  0.00  0.00    +0.035 A 
ATOM     28  C   UNL     1       1.187  -0.918  22.779  0.00  0.00    +0.027 A 
ATOM     29  C   UNL     1       1.020   1.262  23.806  0.00  0.00    +0.027 A 
ATOM     30  C   UNL     1       2.496  -0.634  22.389  0.00  0.00    +0.047 A 
ATOM     31  C   UNL     1       2.329   1.547  23.417  0.00  0.00    +0.047 A 
ATOM     32  C   UNL     1       3.066   0.598  22.708  0.00  0.00    +0.120 A 
BRANCH  32   6
ATOM      6  O   UNL     1       4.345   0.875  22.328  0.00  0.00    -0.495 OA
ATOM     33  C   UNL     1       5.392   0.289  23.100  0.00  0.00    +0.277 C 
ENDBRANCH  32   6
ENDBRANCH  10  27
ENDBRANCH  17   7
ENDBRANCH  12  17
TORSDOF 9
ENDMDL
MODEL 3
REMARK VINA RESULT:       2.4      1.707      7.694
REMARK  Name = 75536427
REMARK  10 active torsions:
REMARK  status: ('A' for Active; 'I' for Inactive)
REMARK    1  A    between atoms: O_2  and  C_13
REMARK    2  A    between atoms: O_6  and  C_32
REMARK    3  A    between atoms: O_6  and  C_33
REMARK    4  A    between atoms: N_7  and  C_17
REMARK    5  A    between atoms: N_8  and  C_20
REMARK    6  A    between atoms: N_10  and  C_27
REMARK    7  A    between atoms: C_11  and  C_16
REMARK    8  A    between atoms: C_12  and  C_17
REMARK    9  A    between atoms: C_16  and  C_18
REMARK   10  A    between atoms: C_20  and  C_21
REMARK                            x       y       z     vdW  Elec       q    Type
REMARK                         _______ _______ _______ _____ _____    ______ ____
ROOT
ATOM      1  O   UNL     1      -2.081   4.046  26.331  0.00  0.00    -0.369 OA
ATOM     11  C   UNL     1      -1.531   3.235  25.290  0.00  0.00    +0.125 C 
ATOM     12  C   UNL     1      -2.964   5.086  25.892  0.00  0.00    +0.164 C 
ATOM     13  C   UNL     1      -2.285   5.995  24.860  0.00  0.00    +0.145 C 
ATOM     14  C   UNL     1      -0.743   4.090  24.299  0.00  0.00    +0.034 C 
ATOM     15  C   UNL     1      -1.619   5.206  23.736  0.00  0.00    +0.036 C 
ENDROOT
BRANCH  13   2
ATOM      2  O   UNL     1      -1.271   6.761  25.516  0.00  0.00    -0.389 OA
ATOM     34  H   UNL     1      -0.446   6.648  25.014  0.00  0.00    +0.210 HD
ENDBRANCH  13   2
BRANCH  11  16
ATOM     16  C   UNL     1      -0.629   2.196  25.945  0.00  0.00    +0.090 C 
BRANCH  16  18
ATOM      3  O   UNL     1       0.156  -0.661  23.895  0.00  0.00    -0.358 OA
ATOM      9  N   UNL     1      -0.541  -0.041  24.924  0.00  0.00    -0.083 NA
ATOM     18  C   UNL     1      -0.086   1.216  24.941  0.00  0.00    +0.086 A 
ATOM     19  C   UNL     1       0.890   1.443  23.956  0.00  0.00    +0.072 A 
ATOM     21  C   UNL     1       1.005   0.231  23.326  0.00  0.00    +0.151 A 
BRANCH  21  20
ATOM     20  C   UNL     1       1.825  -0.262  22.214  0.00  0.00    +0.161 C 
BRANCH  20   8
ATOM      4  O   UNL     1       5.433  -0.189  24.357  0.00  0.00    -0.377 OA
ATOM      8  N   UNL     1       3.242  -0.387  22.552  0.00  0.00    -0.291 NA
ATOM     22  C   UNL     1       3.802   0.914  22.939  0.00  0.00    +0.113 C 
ATOM     23  C   UNL     1       3.437  -1.362  23.634  0.00  0.00    +0.113 C 
ATOM     24  C   UNL     1       5.278   0.756  23.298  0.00  0.00    +0.175 C 
ATOM     25  C   UNL     1       4.919  -1.466  23.977  0.00  0.00    +0.175 C 
ENDBRANCH  20   8
ENDBRANCH  21  20
ENDBRANCH  16  18
ENDBRANCH  11  16
BRANCH  12  17
ATOM     17  C   UNL     1      -4.289   4.509  25.397  0.00  0.00    +0.140 C 
BRANCH  17   7
ATOM      5  O   UNL     1      -3.599   2.188  23.867  0.00  0.00    -0.253 OA
ATOM      7  N   UNL     1      -4.436   3.143  25.801  0.00  0.00    -0.297 N 
ATOM     10  N   UNL     1      -4.331   0.844  25.647  0.00  0.00    -0.269 N 
ATOM     26  C   UNL     1      -4.075   2.052  24.992  0.00  0.00    +0.304 C 
ATOM     35  H   UNL     1      -4.867   2.954  26.701  0.00  0.00    +0.150 HD
ATOM     36  H   UNL     1      -4.727   0.908  26.582  0.00  0.00    +0.156 HD
BRANCH  10  27
ATOM     27  C   UNL     1      -4.105  -0.468  25.169  0.00  0.00    +0.035 A 
ATOM     28  C   UNL     1      -3.380  -1.376  25.940  0.00  0.00    +0.027 A 
ATOM     29  C   UNL     1      -4.608  -0.853  23.927  0.00  0.00    +0.027 A 
ATOM     30  C   UNL     1      -3.157  -2.669  25.469  0.00  0.00    +0.047 A 
ATOM     31  C   UNL     1      -4.385  -2.147  23.455  0.00  0.00    +0.047 A 
ATOM     32  C   UNL     1      -3.660  -3.055  24.227  0.00  0.00    +0.120 A 
BRANCH  32   6
ATOM      6  O   UNL     1      -3.442  -4.318  23.766  0.00  0.00    -0.495 OA
ATOM     33  C   UNL     1      -2.275  -4.526  22.971  0.00  0.00    +0.277 C 
ENDBRANCH  32   6
ENDBRANCH  10  27
ENDBRANCH  17   7
ENDBRANCH  12  17
TORSDOF 9
ENDMDL
MODEL 4
REMARK VINA RESULT:       4.3      2.010      5.126
REMARK  Name = 75536427
REMARK  10 active torsions:
REMARK  status: ('A' for Active; 'I' for Inactive)
REMARK    1  A    between atoms: O_2  and  C_13
REMARK    2  A    between atoms: O_6  and  C_32
REMARK    3  A    between atoms: O_6  and  C_33
REMARK    4  A    between atoms: N_7  and  C_17
REMARK    5  A    between atoms: N_8  and  C_20
REMARK    6  A    between atoms: N_10  and  C_27
REMARK    7  A    between atoms: C_11  and  C_16
REMARK    8  A    between atoms: C_12  and  C_17
REMARK    9  A    between atoms: C_16  and  C_18
REMARK   10  A    between atoms: C_20  and  C_21
REMARK                            x       y       z     vdW  Elec       q    Type
REMARK                         _______ _______ _______ _____ _____    ______ ____
ROOT
ATOM      1  O   UNL     1      -3.571   2.567  25.544  0.00  0.00    -0.369 OA
ATOM     11  C   UNL     1      -3.089   3.899  25.352  0.00  0.00    +0.125 C 
ATOM     12  C   UNL     1      -4.738   2.225  24.785  0.00  0.00    +0.164 C 
ATOM     13  C   UNL     1      -5.883   3.210  25.051  0.00  0.00    +0.145 C 
ATOM     14  C   UNL     1      -4.164   4.919  25.720  0.00  0.00    +0.034 C 
ATOM     15  C   UNL     1      -5.442   4.666  24.923  0.00  0.00    +0.036 C 
ENDROOT
BRANCH  13   2
ATOM      2  O   UNL     1      -6.360   3.014  26.384  0.00  0.00    -0.389 OA
ATOM     34  H   UNL     1      -7.077   3.653  26.537  0.00  0.00    +0.210 HD
ENDBRANCH  13   2
BRANCH  11  16
ATOM     16  C   UNL     1      -1.855   4.071  26.230  0.00  0.00    +0.090 C 
BRANCH  16  18
ATOM      3  O   UNL     1       0.600   1.487  26.757  0.00  0.00    -0.358 OA
ATOM      9  N   UNL     1       0.203   2.818  26.728  0.00  0.00    -0.083 NA
ATOM     18  C   UNL     1      -1.083   2.786  26.366  0.00  0.00    +0.086 A 
ATOM     19  C   UNL     1      -1.546   1.476  26.155  0.00  0.00    +0.072 A 
ATOM     21  C   UNL     1      -0.449   0.697  26.414  0.00  0.00    +0.151 A 
BRANCH  21  20
ATOM     20  C   UNL     1      -0.202  -0.749  26.395  0.00  0.00    +0.161 C 
BRANCH  20   8
ATOM      4  O   UNL     1      -3.493  -2.023  24.122  0.00  0.00    -0.377 OA
ATOM      8  N   UNL     1      -1.350  -1.525  25.928  0.00  0.00    -0.291 NA
ATOM     22  C   UNL     1      -2.571  -0.709  25.942  0.00  0.00    +0.113 C 
ATOM     23  C   UNL     1      -1.110  -2.049  24.576  0.00  0.00    +0.113 C 
ATOM     24  C   UNL     1      -3.752  -1.535  25.440  0.00  0.00    +0.175 C 
ATOM     25  C   UNL     1      -2.324  -2.844  24.106  0.00  0.00    +0.175 C 
ENDBRANCH  20   8
ENDBRANCH  21  20
ENDBRANCH  16  18
ENDBRANCH  11  16
BRANCH  12  17
ATOM     17  C   UNL     1      -4.407   2.082  23.301  0.00  0.00    +0.140 C 
BRANCH  17   7
ATOM      5  O   UNL     1      -1.630   2.763  23.137  0.00  0.00    -0.253 OA
ATOM      7  N   UNL     1      -3.314   1.178  23.104  0.00  0.00    -0.297 N 
ATOM     10  N   UNL     1      -1.129   0.490  22.837  0.00  0.00    -0.269 N 
ATOM     26  C   UNL     1      -1.971   1.588  23.033  0.00  0.00    +0.304 C 
ATOM     35  H   UNL     1      -3.525   0.195  22.963  0.00  0.00    +0.150 HD
ATOM     36  H   UNL     1      -1.575  -0.422  22.774  0.00  0.00    +0.156 HD
BRANCH  10  27
ATOM     27  C   UNL     1       0.281   0.488  22.714  0.00  0.00    +0.035 A 
ATOM     28  C   UNL     1       0.898  -0.351  21.786  0.00  0.00    +0.027 A 
ATOM     29  C   UNL     1       1.052   1.324  23.520  0.00  0.00    +0.027 A 
ATOM     30  C   UNL     1       2.287  -0.353  21.665  0.00  0.00    +0.047 A 
ATOM     31  C   UNL     1       2.442   1.321  23.400  0.00  0.00    +0.047 A 
ATOM     32  C   UNL     1       3.059   0.482  22.471  0.00  0.00    +0.120 A 
BRANCH  32   6
ATOM      6  O   UNL     1       4.416   0.480  22.353  0.00  0.00    -0.495 OA
ATOM     33  C   UNL     1       5.169   0.229  23.539  0.00  0.00    +0.277 C 
ENDBRANCH  32   6
ENDBRANCH  10  27
ENDBRANCH  17   7
ENDBRANCH  12  17
TORSDOF 9
ENDMDL
