MODEL 1
REMARK VINA RESULT:      -2.7      0.000      0.000
REMARK  Name = 38030608
REMARK  13 active torsions:
REMARK  status: ('A' for Active; 'I' for Inactive)
REMARK    1  A    between atoms: N_3  and  C_14
REMARK    2  A    between atoms: N_3  and  C_20
REMARK    3  A    between atoms: N_4  and  C_21
REMARK    4  A    between atoms: C_7  and  C_11
REMARK    5  A    between atoms: C_8  and  C_14
REMARK    6  A    between atoms: C_10  and  C_15
REMARK    7  A    between atoms: C_11  and  C_16
REMARK    8  A    between atoms: C_11  and  C_17
REMARK    9  A    between atoms: C_12  and  C_18
REMARK   10  A    between atoms: C_15  and  C_19
REMARK   11  A    between atoms: C_20  and  C_21
REMARK   12  A    between atoms: C_24  and  C_27
REMARK   13  A    between atoms: C_32  and  C_33
REMARK                            x       y       z     vdW  Elec       q    Type
REMARK                         _______ _______ _______ _____ _____    ______ ____
ROOT
ATOM      7  C   UNL     1      12.802  -8.029  31.219  0.00  0.00    +0.000 C 
ATOM      8  C   UNL     1      12.326  -9.492  31.034  0.00  0.00    +0.029 C 
ATOM      9  C   UNL     1      13.432  -7.501  29.921  0.00  0.00    +0.012 C 
ATOM     10  C   UNL     1      14.634  -8.351  29.469  0.00  0.00    +0.024 C 
ATOM     12  C   UNL     1      14.324  -9.834  29.518  0.00  0.00    -0.073 C 
ATOM     13  C   UNL     1      13.282 -10.323  30.211  0.00  0.00    -0.023 C 
ATOM     18  C   UNL     1      15.215 -10.738  28.712  0.00  0.00    +0.039 C 
ENDROOT
BRANCH   7  11
ATOM     11  C   UNL     1      11.655  -7.109  31.652  0.00  0.00    -0.013 C 
ATOM     16  C   UNL     1      11.235  -6.205  30.496  0.00  0.00    +0.007 C 
ATOM     17  C   UNL     1      12.068  -6.279  32.863  0.00  0.00    +0.007 C 
ENDBRANCH   7  11
BRANCH   8  14
ATOM     14  C   UNL     1      12.091 -10.172  32.387  0.00  0.00    +0.088 C 
BRANCH  14   3
ATOM      3  N   UNL     1      10.746  -9.909  32.866  0.00  0.00    -0.314 NA
ATOM     34  H   UNL     1      10.688 -10.050  33.874  0.00  0.00    +0.122 HD
BRANCH   3  20
ATOM     20  C   UNL     1       9.774 -10.771  32.204  0.00  0.00    +0.096 C 
BRANCH  20  21
ATOM     21  C   UNL     1       8.833  -9.937  31.340  0.00  0.00    +0.099 C 
BRANCH  21   4
ATOM      2  O   UNL     1       5.789  -7.323  32.567  0.00  0.00    -0.377 OA
ATOM      4  N   UNL     1       7.940  -9.146  32.183  0.00  0.00    -0.297 NA
ATOM     22  C   UNL     1       6.542  -9.556  31.993  0.00  0.00    +0.112 C 
ATOM     23  C   UNL     1       8.088  -7.712  31.899  0.00  0.00    +0.112 C 
ATOM     25  C   UNL     1       5.629  -8.708  32.873  0.00  0.00    +0.175 C 
ATOM     26  C   UNL     1       7.139  -6.908  32.783  0.00  0.00    +0.175 C 
ENDBRANCH  21   4
ENDBRANCH  20  21
ENDBRANCH   3  20
ENDBRANCH  14   3
ENDBRANCH   8  14
BRANCH  10  15
ATOM     15  C   UNL     1      15.883  -8.024  30.295  0.00  0.00    +0.105 C 
BRANCH  15  19
ATOM      1  O   UNL     1      16.392  -6.356  28.588  0.00  0.00    -0.420 OA
ATOM      5  N   UNL     1      17.056  -5.791  30.647  0.00  0.00    -0.112 NA
ATOM      6  N   UNL     1      17.405  -4.765  29.790  0.00  0.00    -0.107 NA
ATOM     19  C   UNL     1      16.467  -6.698  29.903  0.00  0.00    +0.218 A 
ATOM     24  C   UNL     1      16.998  -5.138  28.599  0.00  0.00    +0.248 A 
BRANCH  24  27
ATOM     27  C   UNL     1      17.091  -4.473  27.332  0.00  0.00    +0.038 A 
ATOM     28  C   UNL     1      17.067  -5.215  26.150  0.00  0.00    +0.013 A 
ATOM     29  C   UNL     1      17.205  -3.083  27.280  0.00  0.00    +0.013 A 
ATOM     30  C   UNL     1      17.157  -4.569  24.918  0.00  0.00    +0.004 A 
ATOM     31  C   UNL     1      17.295  -2.437  26.048  0.00  0.00    +0.004 A 
ATOM     32  C   UNL     1      17.271  -3.178  24.867  0.00  0.00    -0.050 A 
ATOM     33  C   UNL     1      17.369  -2.487  23.549  0.00  0.00    +0.044 C 
ENDBRANCH  24  27
ENDBRANCH  15  19
ENDBRANCH  10  15
TORSDOF 9
ENDMDL
MODEL 2
REMARK VINA RESULT:      -1.3     23.067     25.410
REMARK  Name = 38030608
REMARK  13 active torsions:
REMARK  status: ('A' for Active; 'I' for Inactive)
REMARK    1  A    between atoms: N_3  and  C_14
REMARK    2  A    between atoms: N_3  and  C_20
REMARK    3  A    between atoms: N_4  and  C_21
REMARK    4  A    between atoms: C_7  and  C_11
REMARK    5  A    between atoms: C_8  and  C_14
REMARK    6  A    between atoms: C_10  and  C_15
REMARK    7  A    between atoms: C_11  and  C_16
REMARK    8  A    between atoms: C_11  and  C_17
REMARK    9  A    between atoms: C_12  and  C_18
REMARK   10  A    between atoms: C_15  and  C_19
REMARK   11  A    between atoms: C_20  and  C_21
REMARK   12  A    between atoms: C_24  and  C_27
REMARK   13  A    between atoms: C_32  and  C_33
REMARK                            x       y       z     vdW  Elec       q    Type
REMARK                         _______ _______ _______ _____ _____    ______ ____
ROOT
ATOM      7  C   UNL     1      -6.108  -9.796  12.611  0.00  0.00    +0.000 C 
ATOM      8  C   UNL     1      -7.588  -9.496  12.264  0.00  0.00    +0.029 C 
ATOM      9  C   UNL     1      -5.211  -8.619  12.198  0.00  0.00    +0.012 C 
ATOM     10  C   UNL     1      -5.307  -8.314  10.691  0.00  0.00    +0.024 C 
ATOM     12  C   UNL     1      -6.745  -8.267  10.217  0.00  0.00    -0.073 C 
ATOM     13  C   UNL     1      -7.752  -8.789  10.939  0.00  0.00    -0.023 C 
ATOM     18  C   UNL     1      -7.005  -7.566   8.913  0.00  0.00    +0.039 C 
ENDROOT
BRANCH   7  11
ATOM     11  C   UNL     1      -5.923 -10.092  14.103  0.00  0.00    -0.013 C 
ATOM     16  C   UNL     1      -6.652  -9.051  14.946  0.00  0.00    +0.007 C 
ATOM     17  C   UNL     1      -4.440 -10.131  14.456  0.00  0.00    +0.007 C 
ENDBRANCH   7  11
BRANCH   8  14
ATOM     14  C   UNL     1      -8.428 -10.778  12.267  0.00  0.00    +0.088 C 
BRANCH  14   3
ATOM      3  N   UNL     1      -9.799 -10.492  11.882  0.00  0.00    -0.314 NA
ATOM     34  H   UNL     1      -9.845  -9.652  11.307  0.00  0.00    +0.122 HD
BRANCH   3  20
ATOM     20  C   UNL     1     -10.648 -10.318  13.055  0.00  0.00    +0.096 C 
BRANCH  20  21
ATOM     21  C   UNL     1      -9.902 -10.749  14.314  0.00  0.00    +0.099 C 
BRANCH  21   4
ATOM      2  O   UNL     1      -9.736  -8.055  17.528  0.00  0.00    -0.377 OA
ATOM      4  N   UNL     1     -10.297  -9.913  15.446  0.00  0.00    -0.297 NA
ATOM     22  C   UNL     1     -10.043  -8.494  15.162  0.00  0.00    +0.112 C 
ATOM     23  C   UNL     1      -9.584 -10.318  16.667  0.00  0.00    +0.112 C 
ATOM     25  C   UNL     1     -10.450  -7.644  16.362  0.00  0.00    +0.175 C 
ATOM     26  C   UNL     1     -10.004  -9.426  17.831  0.00  0.00    +0.175 C 
ENDBRANCH  21   4
ENDBRANCH  20  21
ENDBRANCH   3  20
ENDBRANCH  14   3
ENDBRANCH   8  14
BRANCH  10  15
ATOM     15  C   UNL     1      -4.490  -9.319   9.872  0.00  0.00    +0.105 C 
BRANCH  15  19
ATOM      1  O   UNL     1      -2.230  -8.718  10.565  0.00  0.00    -0.420 OA
ATOM      5  N   UNL     1      -2.856 -10.778  11.170  0.00  0.00    -0.112 NA
ATOM      6  N   UNL     1      -1.566 -10.574  11.624  0.00  0.00    -0.107 NA
ATOM     19  C   UNL     1      -3.202  -9.670  10.559  0.00  0.00    +0.218 A 
ATOM     24  C   UNL     1      -1.242  -9.358  11.248  0.00  0.00    +0.248 A 
BRANCH  24  27
ATOM     27  C   UNL     1      -0.031  -8.616  11.443  0.00  0.00    +0.038 A 
ATOM     28  C   UNL     1       0.038  -7.643  12.441  0.00  0.00    +0.013 A 
ATOM     29  C   UNL     1       1.079  -8.867  10.636  0.00  0.00    +0.013 A 
ATOM     30  C   UNL     1       1.215  -6.921  12.632  0.00  0.00    +0.004 A 
ATOM     31  C   UNL     1       2.257  -8.144  10.826  0.00  0.00    +0.004 A 
ATOM     32  C   UNL     1       2.326  -7.172  11.824  0.00  0.00    -0.050 A 
ATOM     33  C   UNL     1       3.585  -6.399  12.027  0.00  0.00    +0.044 C 
ENDBRANCH  24  27
ENDBRANCH  15  19
ENDBRANCH  10  15
TORSDOF 9
ENDMDL
MODEL 3
REMARK VINA RESULT:       0.1     15.123     19.727
REMARK  Name = 38030608
REMARK  13 active torsions:
REMARK  status: ('A' for Active; 'I' for Inactive)
REMARK    1  A    between atoms: N_3  and  C_14
REMARK    2  A    between atoms: N_3  and  C_20
REMARK    3  A    between atoms: N_4  and  C_21
REMARK    4  A    between atoms: C_7  and  C_11
REMARK    5  A    between atoms: C_8  and  C_14
REMARK    6  A    between atoms: C_10  and  C_15
REMARK    7  A    between atoms: C_11  and  C_16
REMARK    8  A    between atoms: C_11  and  C_17
REMARK    9  A    between atoms: C_12  and  C_18
REMARK   10  A    between atoms: C_15  and  C_19
REMARK   11  A    between atoms: C_20  and  C_21
REMARK   12  A    between atoms: C_24  and  C_27
REMARK   13  A    between atoms: C_32  and  C_33
REMARK                            x       y       z     vdW  Elec       q    Type
REMARK                         _______ _______ _______ _____ _____    ______ ____
ROOT
ATOM      7  C   UNL     1      -2.222   2.436  23.944  0.00  0.00    +0.000 C 
ATOM      8  C   UNL     1      -0.764   2.956  23.905  0.00  0.00    +0.029 C 
ATOM      9  C   UNL     1      -3.205   3.568  23.607  0.00  0.00    +0.012 C 
ATOM     10  C   UNL     1      -3.083   4.755  24.581  0.00  0.00    +0.024 C 
ATOM     12  C   UNL     1      -1.638   5.156  24.802  0.00  0.00    -0.073 C 
ATOM     13  C   UNL     1      -0.615   4.344  24.482  0.00  0.00    -0.023 C 
ATOM     18  C   UNL     1      -1.395   6.531  25.359  0.00  0.00    +0.039 C 
ENDROOT
BRANCH   7  11
ATOM     11  C   UNL     1      -2.434   1.262  22.983  0.00  0.00    -0.013 C 
ATOM     16  C   UNL     1      -1.493   0.113  23.333  0.00  0.00    +0.007 C 
ATOM     17  C   UNL     1      -2.224   1.711  21.541  0.00  0.00    +0.007 C 
ENDBRANCH   7  11
BRANCH   8  14
ATOM     14  C   UNL     1       0.186   1.997  24.631  0.00  0.00    +0.088 C 
BRANCH  14   3
ATOM      3  N   UNL     1       1.335   1.687  23.800  0.00  0.00    -0.314 NA
ATOM     34  H   UNL     1       1.367   2.298  22.985  0.00  0.00    +0.122 HD
BRANCH   3  20
ATOM     20  C   UNL     1       1.304   0.298  23.357  0.00  0.00    +0.096 C 
BRANCH  20  21
ATOM     21  C   UNL     1       2.200   0.113  22.136  0.00  0.00    +0.099 C 
BRANCH  21   4
ATOM      2  O   UNL     1       5.612  -0.524  24.494  0.00  0.00    -0.377 OA
ATOM      4  N   UNL     1       3.548  -0.267  22.551  0.00  0.00    -0.297 NA
ATOM     22  C   UNL     1       3.502  -1.307  23.587  0.00  0.00    +0.112 C 
ATOM     23  C   UNL     1       4.291   0.903  23.044  0.00  0.00    +0.112 C 
ATOM     25  C   UNL     1       4.920  -1.677  24.014  0.00  0.00    +0.175 C 
ATOM     26  C   UNL     1       5.690   0.480  23.481  0.00  0.00    +0.175 C 
ENDBRANCH  21   4
ENDBRANCH  20  21
ENDBRANCH   3  20
ENDBRANCH  14   3
ENDBRANCH   8  14
BRANCH  10  15
ATOM     15  C   UNL     1      -3.778   4.449  25.912  0.00  0.00    +0.105 C 
BRANCH  15  19
ATOM      1  O   UNL     1      -3.857   2.051  25.473  0.00  0.00    -0.420 OA
ATOM      5  N   UNL     1      -5.815   2.932  26.099  0.00  0.00    -0.112 NA
ATOM      6  N   UNL     1      -6.004   1.580  25.885  0.00  0.00    -0.107 NA
ATOM     19  C   UNL     1      -4.547   3.162  25.847  0.00  0.00    +0.218 A 
ATOM     24  C   UNL     1      -4.835   1.106  25.522  0.00  0.00    +0.248 A 
BRANCH  24  27
ATOM     27  C   UNL     1      -4.438  -0.227  25.175  0.00  0.00    +0.038 A 
ATOM     28  C   UNL     1      -3.610  -0.954  26.032  0.00  0.00    +0.013 A 
ATOM     29  C   UNL     1      -4.879  -0.799  23.981  0.00  0.00    +0.013 A 
ATOM     30  C   UNL     1      -3.224  -2.251  25.695  0.00  0.00    +0.004 A 
ATOM     31  C   UNL     1      -4.493  -2.096  23.644  0.00  0.00    +0.004 A 
ATOM     32  C   UNL     1      -3.665  -2.822  24.501  0.00  0.00    -0.050 A 
ATOM     33  C   UNL     1      -3.251  -4.209  24.141  0.00  0.00    +0.044 C 
ENDBRANCH  24  27
ENDBRANCH  15  19
ENDBRANCH  10  15
TORSDOF 9
ENDMDL
MODEL 4
REMARK VINA RESULT:       0.8     14.957     18.162
REMARK  Name = 38030608
REMARK  13 active torsions:
REMARK  status: ('A' for Active; 'I' for Inactive)
REMARK    1  A    between atoms: N_3  and  C_14
REMARK    2  A    between atoms: N_3  and  C_20
REMARK    3  A    between atoms: N_4  and  C_21
REMARK    4  A    between atoms: C_7  and  C_11
REMARK    5  A    between atoms: C_8  and  C_14
REMARK    6  A    between atoms: C_10  and  C_15
REMARK    7  A    between atoms: C_11  and  C_16
REMARK    8  A    between atoms: C_11  and  C_17
REMARK    9  A    between atoms: C_12  and  C_18
REMARK   10  A    between atoms: C_15  and  C_19
REMARK   11  A    between atoms: C_20  and  C_21
REMARK   12  A    between atoms: C_24  and  C_27
REMARK   13  A    between atoms: C_32  and  C_33
REMARK                            x       y       z     vdW  Elec       q    Type
REMARK                         _______ _______ _______ _____ _____    ______ ____
ROOT
ATOM      7  C   UNL     1      -1.982   2.892  24.927  0.00  0.00    +0.000 C 
ATOM      8  C   UNL     1      -3.220   3.821  24.874  0.00  0.00    +0.029 C 
ATOM      9  C   UNL     1      -1.205   2.958  23.604  0.00  0.00    +0.012 C 
ATOM     10  C   UNL     1      -2.071   2.548  22.398  0.00  0.00    +0.024 C 
ATOM     12  C   UNL     1      -3.426   3.226  22.422  0.00  0.00    -0.073 C 
ATOM     13  C   UNL     1      -3.917   3.801  23.534  0.00  0.00    -0.023 C 
ATOM     18  C   UNL     1      -4.185   3.269  21.125  0.00  0.00    +0.039 C 
ENDROOT
BRANCH   7  11
ATOM     11  C   UNL     1      -1.053   3.247  26.093  0.00  0.00    -0.013 C 
ATOM     16  C   UNL     1      -0.211   4.471  25.747  0.00  0.00    +0.007 C 
ATOM     17  C   UNL     1      -0.162   2.060  26.444  0.00  0.00    +0.007 C 
ENDBRANCH   7  11
BRANCH   8  14
ATOM     14  C   UNL     1      -4.225   3.468  25.977  0.00  0.00    +0.088 C 
BRANCH  14   3
ATOM      3  N   UNL     1      -5.454   2.950  25.404  0.00  0.00    -0.314 NA
ATOM     34  H   UNL     1      -6.264   3.431  25.793  0.00  0.00    +0.122 HD
BRANCH   3  20
ATOM     20  C   UNL     1      -5.584   1.518  25.646  0.00  0.00    +0.096 C 
BRANCH  20  21
ATOM     21  C   UNL     1      -5.020   0.731  24.467  0.00  0.00    +0.099 C 
BRANCH  21   4
ATOM      2  O   UNL     1      -2.900  -2.837  25.084  0.00  0.00    -0.377 OA
ATOM      4  N   UNL     1      -4.684  -0.629  24.882  0.00  0.00    -0.297 NA
ATOM     22  C   UNL     1      -3.558  -0.623  25.827  0.00  0.00    +0.112 C 
ATOM     23  C   UNL     1      -4.360  -1.465  23.717  0.00  0.00    +0.112 C 
ATOM     25  C   UNL     1      -3.218  -2.054  26.235  0.00  0.00    +0.175 C 
ATOM     26  C   UNL     1      -4.002  -2.875  24.176  0.00  0.00    +0.175 C 
ENDBRANCH  21   4
ENDBRANCH  20  21
ENDBRANCH   3  20
ENDBRANCH  14   3
ENDBRANCH   8  14
BRANCH  10  15
ATOM     15  C   UNL     1      -2.221   1.025  22.319  0.00  0.00    +0.105 C 
BRANCH  15  19
ATOM      1  O   UNL     1       0.149   0.579  22.686  0.00  0.00    -0.420 OA
ATOM      5  N   UNL     1      -1.214  -0.513  24.082  0.00  0.00    -0.112 NA
ATOM      6  N   UNL     1       0.086  -0.857  24.400  0.00  0.00    -0.107 NA
ATOM     19  C   UNL     1      -1.129   0.326  23.076  0.00  0.00    +0.218 A 
ATOM     24  C   UNL     1       0.848  -0.196  23.560  0.00  0.00    +0.248 A 
BRANCH  24  27
ATOM     27  C   UNL     1       2.275  -0.164  23.425  0.00  0.00    +0.038 A 
ATOM     28  C   UNL     1       3.037  -1.269  23.808  0.00  0.00    +0.013 A 
ATOM     29  C   UNL     1       2.902   0.970  22.909  0.00  0.00    +0.013 A 
ATOM     30  C   UNL     1       4.425  -1.239  23.675  0.00  0.00    +0.004 A 
ATOM     31  C   UNL     1       4.290   1.000  22.776  0.00  0.00    +0.004 A 
ATOM     32  C   UNL     1       5.052  -0.104  23.159  0.00  0.00    -0.050 A 
ATOM     33  C   UNL     1       6.536  -0.072  23.018  0.00  0.00    +0.044 C 
ENDBRANCH  24  27
ENDBRANCH  15  19
ENDBRANCH  10  15
TORSDOF 9
ENDMDL
