MODEL 1
REMARK VINA RESULT:       9.2      0.000      0.000
REMARK  Name = 7113963
REMARK  6 active torsions:
REMARK  status: ('A' for Active; 'I' for Inactive)
REMARK    1  A    between atoms: S_1  and  N_12
REMARK    2  A    between atoms: S_1  and  C_31
REMARK    3  A    between atoms: N_9  and  C_18
REMARK    4  A    between atoms: N_12  and  C_27
REMARK    5  A    between atoms: C_29  and  C_30
REMARK    6  A    between atoms: C_34  and  C_37
REMARK                            x       y       z     vdW  Elec       q    Type
REMARK                         _______ _______ _______ _____ _____    ______ ____
ROOT
ATOM      5  O   UNL     1      -4.519   4.725  23.705  0.00  0.00    -0.266 OA
ATOM      9  N   UNL     1       0.048   2.652  23.886  0.00  0.00    -0.298 NA
ATOM     10  N   UNL     1      -2.486   4.354  24.810  0.00  0.00    -0.310 N 
ATOM     13  C   UNL     1      -0.227   5.143  23.895  0.00  0.00    +0.024 C 
ATOM     14  C   UNL     1      -0.317   3.914  26.011  0.00  0.00    +0.050 C 
ATOM     15  C   UNL     1       0.179   5.203  25.362  0.00  0.00    +0.017 C 
ATOM     16  C   UNL     1       0.409   3.910  23.220  0.00  0.00    +0.090 C 
ATOM     17  C   UNL     1       0.350   2.701  25.324  0.00  0.00    +0.094 C 
ATOM     19  C   UNL     1      -1.759   5.142  23.804  0.00  0.00    +0.130 C 
ATOM     20  C   UNL     1      -1.828   3.811  25.921  0.00  0.00    +0.026 A 
ATOM     25  C   UNL     1      -2.526   3.188  26.889  0.00  0.00    +0.024 A 
ATOM     26  C   UNL     1      -3.884   4.258  24.650  0.00  0.00    +0.274 A 
ATOM     27  C   UNL     1      -4.595   3.540  25.738  0.00  0.00    +0.112 A 
ATOM     28  C   UNL     1      -3.954   3.045  26.796  0.00  0.00    +0.031 A 
ENDROOT
BRANCH   9  18
ATOM      6  O   UNL     1       3.601  -2.311  24.514  0.00  0.00    -0.276 OA
ATOM     11  N   UNL     1       2.743  -0.545  23.271  0.00  0.00    -0.302 N 
ATOM     18  C   UNL     1       0.708   1.515  23.251  0.00  0.00    +0.060 C 
ATOM     21  C   UNL     1       0.583   0.269  24.137  0.00  0.00    +0.038 C 
ATOM     22  C   UNL     1       2.185   1.841  22.991  0.00  0.00    +0.038 C 
ATOM     23  C   UNL     1       1.350  -0.908  23.536  0.00  0.00    +0.109 C 
ATOM     24  C   UNL     1       2.920   0.632  22.412  0.00  0.00    +0.109 C 
ATOM     29  C   UNL     1       3.775  -1.325  23.793  0.00  0.00    +0.212 C 
ATOM     30  C   UNL     1       5.181  -0.911  23.437  0.00  0.00    +0.109 C 
ENDBRANCH   9  18
BRANCH  27  12
ATOM     12  N   UNL     1      -5.991   3.375  25.683  0.00  0.00    -0.211 N 
ATOM     38  H   UNL     1      -6.481   3.872  26.440  0.00  0.00    +0.174 HD
BRANCH  12   1
ATOM      1  S   UNL     1      -6.573   1.817  25.371  0.00  0.00    +0.073 S 
ATOM      7  O   UNL     1      -6.921   1.166  26.618  0.00  0.00    -0.150 OA
ATOM      8  O   UNL     1      -7.527   1.862  24.279  0.00  0.00    -0.150 OA
BRANCH   1  31
ATOM     31  C   UNL     1      -5.108   1.036  24.759  0.00  0.00    +0.109 A 
ATOM     32  C   UNL     1      -4.638  -0.103  25.388  0.00  0.00    +0.041 A 
ATOM     33  C   UNL     1      -4.460   1.581  23.664  0.00  0.00    +0.029 A 
ATOM     34  C   UNL     1      -3.482  -0.718  24.907  0.00  0.00    +0.057 A 
ATOM     35  C   UNL     1      -3.304   0.965  23.183  0.00  0.00    +0.002 A 
ATOM     36  C   UNL     1      -2.815  -0.184  23.804  0.00  0.00    +0.012 A 
BRANCH  34  37
ATOM      2  F   UNL     1      -3.551  -3.098  25.140  0.00  0.00    -0.166 F 
ATOM      3  F   UNL     1      -1.620  -2.141  25.385  0.00  0.00    -0.166 F 
ATOM      4  F   UNL     1      -3.140  -1.926  26.926  0.00  0.00    -0.166 F 
ATOM     37  C   UNL     1      -2.959  -1.946  25.573  0.00  0.00    +0.417 C 
ENDBRANCH  34  37
ENDBRANCH   1  31
ENDBRANCH  12   1
ENDBRANCH  27  12
TORSDOF 5
ENDMDL
MODEL 2
REMARK VINA RESULT:       9.7      2.703      4.640
REMARK  Name = 7113963
REMARK  6 active torsions:
REMARK  status: ('A' for Active; 'I' for Inactive)
REMARK    1  A    between atoms: S_1  and  N_12
REMARK    2  A    between atoms: S_1  and  C_31
REMARK    3  A    between atoms: N_9  and  C_18
REMARK    4  A    between atoms: N_12  and  C_27
REMARK    5  A    between atoms: C_29  and  C_30
REMARK    6  A    between atoms: C_34  and  C_37
REMARK                            x       y       z     vdW  Elec       q    Type
REMARK                         _______ _______ _______ _____ _____    ______ ____
ROOT
ATOM      5  O   UNL     1      -4.019   0.884  27.025  0.00  0.00    -0.266 OA
ATOM      9  N   UNL     1      -0.398  -0.601  23.882  0.00  0.00    -0.298 NA
ATOM     10  N   UNL     1      -3.154  -0.659  25.487  0.00  0.00    -0.310 N 
ATOM     13  C   UNL     1      -0.997  -1.981  25.887  0.00  0.00    +0.024 C 
ATOM     14  C   UNL     1      -2.239  -2.288  23.799  0.00  0.00    +0.050 C 
ATOM     15  C   UNL     1      -1.650  -3.030  24.996  0.00  0.00    +0.017 C 
ATOM     16  C   UNL     1       0.106  -1.236  25.108  0.00  0.00    +0.090 C 
ATOM     17  C   UNL     1      -1.108  -1.567  23.031  0.00  0.00    +0.094 C 
ATOM     19  C   UNL     1      -2.084  -1.038  26.420  0.00  0.00    +0.130 C 
ATOM     20  C   UNL     1      -3.295  -1.295  24.246  0.00  0.00    +0.026 A 
ATOM     25  C   UNL     1      -4.344  -1.014  23.451  0.00  0.00    +0.024 A 
ATOM     26  C   UNL     1      -4.081   0.302  25.942  0.00  0.00    +0.274 A 
ATOM     27  C   UNL     1      -5.203   0.586  25.012  0.00  0.00    +0.112 A 
ATOM     28  C   UNL     1      -5.330  -0.043  23.843  0.00  0.00    +0.031 A 
ENDROOT
BRANCH   9  18
ATOM      6  O   UNL     1       5.568  -0.457  22.459  0.00  0.00    -0.276 OA
ATOM     11  N   UNL     1       3.505   0.568  22.760  0.00  0.00    -0.302 N 
ATOM     18  C   UNL     1       0.683   0.050  23.147  0.00  0.00    +0.060 C 
ATOM     21  C   UNL     1       1.619  -1.004  22.543  0.00  0.00    +0.038 C 
ATOM     22  C   UNL     1       1.463   0.988  24.078  0.00  0.00    +0.038 C 
ATOM     23  C   UNL     1       2.810  -0.344  21.850  0.00  0.00    +0.109 C 
ATOM     24  C   UNL     1       2.657   1.609  23.354  0.00  0.00    +0.109 C 
ATOM     29  C   UNL     1       4.877   0.427  22.970  0.00  0.00    +0.212 C 
ATOM     30  C   UNL     1       5.527   1.434  23.886  0.00  0.00    +0.109 C 
ENDBRANCH   9  18
BRANCH  27  12
ATOM     12  N   UNL     1      -6.186   1.531  25.356  0.00  0.00    -0.211 N 
ATOM     38  H   UNL     1      -7.055   1.419  24.814  0.00  0.00    +0.174 HD
BRANCH  12   1
ATOM      1  S   UNL     1      -5.680   3.134  25.551  0.00  0.00    +0.073 S 
ATOM      7  O   UNL     1      -6.633   4.028  24.923  0.00  0.00    -0.150 OA
ATOM      8  O   UNL     1      -5.269   3.352  26.925  0.00  0.00    -0.150 OA
BRANCH   1  31
ATOM     31  C   UNL     1      -4.217   3.140  24.556  0.00  0.00    +0.109 A 
ATOM     32  C   UNL     1      -3.035   3.610  25.098  0.00  0.00    +0.041 A 
ATOM     33  C   UNL     1      -4.285   2.675  23.254  0.00  0.00    +0.029 A 
ATOM     34  C   UNL     1      -1.882   3.616  24.313  0.00  0.00    +0.057 A 
ATOM     35  C   UNL     1      -3.131   2.681  22.470  0.00  0.00    +0.002 A 
ATOM     36  C   UNL     1      -1.930   3.151  22.999  0.00  0.00    +0.012 A 
BRANCH  34  37
ATOM      2  F   UNL     1      -0.643   5.432  25.257  0.00  0.00    -0.166 F 
ATOM      3  F   UNL     1      -0.187   3.444  25.993  0.00  0.00    -0.166 F 
ATOM      4  F   UNL     1       0.438   4.030  23.994  0.00  0.00    -0.166 F 
ATOM     37  C   UNL     1      -0.597   4.120  24.880  0.00  0.00    +0.417 C 
ENDBRANCH  34  37
ENDBRANCH   1  31
ENDBRANCH  12   1
ENDBRANCH  27  12
TORSDOF 5
ENDMDL
MODEL 3
REMARK VINA RESULT:      12.4      2.297      4.714
REMARK  Name = 7113963
REMARK  6 active torsions:
REMARK  status: ('A' for Active; 'I' for Inactive)
REMARK    1  A    between atoms: S_1  and  N_12
REMARK    2  A    between atoms: S_1  and  C_31
REMARK    3  A    between atoms: N_9  and  C_18
REMARK    4  A    between atoms: N_12  and  C_27
REMARK    5  A    between atoms: C_29  and  C_30
REMARK    6  A    between atoms: C_34  and  C_37
REMARK                            x       y       z     vdW  Elec       q    Type
REMARK                         _______ _______ _______ _____ _____    ______ ____
ROOT
ATOM      5  O   UNL     1      -3.379   1.984  26.660  0.00  0.00    -0.266 OA
ATOM      9  N   UNL     1      -0.680  -1.480  24.230  0.00  0.00    -0.298 NA
ATOM     10  N   UNL     1      -3.228  -0.055  25.515  0.00  0.00    -0.310 N 
ATOM     13  C   UNL     1      -1.860  -2.046  26.368  0.00  0.00    +0.024 C 
ATOM     14  C   UNL     1      -3.066  -2.222  24.243  0.00  0.00    +0.050 C 
ATOM     15  C   UNL     1      -2.881  -2.883  25.607  0.00  0.00    +0.017 C 
ATOM     16  C   UNL     1      -0.527  -2.004  25.593  0.00  0.00    +0.090 C 
ATOM     17  C   UNL     1      -1.718  -2.211  23.487  0.00  0.00    +0.094 C 
ATOM     19  C   UNL     1      -2.447  -0.648  26.609  0.00  0.00    +0.130 C 
ATOM     20  C   UNL     1      -3.601  -0.811  24.395  0.00  0.00    +0.026 A 
ATOM     25  C   UNL     1      -4.409  -0.285  23.456  0.00  0.00    +0.024 A 
ATOM     26  C   UNL     1      -3.661   1.275  25.694  0.00  0.00    +0.274 A 
ATOM     27  C   UNL     1      -4.531   1.806  24.614  0.00  0.00    +0.112 A 
ATOM     28  C   UNL     1      -4.890   1.066  23.565  0.00  0.00    +0.031 A 
ENDROOT
BRANCH   9  18
ATOM      6  O   UNL     1       5.168   0.353  23.960  0.00  0.00    -0.276 OA
ATOM     11  N   UNL     1       3.191  -0.354  22.965  0.00  0.00    -0.302 N 
ATOM     18  C   UNL     1       0.592  -1.504  23.513  0.00  0.00    +0.060 C 
ATOM     21  C   UNL     1       1.754  -1.633  24.505  0.00  0.00    +0.038 C 
ATOM     22  C   UNL     1       0.746  -0.231  22.671  0.00  0.00    +0.038 C 
ATOM     23  C   UNL     1       3.099  -1.564  23.784  0.00  0.00    +0.109 C 
ATOM     24  C   UNL     1       2.111  -0.190  21.985  0.00  0.00    +0.109 C 
ATOM     29  C   UNL     1       4.272   0.513  23.128  0.00  0.00    +0.212 C 
ATOM     30  C   UNL     1       4.319   1.713  22.216  0.00  0.00    +0.109 C 
ENDBRANCH   9  18
BRANCH  27  12
ATOM     12  N   UNL     1      -5.018   3.124  24.681  0.00  0.00    -0.211 N 
ATOM     38  H   UNL     1      -6.043   3.166  24.785  0.00  0.00    +0.174 HD
BRANCH  12   1
ATOM      1  S   UNL     1      -4.375   4.242  23.586  0.00  0.00    +0.073 S 
ATOM      7  O   UNL     1      -4.245   3.627  22.279  0.00  0.00    -0.150 OA
ATOM      8  O   UNL     1      -5.056   5.515  23.730  0.00  0.00    -0.150 OA
BRANCH   1  31
ATOM     31  C   UNL     1      -2.743   4.440  24.240  0.00  0.00    +0.109 A 
ATOM     32  C   UNL     1      -1.965   3.318  24.463  0.00  0.00    +0.041 A 
ATOM     33  C   UNL     1      -2.278   5.713  24.518  0.00  0.00    +0.029 A 
ATOM     34  C   UNL     1      -0.679   3.475  24.979  0.00  0.00    +0.057 A 
ATOM     35  C   UNL     1      -0.991   5.869  25.035  0.00  0.00    +0.002 A 
ATOM     36  C   UNL     1      -0.192   4.750  25.266  0.00  0.00    +0.012 A 
BRANCH  34  37
ATOM      2  F   UNL     1      -0.530   1.110  25.311  0.00  0.00    -0.166 F 
ATOM      3  F   UNL     1       1.109   2.060  24.255  0.00  0.00    -0.166 F 
ATOM      4  F   UNL     1       0.876   2.366  26.396  0.00  0.00    -0.166 F 
ATOM     37  C   UNL     1       0.175   2.277  25.228  0.00  0.00    +0.417 C 
ENDBRANCH  34  37
ENDBRANCH   1  31
ENDBRANCH  12   1
ENDBRANCH  27  12
TORSDOF 5
ENDMDL
MODEL 4
REMARK VINA RESULT:      12.4      1.543      2.013
REMARK  Name = 7113963
REMARK  6 active torsions:
REMARK  status: ('A' for Active; 'I' for Inactive)
REMARK    1  A    between atoms: S_1  and  N_12
REMARK    2  A    between atoms: S_1  and  C_31
REMARK    3  A    between atoms: N_9  and  C_18
REMARK    4  A    between atoms: N_12  and  C_27
REMARK    5  A    between atoms: C_29  and  C_30
REMARK    6  A    between atoms: C_34  and  C_37
REMARK                            x       y       z     vdW  Elec       q    Type
REMARK                         _______ _______ _______ _____ _____    ______ ____
ROOT
ATOM      5  O   UNL     1      -4.482   4.710  23.737  0.00  0.00    -0.266 OA
ATOM      9  N   UNL     1       0.109   2.690  23.924  0.00  0.00    -0.298 NA
ATOM     10  N   UNL     1      -2.454   4.346  24.853  0.00  0.00    -0.310 N 
ATOM     13  C   UNL     1      -0.197   5.177  23.971  0.00  0.00    +0.024 C 
ATOM     14  C   UNL     1      -0.290   3.911  26.066  0.00  0.00    +0.050 C 
ATOM     15  C   UNL     1       0.195   5.218  25.443  0.00  0.00    +0.017 C 
ATOM     16  C   UNL     1       0.459   3.963  23.282  0.00  0.00    +0.090 C 
ATOM     17  C   UNL     1       0.398   2.718  25.365  0.00  0.00    +0.094 C 
ATOM     19  C   UNL     1      -1.728   5.158  23.867  0.00  0.00    +0.130 C 
ATOM     20  C   UNL     1      -1.799   3.792  25.962  0.00  0.00    +0.026 A 
ATOM     25  C   UNL     1      -2.497   3.144  26.913  0.00  0.00    +0.024 A 
ATOM     26  C   UNL     1      -3.849   4.235  24.679  0.00  0.00    +0.274 A 
ATOM     27  C   UNL     1      -4.560   3.490  25.749  0.00  0.00    +0.112 A 
ATOM     28  C   UNL     1      -3.923   2.986  26.805  0.00  0.00    +0.031 A 
ENDROOT
BRANCH   9  18
ATOM      6  O   UNL     1       3.732  -2.228  24.497  0.00  0.00    -0.276 OA
ATOM     11  N   UNL     1       2.854  -0.457  23.276  0.00  0.00    -0.302 N 
ATOM     18  C   UNL     1       0.789   1.572  23.276  0.00  0.00    +0.060 C 
ATOM     21  C   UNL     1       0.679   0.312  24.144  0.00  0.00    +0.038 C 
ATOM     22  C   UNL     1       2.261   1.923  23.026  0.00  0.00    +0.038 C 
ATOM     23  C   UNL     1       1.465  -0.845  23.530  0.00  0.00    +0.109 C 
ATOM     24  C   UNL     1       3.016   0.734  22.434  0.00  0.00    +0.109 C 
ATOM     29  C   UNL     1       3.895  -1.230  23.791  0.00  0.00    +0.212 C 
ATOM     30  C   UNL     1       5.296  -0.790  23.447  0.00  0.00    +0.109 C 
ENDBRANCH   9  18
BRANCH  27  12
ATOM     12  N   UNL     1      -5.954   3.309  25.679  0.00  0.00    -0.211 N 
ATOM     38  H   UNL     1      -6.462   3.850  26.394  0.00  0.00    +0.174 HD
BRANCH  12   1
ATOM      1  S   UNL     1      -6.517   1.729  25.458  0.00  0.00    +0.073 S 
ATOM      7  O   UNL     1      -6.867   1.150  26.741  0.00  0.00    -0.150 OA
ATOM      8  O   UNL     1      -7.464   1.698  24.359  0.00  0.00    -0.150 OA
BRANCH   1  31
ATOM     31  C   UNL     1      -5.040   0.928  24.905  0.00  0.00    +0.109 A 
ATOM     32  C   UNL     1      -4.375   1.429  23.799  0.00  0.00    +0.041 A 
ATOM     33  C   UNL     1      -4.578  -0.183  25.587  0.00  0.00    +0.029 A 
ATOM     34  C   UNL     1      -3.211   0.797  23.362  0.00  0.00    +0.057 A 
ATOM     35  C   UNL     1      -3.414  -0.815  25.149  0.00  0.00    +0.002 A 
ATOM     36  C   UNL     1      -2.730  -0.325  24.036  0.00  0.00    +0.012 A 
BRANCH  34  37
ATOM      2  F   UNL     1      -3.115   1.072  20.987  0.00  0.00    -0.166 F 
ATOM      3  F   UNL     1      -2.294   2.674  22.196  0.00  0.00    -0.166 F 
ATOM      4  F   UNL     1      -1.235   0.781  22.041  0.00  0.00    -0.166 F 
ATOM     37  C   UNL     1      -2.482   1.321  22.171  0.00  0.00    +0.417 C 
ENDBRANCH  34  37
ENDBRANCH   1  31
ENDBRANCH  12   1
ENDBRANCH  27  12
TORSDOF 5
ENDMDL
MODEL 5
REMARK VINA RESULT:      12.5      3.310      5.099
REMARK  Name = 7113963
REMARK  6 active torsions:
REMARK  status: ('A' for Active; 'I' for Inactive)
REMARK    1  A    between atoms: S_1  and  N_12
REMARK    2  A    between atoms: S_1  and  C_31
REMARK    3  A    between atoms: N_9  and  C_18
REMARK    4  A    between atoms: N_12  and  C_27
REMARK    5  A    between atoms: C_29  and  C_30
REMARK    6  A    between atoms: C_34  and  C_37
REMARK                            x       y       z     vdW  Elec       q    Type
REMARK                         _______ _______ _______ _____ _____    ______ ____
ROOT
ATOM      5  O   UNL     1      -3.025   0.065  22.340  0.00  0.00    -0.266 OA
ATOM      9  N   UNL     1      -2.132   3.559  25.830  0.00  0.00    -0.298 NA
ATOM     10  N   UNL     1      -3.789   1.671  23.866  0.00  0.00    -0.310 N 
ATOM     13  C   UNL     1      -3.247   4.166  23.668  0.00  0.00    +0.024 C 
ATOM     14  C   UNL     1      -4.606   3.364  25.542  0.00  0.00    +0.050 C 
ATOM     15  C   UNL     1      -4.577   4.361  24.386  0.00  0.00    +0.017 C 
ATOM     16  C   UNL     1      -2.077   4.422  24.642  0.00  0.00    +0.090 C 
ATOM     17  C   UNL     1      -3.434   3.658  26.506  0.00  0.00    +0.094 C 
ATOM     19  C   UNL     1      -3.212   2.756  23.062  0.00  0.00    +0.130 C 
ATOM     20  C   UNL     1      -4.527   1.939  25.027  0.00  0.00    +0.026 A 
ATOM     25  C   UNL     1      -5.142   0.942  25.690  0.00  0.00    +0.024 A 
ATOM     26  C   UNL     1      -3.647   0.362  23.360  0.00  0.00    +0.274 A 
ATOM     27  C   UNL     1      -4.328  -0.697  24.147  0.00  0.00    +0.112 A 
ATOM     28  C   UNL     1      -5.040  -0.420  25.239  0.00  0.00    +0.031 A 
ENDROOT
BRANCH   9  18
ATOM      6  O   UNL     1       3.159   1.797  28.389  0.00  0.00    -0.276 OA
ATOM     11  N   UNL     1       1.171   3.000  28.406  0.00  0.00    -0.302 N 
ATOM     18  C   UNL     1      -1.040   3.866  26.750  0.00  0.00    +0.060 C 
ATOM     21  C   UNL     1       0.300   3.434  26.142  0.00  0.00    +0.038 C 
ATOM     22  C   UNL     1      -1.269   3.162  28.094  0.00  0.00    +0.038 C 
ATOM     23  C   UNL     1       1.445   3.658  27.128  0.00  0.00    +0.109 C 
ATOM     24  C   UNL     1      -0.093   3.392  29.041  0.00  0.00    +0.109 C 
ATOM     29  C   UNL     1       2.103   2.111  28.943  0.00  0.00    +0.212 C 
ATOM     30  C   UNL     1       1.767   1.510  30.284  0.00  0.00    +0.109 C 
ENDBRANCH   9  18
BRANCH  27  12
ATOM     12  N   UNL     1      -4.250  -2.042  23.741  0.00  0.00    -0.211 N 
ATOM     38  H   UNL     1      -5.162  -2.520  23.767  0.00  0.00    +0.174 HD
BRANCH  12   1
ATOM      1  S   UNL     1      -2.958  -2.955  24.342  0.00  0.00    +0.073 S 
ATOM      7  O   UNL     1      -3.326  -3.542  25.616  0.00  0.00    -0.150 OA
ATOM      8  O   UNL     1      -2.414  -3.785  23.284  0.00  0.00    -0.150 OA
BRANCH   1  31
ATOM     31  C   UNL     1      -1.779  -1.678  24.671  0.00  0.00    +0.109 A 
ATOM     32  C   UNL     1      -0.779  -1.430  23.747  0.00  0.00    +0.041 A 
ATOM     33  C   UNL     1      -1.878  -0.954  25.845  0.00  0.00    +0.029 A 
ATOM     34  C   UNL     1       0.152  -0.425  24.006  0.00  0.00    +0.057 A 
ATOM     35  C   UNL     1      -0.946   0.051  26.105  0.00  0.00    +0.002 A 
ATOM     36  C   UNL     1       0.069   0.317  25.185  0.00  0.00    +0.012 A 
BRANCH  34  37
ATOM      2  F   UNL     1       2.333  -0.945  23.172  0.00  0.00    -0.166 F 
ATOM      3  F   UNL     1       0.853  -0.303  21.722  0.00  0.00    -0.166 F 
ATOM      4  F   UNL     1       1.706   1.136  23.112  0.00  0.00    -0.166 F 
ATOM     37  C   UNL     1       1.238  -0.143  23.023  0.00  0.00    +0.417 C 
ENDBRANCH  34  37
ENDBRANCH   1  31
ENDBRANCH  12   1
ENDBRANCH  27  12
TORSDOF 5
ENDMDL
