MODEL 1
REMARK VINA RESULT:      -4.3      0.000      0.000
REMARK  Name = 75536110
REMARK  8 active torsions:
REMARK  status: ('A' for Active; 'I' for Inactive)
REMARK    1  A    between atoms: O_1  and  C_8
REMARK    2  A    between atoms: O_2  and  C_10
REMARK    3  A    between atoms: O_3  and  C_22
REMARK    4  A    between atoms: O_3  and  C_23
REMARK    5  A    between atoms: N_4  and  C_6
REMARK    6  A    between atoms: N_4  and  C_12
REMARK    7  A    between atoms: C_7  and  C_11
REMARK    8  A    between atoms: C_12  and  C_15
REMARK                            x       y       z     vdW  Elec       q    Type
REMARK                         _______ _______ _______ _____ _____    ______ ____
ROOT
ATOM      6  C   UNL     1      -3.824  -0.097  25.059  0.00  0.00    +0.093 C 
ATOM      7  C   UNL     1      -2.576  -0.240  24.133  0.00  0.00    +0.042 C 
ATOM      8  C   UNL     1      -4.090  -1.514  25.594  0.00  0.00    +0.160 C 
ATOM      9  C   UNL     1      -2.194  -1.732  24.168  0.00  0.00    +0.043 C 
ATOM     10  C   UNL     1      -3.499  -2.429  24.525  0.00  0.00    +0.145 C 
ENDROOT
BRANCH   7  11
ATOM      5  N   UNL     1       0.551   1.885  23.812  0.00  0.00    -0.263 NA
ATOM     11  C   UNL     1      -1.429   0.679  24.498  0.00  0.00    -0.025 A 
ATOM     13  C   UNL     1      -1.278   1.154  25.796  0.00  0.00    +0.007 A 
ATOM     14  C   UNL     1      -0.496   1.069  23.552  0.00  0.00    +0.114 A 
ATOM     16  C   UNL     1      -0.215   1.995  26.103  0.00  0.00    +0.020 A 
ATOM     17  C   UNL     1       0.665   2.328  25.085  0.00  0.00    +0.111 A 
ENDBRANCH   7  11
BRANCH   8   1
ATOM      1  O   UNL     1      -3.392  -1.665  26.829  0.00  0.00    -0.388 OA
ATOM     25  H   UNL     1      -2.444  -1.551  26.644  0.00  0.00    +0.210 HD
ENDBRANCH   8   1
BRANCH  10   2
ATOM      2  O   UNL     1      -3.271  -3.741  24.998  0.00  0.00    -0.389 OA
ATOM     26  H   UNL     1      -2.767  -4.214  24.315  0.00  0.00    +0.210 HD
ENDBRANCH  10   2
BRANCH   6   4
ATOM      4  N   UNL     1      -4.970   0.360  24.269  0.00  0.00    -0.306 NA
ATOM     24  H   UNL     1      -5.692  -0.360  24.280  0.00  0.00    +0.123 HD
BRANCH   4  12
ATOM     12  C   UNL     1      -5.527   1.586  24.823  0.00  0.00    +0.116 C 
BRANCH  12  15
ATOM     15  C   UNL     1      -4.486   2.666  24.950  0.00  0.00    -0.033 A 
ATOM     18  C   UNL     1      -3.805   3.116  23.819  0.00  0.00    +0.008 A 
ATOM     19  C   UNL     1      -4.203   3.217  26.200  0.00  0.00    +0.008 A 
ATOM     20  C   UNL     1      -2.840   4.116  23.938  0.00  0.00    +0.046 A 
ATOM     21  C   UNL     1      -3.238   4.218  26.319  0.00  0.00    +0.046 A 
ATOM     22  C   UNL     1      -2.556   4.667  25.187  0.00  0.00    +0.120 A 
BRANCH  22   3
ATOM      3  O   UNL     1      -1.617   5.644  25.303  0.00  0.00    -0.495 OA
ATOM     23  C   UNL     1      -0.424   5.492  24.534  0.00  0.00    +0.277 C 
ENDBRANCH  22   3
ENDBRANCH  12  15
ENDBRANCH   4  12
ENDBRANCH   6   4
TORSDOF 7
ENDMDL
MODEL 2
REMARK VINA RESULT:      -4.3      2.689      4.574
REMARK  Name = 75536110
REMARK  8 active torsions:
REMARK  status: ('A' for Active; 'I' for Inactive)
REMARK    1  A    between atoms: O_1  and  C_8
REMARK    2  A    between atoms: O_2  and  C_10
REMARK    3  A    between atoms: O_3  and  C_22
REMARK    4  A    between atoms: O_3  and  C_23
REMARK    5  A    between atoms: N_4  and  C_6
REMARK    6  A    between atoms: N_4  and  C_12
REMARK    7  A    between atoms: C_7  and  C_11
REMARK    8  A    between atoms: C_12  and  C_15
REMARK                            x       y       z     vdW  Elec       q    Type
REMARK                         _______ _______ _______ _____ _____    ______ ____
ROOT
ATOM      6  C   UNL     1      -0.034   0.932  23.807  0.00  0.00    +0.093 C 
ATOM      7  C   UNL     1      -0.281  -0.341  24.675  0.00  0.00    +0.042 C 
ATOM      8  C   UNL     1       1.222   0.615  22.979  0.00  0.00    +0.160 C 
ATOM      9  C   UNL     1       0.852  -1.321  24.317  0.00  0.00    +0.043 C 
ATOM     10  C   UNL     1       1.969  -0.414  23.823  0.00  0.00    +0.145 C 
ENDROOT
BRANCH   7  11
ATOM      5  N   UNL     1      -3.044  -2.907  24.250  0.00  0.00    -0.263 NA
ATOM     11  C   UNL     1      -1.662  -0.940  24.512  0.00  0.00    -0.025 A 
ATOM     13  C   UNL     1      -2.792  -0.131  24.468  0.00  0.00    +0.007 A 
ATOM     14  C   UNL     1      -1.840  -2.309  24.399  0.00  0.00    +0.114 A 
ATOM     16  C   UNL     1      -4.048  -0.709  24.316  0.00  0.00    +0.020 A 
ATOM     17  C   UNL     1      -4.119  -2.089  24.212  0.00  0.00    +0.111 A 
ENDBRANCH   7  11
BRANCH   8   1
ATOM      1  O   UNL     1       0.809   0.046  21.738  0.00  0.00    -0.388 OA
ATOM     25  H   UNL     1      -0.050  -0.384  21.886  0.00  0.00    +0.210 HD
ENDBRANCH   8   1
BRANCH  10   2
ATOM      2  O   UNL     1       2.929  -1.135  23.077  0.00  0.00    -0.389 OA
ATOM     26  H   UNL     1       3.338  -0.515  22.450  0.00  0.00    +0.210 HD
ENDBRANCH  10   2
BRANCH   6   4
ATOM      4  N   UNL     1       0.222   2.079  24.682  0.00  0.00    -0.306 NA
ATOM     24  H   UNL     1       1.226   2.253  24.720  0.00  0.00    +0.123 HD
BRANCH   4  12
ATOM     12  C   UNL     1      -0.438   3.275  24.177  0.00  0.00    +0.116 C 
BRANCH  12  15
ATOM     15  C   UNL     1      -1.881   3.340  24.602  0.00  0.00    -0.033 A 
ATOM     18  C   UNL     1      -2.890   2.996  23.702  0.00  0.00    +0.008 A 
ATOM     19  C   UNL     1      -2.208   3.744  25.896  0.00  0.00    +0.008 A 
ATOM     20  C   UNL     1      -4.226   3.058  24.096  0.00  0.00    +0.046 A 
ATOM     21  C   UNL     1      -3.545   3.804  26.290  0.00  0.00    +0.046 A 
ATOM     22  C   UNL     1      -4.554   3.462  25.390  0.00  0.00    +0.120 A 
BRANCH  22   3
ATOM      3  O   UNL     1      -5.858   3.520  25.775  0.00  0.00    -0.495 OA
ATOM     23  C   UNL     1      -6.477   2.292  26.158  0.00  0.00    +0.277 C 
ENDBRANCH  22   3
ENDBRANCH  12  15
ENDBRANCH   4  12
ENDBRANCH   6   4
TORSDOF 7
ENDMDL
MODEL 3
REMARK VINA RESULT:      -4.0      2.560      4.687
REMARK  Name = 75536110
REMARK  8 active torsions:
REMARK  status: ('A' for Active; 'I' for Inactive)
REMARK    1  A    between atoms: O_1  and  C_8
REMARK    2  A    between atoms: O_2  and  C_10
REMARK    3  A    between atoms: O_3  and  C_22
REMARK    4  A    between atoms: O_3  and  C_23
REMARK    5  A    between atoms: N_4  and  C_6
REMARK    6  A    between atoms: N_4  and  C_12
REMARK    7  A    between atoms: C_7  and  C_11
REMARK    8  A    between atoms: C_12  and  C_15
REMARK                            x       y       z     vdW  Elec       q    Type
REMARK                         _______ _______ _______ _____ _____    ______ ____
ROOT
ATOM      6  C   UNL     1      -0.827   1.692  23.862  0.00  0.00    +0.093 C 
ATOM      7  C   UNL     1      -1.600   1.039  25.050  0.00  0.00    +0.042 C 
ATOM      8  C   UNL     1       0.456   2.266  24.486  0.00  0.00    +0.160 C 
ATOM      9  C   UNL     1      -0.733   1.283  26.301  0.00  0.00    +0.043 C 
ATOM     10  C   UNL     1       0.077   2.520  25.941  0.00  0.00    +0.145 C 
ENDROOT
BRANCH   7  11
ATOM      5  N   UNL     1      -1.314  -2.581  23.951  0.00  0.00    -0.263 NA
ATOM     11  C   UNL     1      -1.942  -0.420  24.836  0.00  0.00    -0.025 A 
ATOM     13  C   UNL     1      -3.145  -0.947  25.292  0.00  0.00    +0.007 A 
ATOM     14  C   UNL     1      -1.069  -1.270  24.177  0.00  0.00    +0.114 A 
ATOM     16  C   UNL     1      -3.433  -2.291  25.079  0.00  0.00    +0.020 A 
ATOM     17  C   UNL     1      -2.493  -3.058  24.409  0.00  0.00    +0.111 A 
ENDBRANCH   7  11
BRANCH   8   1
ATOM      1  O   UNL     1       1.480   1.276  24.396  0.00  0.00    -0.388 OA
ATOM     25  H   UNL     1       1.901   1.371  23.524  0.00  0.00    +0.210 HD
ENDBRANCH   8   1
BRANCH  10   2
ATOM      2  O   UNL     1       1.205   2.661  26.781  0.00  0.00    -0.389 OA
ATOM     26  H   UNL     1       0.881   2.733  27.695  0.00  0.00    +0.210 HD
ENDBRANCH  10   2
BRANCH   6   4
ATOM      4  N   UNL     1      -1.631   2.776  23.291  0.00  0.00    -0.306 NA
ATOM     24  H   UNL     1      -1.138   3.172  22.491  0.00  0.00    +0.123 HD
BRANCH   4  12
ATOM     12  C   UNL     1      -2.924   2.280  22.840  0.00  0.00    +0.116 C 
BRANCH  12  15
ATOM     15  C   UNL     1      -3.958   2.337  23.934  0.00  0.00    -0.033 A 
ATOM     18  C   UNL     1      -4.903   1.318  24.055  0.00  0.00    +0.008 A 
ATOM     19  C   UNL     1      -3.969   3.409  24.826  0.00  0.00    +0.008 A 
ATOM     20  C   UNL     1      -5.860   1.372  25.067  0.00  0.00    +0.046 A 
ATOM     21  C   UNL     1      -4.927   3.462  25.840  0.00  0.00    +0.046 A 
ATOM     22  C   UNL     1      -5.873   2.443  25.960  0.00  0.00    +0.120 A 
BRANCH  22   3
ATOM      3  O   UNL     1      -6.806   2.494  26.949  0.00  0.00    -0.495 OA
ATOM     23  C   UNL     1      -7.025   1.299  27.697  0.00  0.00    +0.277 C 
ENDBRANCH  22   3
ENDBRANCH  12  15
ENDBRANCH   4  12
ENDBRANCH   6   4
TORSDOF 7
ENDMDL
MODEL 4
REMARK VINA RESULT:      -3.7      2.506      4.647
REMARK  Name = 75536110
REMARK  8 active torsions:
REMARK  status: ('A' for Active; 'I' for Inactive)
REMARK    1  A    between atoms: O_1  and  C_8
REMARK    2  A    between atoms: O_2  and  C_10
REMARK    3  A    between atoms: O_3  and  C_22
REMARK    4  A    between atoms: O_3  and  C_23
REMARK    5  A    between atoms: N_4  and  C_6
REMARK    6  A    between atoms: N_4  and  C_12
REMARK    7  A    between atoms: C_7  and  C_11
REMARK    8  A    between atoms: C_12  and  C_15
REMARK                            x       y       z     vdW  Elec       q    Type
REMARK                         _______ _______ _______ _____ _____    ______ ____
ROOT
ATOM      6  C   UNL     1      -3.776   2.166  24.217  0.00  0.00    +0.093 C 
ATOM      7  C   UNL     1      -4.828   1.013  24.225  0.00  0.00    +0.042 C 
ATOM      8  C   UNL     1      -4.383   3.268  25.102  0.00  0.00    +0.160 C 
ATOM      9  C   UNL     1      -5.993   1.513  25.100  0.00  0.00    +0.043 C 
ATOM     10  C   UNL     1      -5.886   3.028  25.010  0.00  0.00    +0.145 C 
ENDROOT
BRANCH   7  11
ATOM      5  N   UNL     1      -3.164  -1.632  26.376  0.00  0.00    -0.263 NA
ATOM     11  C   UNL     1      -4.274  -0.323  24.674  0.00  0.00    -0.025 A 
ATOM     13  C   UNL     1      -4.346  -1.440  23.849  0.00  0.00    +0.007 A 
ATOM     14  C   UNL     1      -3.678  -0.470  25.915  0.00  0.00    +0.114 A 
ATOM     16  C   UNL     1      -3.828  -2.654  24.288  0.00  0.00    +0.020 A 
ATOM     17  C   UNL     1      -3.252  -2.697  25.547  0.00  0.00    +0.111 A 
ENDBRANCH   7  11
BRANCH   8   1
ATOM      1  O   UNL     1      -3.921   3.074  26.438  0.00  0.00    -0.388 OA
ATOM     25  H   UNL     1      -4.140   2.161  26.692  0.00  0.00    +0.210 HD
ENDBRANCH   8   1
BRANCH  10   2
ATOM      2  O   UNL     1      -6.602   3.659  26.053  0.00  0.00    -0.389 OA
ATOM     26  H   UNL     1      -6.613   4.613  25.864  0.00  0.00    +0.210 HD
ENDBRANCH  10   2
BRANCH   6   4
ATOM      4  N   UNL     1      -3.606   2.663  22.849  0.00  0.00    -0.306 NA
ATOM     24  H   UNL     1      -3.971   3.614  22.791  0.00  0.00    +0.123 HD
BRANCH   4  12
ATOM     12  C   UNL     1      -2.198   2.683  22.476  0.00  0.00    +0.116 C 
BRANCH  12  15
ATOM     15  C   UNL     1      -1.299   2.662  23.683  0.00  0.00    -0.033 A 
ATOM     18  C   UNL     1      -0.762   1.455  24.132  0.00  0.00    +0.008 A 
ATOM     19  C   UNL     1      -1.002   3.850  24.351  0.00  0.00    +0.008 A 
ATOM     20  C   UNL     1       0.071   1.437  25.251  0.00  0.00    +0.046 A 
ATOM     21  C   UNL     1      -0.168   3.830  25.470  0.00  0.00    +0.046 A 
ATOM     22  C   UNL     1       0.368   2.623  25.920  0.00  0.00    +0.120 A 
BRANCH  22   3
ATOM      3  O   UNL     1       1.182   2.605  27.010  0.00  0.00    -0.495 OA
ATOM     23  C   UNL     1       0.573   2.323  28.270  0.00  0.00    +0.277 C 
ENDBRANCH  22   3
ENDBRANCH  12  15
ENDBRANCH   4  12
ENDBRANCH   6   4
TORSDOF 7
ENDMDL
MODEL 5
REMARK VINA RESULT:      -3.7     18.264     20.581
REMARK  Name = 75536110
REMARK  8 active torsions:
REMARK  status: ('A' for Active; 'I' for Inactive)
REMARK    1  A    between atoms: O_1  and  C_8
REMARK    2  A    between atoms: O_2  and  C_10
REMARK    3  A    between atoms: O_3  and  C_22
REMARK    4  A    between atoms: O_3  and  C_23
REMARK    5  A    between atoms: N_4  and  C_6
REMARK    6  A    between atoms: N_4  and  C_12
REMARK    7  A    between atoms: C_7  and  C_11
REMARK    8  A    between atoms: C_12  and  C_15
REMARK                            x       y       z     vdW  Elec       q    Type
REMARK                         _______ _______ _______ _____ _____    ______ ____
ROOT
ATOM      6  C   UNL     1      15.718  -6.919  28.302  0.00  0.00    +0.093 C 
ATOM      7  C   UNL     1      15.722  -6.949  29.862  0.00  0.00    +0.042 C 
ATOM      8  C   UNL     1      16.048  -8.358  27.873  0.00  0.00    +0.160 C 
ATOM      9  C   UNL     1      16.069  -8.398  30.254  0.00  0.00    +0.043 C 
ATOM     10  C   UNL     1      16.837  -8.922  29.050  0.00  0.00    +0.145 C 
ENDROOT
BRANCH   7  11
ATOM      5  N   UNL     1      13.318  -4.831  31.894  0.00  0.00    -0.263 NA
ATOM     11  C   UNL     1      14.438  -6.451  30.491  0.00  0.00    -0.025 A 
ATOM     13  C   UNL     1      13.232  -7.109  30.275  0.00  0.00    +0.007 A 
ATOM     14  C   UNL     1      14.427  -5.328  31.302  0.00  0.00    +0.114 A 
ATOM     16  C   UNL     1      12.069  -6.629  30.866  0.00  0.00    +0.020 A 
ATOM     17  C   UNL     1      12.164  -5.497  31.661  0.00  0.00    +0.111 A 
ENDBRANCH   7  11
BRANCH   8   1
ATOM      1  O   UNL     1      14.822  -9.067  27.701  0.00  0.00    -0.388 OA
ATOM     25  H   UNL     1      14.203  -8.748  28.381  0.00  0.00    +0.210 HD
ENDBRANCH   8   1
BRANCH  10   2
ATOM      2  O   UNL     1      16.887 -10.335  29.045  0.00  0.00    -0.389 OA
ATOM     26  H   UNL     1      17.821 -10.594  29.128  0.00  0.00    +0.210 HD
ENDBRANCH  10   2
BRANCH   6   4
ATOM      4  N   UNL     1      16.761  -6.007  27.827  0.00  0.00    -0.306 NA
ATOM     24  H   UNL     1      17.467  -5.898  28.555  0.00  0.00    +0.123 HD
BRANCH   4  12
ATOM     12  C   UNL     1      17.405  -6.531  26.630  0.00  0.00    +0.116 C 
BRANCH  12  15
ATOM     15  C   UNL     1      17.403  -5.528  25.508  0.00  0.00    -0.033 A 
ATOM     18  C   UNL     1      17.405  -5.963  24.182  0.00  0.00    +0.008 A 
ATOM     19  C   UNL     1      17.400  -4.163  25.794  0.00  0.00    +0.008 A 
ATOM     20  C   UNL     1      17.405  -5.032  23.144  0.00  0.00    +0.046 A 
ATOM     21  C   UNL     1      17.399  -3.232  24.755  0.00  0.00    +0.046 A 
ATOM     22  C   UNL     1      17.402  -3.667  23.429  0.00  0.00    +0.120 A 
BRANCH  22   3
ATOM      3  O   UNL     1      17.400  -2.760  22.415  0.00  0.00    -0.495 OA
ATOM     23  C   UNL     1      17.139  -1.400  22.762  0.00  0.00    +0.277 C 
ENDBRANCH  22   3
ENDBRANCH  12  15
ENDBRANCH   4  12
ENDBRANCH   6   4
TORSDOF 7
ENDMDL
MODEL 6
REMARK VINA RESULT:      -3.4      2.086      5.432
REMARK  Name = 75536110
REMARK  8 active torsions:
REMARK  status: ('A' for Active; 'I' for Inactive)
REMARK    1  A    between atoms: O_1  and  C_8
REMARK    2  A    between atoms: O_2  and  C_10
REMARK    3  A    between atoms: O_3  and  C_22
REMARK    4  A    between atoms: O_3  and  C_23
REMARK    5  A    between atoms: N_4  and  C_6
REMARK    6  A    between atoms: N_4  and  C_12
REMARK    7  A    between atoms: C_7  and  C_11
REMARK    8  A    between atoms: C_12  and  C_15
REMARK                            x       y       z     vdW  Elec       q    Type
REMARK                         _______ _______ _______ _____ _____    ______ ____
ROOT
ATOM      6  C   UNL     1      -3.284   2.922  24.980  0.00  0.00    +0.093 C 
ATOM      7  C   UNL     1      -4.343   2.001  24.299  0.00  0.00    +0.042 C 
ATOM      8  C   UNL     1      -4.100   3.912  25.828  0.00  0.00    +0.160 C 
ATOM      9  C   UNL     1      -5.716   2.515  24.775  0.00  0.00    +0.043 C 
ATOM     10  C   UNL     1      -5.452   3.972  25.125  0.00  0.00    +0.145 C 
ENDROOT
BRANCH   7  11
ATOM      5  N   UNL     1      -3.878  -1.713  23.679  0.00  0.00    -0.263 NA
ATOM     11  C   UNL     1      -4.135   0.524  24.560  0.00  0.00    -0.025 A 
ATOM     13  C   UNL     1      -4.014   0.037  25.856  0.00  0.00    +0.007 A 
ATOM     14  C   UNL     1      -4.061  -0.383  23.516  0.00  0.00    +0.114 A 
ATOM     16  C   UNL     1      -3.824  -1.325  26.065  0.00  0.00    +0.020 A 
ATOM     17  C   UNL     1      -3.765  -2.151  24.954  0.00  0.00    +0.111 A 
ENDBRANCH   7  11
BRANCH   8   1
ATOM      1  O   UNL     1      -4.237   3.371  27.141  0.00  0.00    -0.388 OA
ATOM     25  H   UNL     1      -5.181   3.186  27.283  0.00  0.00    +0.210 HD
ENDBRANCH   8   1
BRANCH  10   2
ATOM      2  O   UNL     1      -6.472   4.496  25.952  0.00  0.00    -0.389 OA
ATOM     26  H   UNL     1      -6.435   5.465  25.882  0.00  0.00    +0.210 HD
ENDBRANCH  10   2
BRANCH   6   4
ATOM      4  N   UNL     1      -2.533   3.648  23.953  0.00  0.00    -0.306 NA
ATOM     24  H   UNL     1      -2.693   4.649  24.066  0.00  0.00    +0.123 HD
BRANCH   4  12
ATOM     12  C   UNL     1      -1.105   3.389  24.074  0.00  0.00    +0.116 C 
BRANCH  12  15
ATOM     15  C   UNL     1      -0.824   1.953  24.428  0.00  0.00    -0.033 A 
ATOM     18  C   UNL     1      -0.835   1.548  25.763  0.00  0.00    +0.008 A 
ATOM     19  C   UNL     1      -0.553   1.028  23.420  0.00  0.00    +0.008 A 
ATOM     20  C   UNL     1      -0.574   0.218  26.089  0.00  0.00    +0.046 A 
ATOM     21  C   UNL     1      -0.292  -0.303  23.748  0.00  0.00    +0.046 A 
ATOM     22  C   UNL     1      -0.302  -0.708  25.083  0.00  0.00    +0.120 A 
BRANCH  22   3
ATOM      3  O   UNL     1      -0.049  -2.006  25.402  0.00  0.00    -0.495 OA
ATOM     23  C   UNL     1      -0.805  -3.003  24.713  0.00  0.00    +0.277 C 
ENDBRANCH  22   3
ENDBRANCH  12  15
ENDBRANCH   4  12
ENDBRANCH   6   4
TORSDOF 7
ENDMDL
MODEL 7
REMARK VINA RESULT:      -3.3      1.653      6.161
REMARK  Name = 75536110
REMARK  8 active torsions:
REMARK  status: ('A' for Active; 'I' for Inactive)
REMARK    1  A    between atoms: O_1  and  C_8
REMARK    2  A    between atoms: O_2  and  C_10
REMARK    3  A    between atoms: O_3  and  C_22
REMARK    4  A    between atoms: O_3  and  C_23
REMARK    5  A    between atoms: N_4  and  C_6
REMARK    6  A    between atoms: N_4  and  C_12
REMARK    7  A    between atoms: C_7  and  C_11
REMARK    8  A    between atoms: C_12  and  C_15
REMARK                            x       y       z     vdW  Elec       q    Type
REMARK                         _______ _______ _______ _____ _____    ______ ____
ROOT
ATOM      6  C   UNL     1      -1.307   3.221  25.901  0.00  0.00    +0.093 C 
ATOM      7  C   UNL     1      -2.122   2.539  24.758  0.00  0.00    +0.042 C 
ATOM      8  C   UNL     1      -0.489   4.322  25.207  0.00  0.00    +0.160 C 
ATOM      9  C   UNL     1      -1.722   3.269  23.462  0.00  0.00    +0.043 C 
ATOM     10  C   UNL     1      -0.339   3.822  23.773  0.00  0.00    +0.145 C 
ENDROOT
BRANCH   7  11
ATOM      5  N   UNL     1      -5.592   3.637  25.827  0.00  0.00    -0.263 NA
ATOM     11  C   UNL     1      -3.617   2.518  24.995  0.00  0.00    -0.025 A 
ATOM     13  C   UNL     1      -4.385   1.419  24.627  0.00  0.00    +0.007 A 
ATOM     14  C   UNL     1      -4.262   3.592  25.587  0.00  0.00    +0.114 A 
ATOM     16  C   UNL     1      -5.757   1.428  24.858  0.00  0.00    +0.020 A 
ATOM     17  C   UNL     1      -6.307   2.550  25.456  0.00  0.00    +0.111 A 
ENDBRANCH   7  11
BRANCH   8   1
ATOM      1  O   UNL     1      -1.244   5.532  25.243  0.00  0.00    -0.388 OA
ATOM     25  H   UNL     1      -2.182   5.287  25.316  0.00  0.00    +0.210 HD
ENDBRANCH   8   1
BRANCH  10   2
ATOM      2  O   UNL     1       0.021   4.850  22.873  0.00  0.00    -0.389 OA
ATOM     26  H   UNL     1       0.934   4.681  22.586  0.00  0.00    +0.210 HD
ENDBRANCH  10   2
BRANCH   6   4
ATOM      4  N   UNL     1      -0.405   2.241  26.512  0.00  0.00    -0.306 NA
ATOM     24  H   UNL     1      -0.930   1.674  27.179  0.00  0.00    +0.123 HD
BRANCH   4  12
ATOM     12  C   UNL     1       0.165   1.360  25.502  0.00  0.00    +0.116 C 
BRANCH  12  15
ATOM     15  C   UNL     1      -0.705   0.157  25.252  0.00  0.00    -0.033 A 
ATOM     18  C   UNL     1      -0.574  -0.566  24.066  0.00  0.00    +0.008 A 
ATOM     19  C   UNL     1      -1.643  -0.235  26.208  0.00  0.00    +0.008 A 
ATOM     20  C   UNL     1      -1.381  -1.679  23.836  0.00  0.00    +0.046 A 
ATOM     21  C   UNL     1      -2.450  -1.350  25.977  0.00  0.00    +0.046 A 
ATOM     22  C   UNL     1      -2.319  -2.072  24.791  0.00  0.00    +0.120 A 
BRANCH  22   3
ATOM      3  O   UNL     1      -3.105  -3.160  24.566  0.00  0.00    -0.495 OA
ATOM     23  C   UNL     1      -4.308  -2.950  23.827  0.00  0.00    +0.277 C 
ENDBRANCH  22   3
ENDBRANCH  12  15
ENDBRANCH   4  12
ENDBRANCH   6   4
TORSDOF 7
ENDMDL
MODEL 8
REMARK VINA RESULT:      -3.3      2.521      4.146
REMARK  Name = 75536110
REMARK  8 active torsions:
REMARK  status: ('A' for Active; 'I' for Inactive)
REMARK    1  A    between atoms: O_1  and  C_8
REMARK    2  A    between atoms: O_2  and  C_10
REMARK    3  A    between atoms: O_3  and  C_22
REMARK    4  A    between atoms: O_3  and  C_23
REMARK    5  A    between atoms: N_4  and  C_6
REMARK    6  A    between atoms: N_4  and  C_12
REMARK    7  A    between atoms: C_7  and  C_11
REMARK    8  A    between atoms: C_12  and  C_15
REMARK                            x       y       z     vdW  Elec       q    Type
REMARK                         _______ _______ _______ _____ _____    ______ ____
ROOT
ATOM      6  C   UNL     1      -4.444   2.453  25.734  0.00  0.00    +0.093 C 
ATOM      7  C   UNL     1      -4.215   1.496  24.523  0.00  0.00    +0.042 C 
ATOM      8  C   UNL     1      -5.971   2.532  25.899  0.00  0.00    +0.160 C 
ATOM      9  C   UNL     1      -5.620   1.085  24.040  0.00  0.00    +0.043 C 
ATOM     10  C   UNL     1      -6.509   2.229  24.504  0.00  0.00    +0.145 C 
ENDROOT
BRANCH   7  11
ATOM      5  N   UNL     1      -1.325  -0.952  24.322  0.00  0.00    -0.263 NA
ATOM     11  C   UNL     1      -3.320   0.315  24.830  0.00  0.00    -0.025 A 
ATOM     13  C   UNL     1      -3.632  -0.572  25.854  0.00  0.00    +0.007 A 
ATOM     14  C   UNL     1      -2.166   0.082  24.100  0.00  0.00    +0.114 A 
ATOM     16  C   UNL     1      -2.791  -1.649  26.114  0.00  0.00    +0.020 A 
ATOM     17  C   UNL     1      -1.660  -1.794  25.326  0.00  0.00    +0.111 A 
ENDBRANCH   7  11
BRANCH   8   1
ATOM      1  O   UNL     1      -6.375   1.525  26.825  0.00  0.00    -0.388 OA
ATOM     25  H   UNL     1      -6.343   0.671  26.359  0.00  0.00    +0.210 HD
ENDBRANCH   8   1
BRANCH  10   2
ATOM      2  O   UNL     1      -7.871   1.852  24.516  0.00  0.00    -0.389 OA
ATOM     26  H   UNL     1      -8.146   1.781  25.446  0.00  0.00    +0.210 HD
ENDBRANCH  10   2
BRANCH   6   4
ATOM      4  N   UNL     1      -3.908   3.779  25.419  0.00  0.00    -0.306 NA
ATOM     24  H   UNL     1      -4.596   4.487  25.675  0.00  0.00    +0.123 HD
BRANCH   4  12
ATOM     12  C   UNL     1      -2.681   4.033  26.162  0.00  0.00    +0.116 C 
BRANCH  12  15
ATOM     15  C   UNL     1      -1.491   3.373  25.518  0.00  0.00    -0.033 A 
ATOM     18  C   UNL     1      -1.191   3.625  24.179  0.00  0.00    +0.008 A 
ATOM     19  C   UNL     1      -0.687   2.509  26.262  0.00  0.00    +0.008 A 
ATOM     20  C   UNL     1      -0.089   3.012  23.584  0.00  0.00    +0.046 A 
ATOM     21  C   UNL     1       0.417   1.897  25.667  0.00  0.00    +0.046 A 
ATOM     22  C   UNL     1       0.715   2.148  24.327  0.00  0.00    +0.120 A 
BRANCH  22   3
ATOM      3  O   UNL     1       1.792   1.552  23.747  0.00  0.00    -0.495 OA
ATOM     23  C   UNL     1       1.562   0.321  23.064  0.00  0.00    +0.277 C 
ENDBRANCH  22   3
ENDBRANCH  12  15
ENDBRANCH   4  12
ENDBRANCH   6   4
TORSDOF 7
ENDMDL
MODEL 9
REMARK VINA RESULT:      -3.1      2.632      5.391
REMARK  Name = 75536110
REMARK  8 active torsions:
REMARK  status: ('A' for Active; 'I' for Inactive)
REMARK    1  A    between atoms: O_1  and  C_8
REMARK    2  A    between atoms: O_2  and  C_10
REMARK    3  A    between atoms: O_3  and  C_22
REMARK    4  A    between atoms: O_3  and  C_23
REMARK    5  A    between atoms: N_4  and  C_6
REMARK    6  A    between atoms: N_4  and  C_12
REMARK    7  A    between atoms: C_7  and  C_11
REMARK    8  A    between atoms: C_12  and  C_15
REMARK                            x       y       z     vdW  Elec       q    Type
REMARK                         _______ _______ _______ _____ _____    ______ ____
ROOT
ATOM      6  C   UNL     1      -3.353   2.501  25.949  0.00  0.00    +0.093 C 
ATOM      7  C   UNL     1      -3.841   1.797  24.644  0.00  0.00    +0.042 C 
ATOM      8  C   UNL     1      -4.507   3.431  26.358  0.00  0.00    +0.160 C 
ATOM      9  C   UNL     1      -5.243   2.368  24.357  0.00  0.00    +0.043 C 
ATOM     10  C   UNL     1      -5.226   3.725  25.045  0.00  0.00    +0.145 C 
ENDROOT
BRANCH   7  11
ATOM      5  N   UNL     1      -3.412  -1.718  26.005  0.00  0.00    -0.263 NA
ATOM     11  C   UNL     1      -3.813   0.285  24.712  0.00  0.00    -0.025 A 
ATOM     13  C   UNL     1      -4.142  -0.487  23.603  0.00  0.00    +0.007 A 
ATOM     14  C   UNL     1      -3.457  -0.372  25.878  0.00  0.00    +0.114 A 
ATOM     16  C   UNL     1      -4.108  -1.874  23.695  0.00  0.00    +0.020 A 
ATOM     17  C   UNL     1      -3.738  -2.436  24.907  0.00  0.00    +0.111 A 
ENDBRANCH   7  11
BRANCH   8   1
ATOM      1  O   UNL     1      -5.360   2.720  27.253  0.00  0.00    -0.388 OA
ATOM     25  H   UNL     1      -5.188   3.057  28.149  0.00  0.00    +0.210 HD
ENDBRANCH   8   1
BRANCH  10   2
ATOM      2  O   UNL     1      -6.535   4.221  25.241  0.00  0.00    -0.389 OA
ATOM     26  H   UNL     1      -6.795   4.006  26.153  0.00  0.00    +0.210 HD
ENDBRANCH  10   2
BRANCH   6   4
ATOM      4  N   UNL     1      -2.154   3.292  25.659  0.00  0.00    -0.306 NA
ATOM     24  H   UNL     1      -2.247   4.211  26.092  0.00  0.00    +0.123 HD
BRANCH   4  12
ATOM     12  C   UNL     1      -0.964   2.645  26.194  0.00  0.00    +0.116 C 
BRANCH  12  15
ATOM     15  C   UNL     1      -0.258   1.820  25.150  0.00  0.00    -0.033 A 
ATOM     18  C   UNL     1      -0.544   0.461  25.024  0.00  0.00    +0.008 A 
ATOM     19  C   UNL     1       0.682   2.417  24.310  0.00  0.00    +0.008 A 
ATOM     20  C   UNL     1       0.111  -0.302  24.058  0.00  0.00    +0.046 A 
ATOM     21  C   UNL     1       1.336   1.653  23.343  0.00  0.00    +0.046 A 
ATOM     22  C   UNL     1       1.051   0.293  23.217  0.00  0.00    +0.120 A 
BRANCH  22   3
ATOM      3  O   UNL     1       1.688  -0.451  22.273  0.00  0.00    -0.495 OA
ATOM     23  C   UNL     1       3.006  -0.045  21.907  0.00  0.00    +0.277 C 
ENDBRANCH  22   3
ENDBRANCH  12  15
ENDBRANCH   4  12
ENDBRANCH   6   4
TORSDOF 7
ENDMDL
MODEL 10
REMARK VINA RESULT:      -2.7      2.058      3.078
REMARK  Name = 75536110
REMARK  8 active torsions:
REMARK  status: ('A' for Active; 'I' for Inactive)
REMARK    1  A    between atoms: O_1  and  C_8
REMARK    2  A    between atoms: O_2  and  C_10
REMARK    3  A    between atoms: O_3  and  C_22
REMARK    4  A    between atoms: O_3  and  C_23
REMARK    5  A    between atoms: N_4  and  C_6
REMARK    6  A    between atoms: N_4  and  C_12
REMARK    7  A    between atoms: C_7  and  C_11
REMARK    8  A    between atoms: C_12  and  C_15
REMARK                            x       y       z     vdW  Elec       q    Type
REMARK                         _______ _______ _______ _____ _____    ______ ____
ROOT
ATOM      6  C   UNL     1      -2.199  -0.266  24.833  0.00  0.00    +0.093 C 
ATOM      7  C   UNL     1      -1.048   0.528  24.141  0.00  0.00    +0.042 C 
ATOM      8  C   UNL     1      -1.501  -1.413  25.582  0.00  0.00    +0.160 C 
ATOM      9  C   UNL     1       0.253  -0.208  24.511  0.00  0.00    +0.043 C 
ATOM     10  C   UNL     1      -0.208  -1.629  24.801  0.00  0.00    +0.145 C 
ENDROOT
BRANCH   7  11
ATOM      5  N   UNL     1      -1.505   3.759  26.078  0.00  0.00    -0.263 NA
ATOM     11  C   UNL     1      -1.021   2.002  24.489  0.00  0.00    -0.025 A 
ATOM     13  C   UNL     1      -0.516   2.939  23.595  0.00  0.00    +0.007 A 
ATOM     14  C   UNL     1      -1.500   2.459  25.706  0.00  0.00    +0.114 A 
ATOM     16  C   UNL     1      -0.504   4.286  23.941  0.00  0.00    +0.020 A 
ATOM     17  C   UNL     1      -1.006   4.641  25.183  0.00  0.00    +0.111 A 
ENDBRANCH   7  11
BRANCH   8   1
ATOM      1  O   UNL     1      -1.221  -0.977  26.911  0.00  0.00    -0.388 OA
ATOM     25  H   UNL     1      -0.475  -1.507  27.240  0.00  0.00    +0.210 HD
ENDBRANCH   8   1
BRANCH  10   2
ATOM      2  O   UNL     1       0.761  -2.346  25.540  0.00  0.00    -0.389 OA
ATOM     26  H   UNL     1       0.320  -3.124  25.921  0.00  0.00    +0.210 HD
ENDBRANCH  10   2
BRANCH   6   4
ATOM      4  N   UNL     1      -3.099  -0.812  23.814  0.00  0.00    -0.306 NA
ATOM     24  H   UNL     1      -2.974  -1.823  23.764  0.00  0.00    +0.123 HD
BRANCH   4  12
ATOM     12  C   UNL     1      -4.490  -0.532  24.146  0.00  0.00    +0.116 C 
BRANCH  12  15
ATOM     15  C   UNL     1      -4.692   0.907  24.540  0.00  0.00    -0.033 A 
ATOM     18  C   UNL     1      -5.338   1.218  25.737  0.00  0.00    +0.008 A 
ATOM     19  C   UNL     1      -4.235   1.928  23.708  0.00  0.00    +0.008 A 
ATOM     20  C   UNL     1      -5.527   2.551  26.100  0.00  0.00    +0.046 A 
ATOM     21  C   UNL     1      -4.423   3.262  24.072  0.00  0.00    +0.046 A 
ATOM     22  C   UNL     1      -5.069   3.573  25.269  0.00  0.00    +0.120 A 
BRANCH  22   3
ATOM      3  O   UNL     1      -5.251   4.874  25.625  0.00  0.00    -0.495 OA
ATOM     23  C   UNL     1      -6.512   5.463  25.309  0.00  0.00    +0.277 C 
ENDBRANCH  22   3
ENDBRANCH  12  15
ENDBRANCH   4  12
ENDBRANCH   6   4
TORSDOF 7
ENDMDL
