MODEL 1
REMARK VINA RESULT:       1.1      0.000      0.000
REMARK  Name = 45783625
REMARK  10 active torsions:
REMARK  status: ('A' for Active; 'I' for Inactive)
REMARK    1  A    between atoms: O_2  and  C_27
REMARK    2  A    between atoms: O_4  and  C_31
REMARK    3  A    between atoms: O_4  and  C_32
REMARK    4  A    between atoms: N_6  and  C_15
REMARK    5  A    between atoms: N_10  and  C_29
REMARK    6  A    between atoms: C_11  and  C_16
REMARK    7  A    between atoms: C_15  and  C_17
REMARK    8  A    between atoms: C_20  and  C_24
REMARK    9  A    between atoms: C_23  and  C_27
REMARK   10  A    between atoms: C_30  and  C_31
REMARK                            x       y       z     vdW  Elec       q    Type
REMARK                         _______ _______ _______ _____ _____    ______ ____
ROOT
ATOM      1  O   UNL     1      -3.806   2.680  22.394  0.00  0.00    -0.336 OA
ATOM      7  N   UNL     1      -2.765   2.108  24.293  0.00  0.00    -0.190 NA
ATOM      8  N   UNL     1      -2.494   2.344  22.034  0.00  0.00    -0.056 NA
ATOM     16  C   UNL     1      -3.880   2.514  23.741  0.00  0.00    +0.245 A 
ATOM     20  C   UNL     1      -1.944   2.018  23.208  0.00  0.00    +0.204 A 
ENDROOT
BRANCH  20  24
ATOM      9  N   UNL     1       1.686   2.108  24.012  0.00  0.00    -0.239 NA
ATOM     24  C   UNL     1      -0.578   1.599  23.329  0.00  0.00    +0.041 A 
ATOM     25  C   UNL     1      -0.175   0.337  22.907  0.00  0.00    +0.016 A 
ATOM     26  C   UNL     1       0.382   2.440  23.870  0.00  0.00    +0.124 A 
ATOM     28  C   UNL     1       1.157  -0.041  23.037  0.00  0.00    +0.044 A 
ATOM     29  C   UNL     1       2.040   0.873  23.591  0.00  0.00    +0.125 A 
BRANCH  29  10
ATOM      5  O   UNL     1       4.275   0.882  21.576  0.00  0.00    -0.273 OA
ATOM     10  N   UNL     1       3.378   0.482  23.717  0.00  0.00    -0.268 N 
ATOM     30  C   UNL     1       4.379   0.509  22.741  0.00  0.00    +0.244 C 
ATOM     33  H   UNL     1       3.631   0.141  24.642  0.00  0.00    +0.156 HD
BRANCH  30  31
ATOM     31  C   UNL     1       5.701  -0.007  23.267  0.00  0.00    +0.255 C 
BRANCH  31   4
ATOM      4  O   UNL     1       5.451  -0.881  24.347  0.00  0.00    -0.374 OA
ATOM     32  C   UNL     1       4.683  -2.012  23.948  0.00  0.00    +0.194 C 
ENDBRANCH  31   4
ENDBRANCH  30  31
ENDBRANCH  29  10
ENDBRANCH  20  24
BRANCH  16  11
ATOM      6  N   UNL     1      -5.360   2.194  25.717  0.00  0.00    -0.287 NA
ATOM     11  C   UNL     1      -5.217   2.818  24.385  0.00  0.00    +0.146 C 
ATOM     12  C   UNL     1      -5.430   4.323  24.631  0.00  0.00    +0.030 C 
ATOM     13  C   UNL     1      -5.746   4.441  26.116  0.00  0.00    +0.017 C 
ATOM     14  C   UNL     1      -6.254   3.061  26.484  0.00  0.00    +0.085 C 
BRANCH   6  15
ATOM     15  C   UNL     1      -5.842   0.821  25.660  0.00  0.00    +0.120 C 
BRANCH  15  17
ATOM     17  C   UNL     1      -4.743  -0.145  25.304  0.00  0.00    -0.033 A 
ATOM     18  C   UNL     1      -4.822  -0.888  24.127  0.00  0.00    +0.006 A 
ATOM     19  C   UNL     1      -3.647  -0.297  26.153  0.00  0.00    +0.006 A 
ATOM     21  C   UNL     1      -3.804  -1.783  23.798  0.00  0.00    +0.015 A 
ATOM     22  C   UNL     1      -2.629  -1.193  25.824  0.00  0.00    +0.015 A 
ATOM     23  C   UNL     1      -2.708  -1.935  24.646  0.00  0.00    +0.059 A 
BRANCH  23  27
ATOM      3  O   UNL     1      -1.656  -3.640  23.338  0.00  0.00    -0.245 OA
ATOM     27  C   UNL     1      -1.646  -2.868  24.303  0.00  0.00    +0.337 C 
BRANCH  27   2
ATOM      2  O   UNL     1      -0.601  -2.811  25.174  0.00  0.00    -0.477 OA
ATOM     34  H   UNL     1      -0.904  -2.755  26.105  0.00  0.00    +0.295 HD
ENDBRANCH  27   2
ENDBRANCH  23  27
ENDBRANCH  15  17
ENDBRANCH   6  15
ENDBRANCH  16  11
TORSDOF 9
ENDMDL
MODEL 2
REMARK VINA RESULT:       1.6      1.239      1.837
REMARK  Name = 45783625
REMARK  10 active torsions:
REMARK  status: ('A' for Active; 'I' for Inactive)
REMARK    1  A    between atoms: O_2  and  C_27
REMARK    2  A    between atoms: O_4  and  C_31
REMARK    3  A    between atoms: O_4  and  C_32
REMARK    4  A    between atoms: N_6  and  C_15
REMARK    5  A    between atoms: N_10  and  C_29
REMARK    6  A    between atoms: C_11  and  C_16
REMARK    7  A    between atoms: C_15  and  C_17
REMARK    8  A    between atoms: C_20  and  C_24
REMARK    9  A    between atoms: C_23  and  C_27
REMARK   10  A    between atoms: C_30  and  C_31
REMARK                            x       y       z     vdW  Elec       q    Type
REMARK                         _______ _______ _______ _____ _____    ______ ____
ROOT
ATOM      1  O   UNL     1      -2.580   2.995  25.876  0.00  0.00    -0.336 OA
ATOM      7  N   UNL     1      -2.259   2.166  23.821  0.00  0.00    -0.190 NA
ATOM      8  N   UNL     1      -1.238   2.595  25.822  0.00  0.00    -0.056 NA
ATOM     16  C   UNL     1      -3.108   2.707  24.658  0.00  0.00    +0.245 A 
ATOM     20  C   UNL     1      -1.127   2.118  24.579  0.00  0.00    +0.204 A 
ENDROOT
BRANCH  20  24
ATOM      9  N   UNL     1       2.439   1.918  23.539  0.00  0.00    -0.239 NA
ATOM     24  C   UNL     1       0.102   1.584  24.066  0.00  0.00    +0.041 A 
ATOM     25  C   UNL     1       0.178   0.274  23.607  0.00  0.00    +0.016 A 
ATOM     26  C   UNL     1       1.250   2.359  24.010  0.00  0.00    +0.124 A 
ATOM     28  C   UNL     1       1.383  -0.215  23.114  0.00  0.00    +0.044 A 
ATOM     29  C   UNL     1       2.474   0.639  23.102  0.00  0.00    +0.125 A 
BRANCH  29  10
ATOM      5  O   UNL     1       5.241   0.673  24.285  0.00  0.00    -0.273 OA
ATOM     10  N   UNL     1       3.681   0.136  22.604  0.00  0.00    -0.268 N 
ATOM     30  C   UNL     1       4.945   0.180  23.201  0.00  0.00    +0.244 C 
ATOM     33  H   UNL     1       3.605  -0.314  21.694  0.00  0.00    +0.156 HD
BRANCH  30  31
ATOM     31  C   UNL     1       6.005  -0.469  22.338  0.00  0.00    +0.255 C 
BRANCH  31   4
ATOM      4  O   UNL     1       7.040  -0.947  23.170  0.00  0.00    -0.374 OA
ATOM     32  C   UNL     1       8.282  -0.306  22.895  0.00  0.00    +0.194 C 
ENDBRANCH  31   4
ENDBRANCH  30  31
ENDBRANCH  29  10
ENDBRANCH  20  24
BRANCH  16  11
ATOM      6  N   UNL     1      -5.450   2.370  25.429  0.00  0.00    -0.287 NA
ATOM     11  C   UNL     1      -4.570   3.049  24.457  0.00  0.00    +0.146 C 
ATOM     12  C   UNL     1      -4.860   4.549  24.646  0.00  0.00    +0.030 C 
ATOM     13  C   UNL     1      -5.958   4.611  25.699  0.00  0.00    +0.017 C 
ATOM     14  C   UNL     1      -6.607   3.244  25.619  0.00  0.00    +0.085 C 
BRANCH   6  15
ATOM     15  C   UNL     1      -5.838   1.028  25.014  0.00  0.00    +0.120 C 
BRANCH  15  17
ATOM     17  C   UNL     1      -4.655   0.100  24.940  0.00  0.00    -0.033 A 
ATOM     18  C   UNL     1      -3.869  -0.119  26.071  0.00  0.00    +0.006 A 
ATOM     19  C   UNL     1      -4.344  -0.540  23.741  0.00  0.00    +0.006 A 
ATOM     21  C   UNL     1      -2.773  -0.978  26.003  0.00  0.00    +0.015 A 
ATOM     22  C   UNL     1      -3.248  -1.400  23.673  0.00  0.00    +0.015 A 
ATOM     23  C   UNL     1      -2.462  -1.619  24.804  0.00  0.00    +0.059 A 
BRANCH  23  27
ATOM      3  O   UNL     1      -0.408  -2.582  25.565  0.00  0.00    -0.245 OA
ATOM     27  C   UNL     1      -1.320  -2.516  24.733  0.00  0.00    +0.337 C 
BRANCH  27   2
ATOM      2  O   UNL     1      -1.346  -3.305  23.625  0.00  0.00    -0.477 OA
ATOM     34  H   UNL     1      -1.347  -4.259  23.855  0.00  0.00    +0.295 HD
ENDBRANCH  27   2
ENDBRANCH  23  27
ENDBRANCH  15  17
ENDBRANCH   6  15
ENDBRANCH  16  11
TORSDOF 9
ENDMDL
