MODEL 1
REMARK VINA RESULT:      -2.3      0.000      0.000
REMARK  Name = 45784264
REMARK  4 active torsions:
REMARK  status: ('A' for Active; 'I' for Inactive)
REMARK    1  A    between atoms: N_5  and  C_13
REMARK    2  A    between atoms: C_8  and  C_12
REMARK    3  A    between atoms: C_13  and  C_14
REMARK    4  A    between atoms: C_21  and  C_25
REMARK                            x       y       z     vdW  Elec       q    Type
REMARK                         _______ _______ _______ _____ _____    ______ ____
ROOT
ATOM      6  N   UNL     1       0.474  -1.493  24.076  0.00  0.00    -0.342 N 
ATOM      7  N   UNL     1      -0.420   0.486  23.603  0.00  0.00    -0.232 NA
ATOM     12  C   UNL     1      -0.669  -0.752  23.967  0.00  0.00    +0.113 A 
ATOM     15  C   UNL     1       1.532  -0.678  23.761  0.00  0.00    +0.067 A 
ATOM     16  C   UNL     1       0.948   0.551  23.470  0.00  0.00    +0.089 A 
ATOM     17  C   UNL     1       2.908  -0.905  23.708  0.00  0.00    +0.040 A 
ATOM     18  C   UNL     1       1.770   1.629  23.102  0.00  0.00    +0.030 A 
ATOM     21  C   UNL     1       3.711   0.179  23.340  0.00  0.00    +0.057 A 
ATOM     22  C   UNL     1       3.154   1.425  23.042  0.00  0.00    +0.014 A 
ATOM     27  H   UNL     1       0.535  -2.467  24.341  0.00  0.00    +0.167 HD
ENDROOT
BRANCH  12   8
ATOM      5  N   UNL     1      -4.272  -0.803  24.628  0.00  0.00    -0.297 NA
ATOM      8  C   UNL     1      -2.026  -1.356  24.249  0.00  0.00    +0.070 C 
ATOM      9  C   UNL     1      -2.356  -1.538  25.741  0.00  0.00    +0.028 C 
ATOM     10  C   UNL     1      -3.182  -0.512  23.695  0.00  0.00    +0.096 C 
ATOM     11  C   UNL     1      -3.653  -0.771  25.953  0.00  0.00    +0.085 C 
BRANCH   5  13
ATOM     13  C   UNL     1      -5.373   0.142  24.508  0.00  0.00    +0.122 C 
BRANCH  13  14
ATOM      1  F   UNL     1      -6.406   1.846  26.522  0.00  0.00    -0.205 F 
ATOM     14  C   UNL     1      -4.914   1.564  24.698  0.00  0.00    +0.002 A 
ATOM     19  C   UNL     1      -5.465   2.348  25.710  0.00  0.00    +0.128 A 
ATOM     20  C   UNL     1      -3.935   2.095  23.858  0.00  0.00    +0.008 A 
ATOM     23  C   UNL     1      -5.039   3.664  25.883  0.00  0.00    +0.038 A 
ATOM     24  C   UNL     1      -3.509   3.412  24.031  0.00  0.00    +0.000 A 
ATOM     26  C   UNL     1      -4.060   4.197  25.044  0.00  0.00    +0.003 A 
ENDBRANCH  13  14
ENDBRANCH   5  13
ENDBRANCH  12   8
BRANCH  21  25
ATOM      2  F   UNL     1       5.872   0.986  23.914  0.00  0.00    -0.166 F 
ATOM      3  F   UNL     1       5.628  -1.172  23.812  0.00  0.00    -0.166 F 
ATOM      4  F   UNL     1       5.676  -0.001  21.988  0.00  0.00    -0.166 F 
ATOM     25  C   UNL     1       5.192  -0.000  23.264  0.00  0.00    +0.417 C 
ENDBRANCH  21  25
TORSDOF 4
ENDMDL
MODEL 2
REMARK VINA RESULT:      -2.2      1.774      3.415
REMARK  Name = 45784264
REMARK  4 active torsions:
REMARK  status: ('A' for Active; 'I' for Inactive)
REMARK    1  A    between atoms: N_5  and  C_13
REMARK    2  A    between atoms: C_8  and  C_12
REMARK    3  A    between atoms: C_13  and  C_14
REMARK    4  A    between atoms: C_21  and  C_25
REMARK                            x       y       z     vdW  Elec       q    Type
REMARK                         _______ _______ _______ _____ _____    ______ ____
ROOT
ATOM      6  N   UNL     1       0.927   1.856  24.464  0.00  0.00    -0.342 N 
ATOM      7  N   UNL     1      -0.106   0.815  22.794  0.00  0.00    -0.232 NA
ATOM     12  C   UNL     1      -0.257   1.612  23.828  0.00  0.00    +0.113 A 
ATOM     15  C   UNL     1       1.910   1.169  23.796  0.00  0.00    +0.067 A 
ATOM     16  C   UNL     1       1.240   0.528  22.758  0.00  0.00    +0.089 A 
ATOM     17  C   UNL     1       3.285   1.059  24.005  0.00  0.00    +0.040 A 
ATOM     18  C   UNL     1       1.969  -0.276  21.866  0.00  0.00    +0.030 A 
ATOM     21  C   UNL     1       3.995   0.255  23.107  0.00  0.00    +0.057 A 
ATOM     22  C   UNL     1       3.351  -0.402  22.056  0.00  0.00    +0.014 A 
ATOM     27  H   UNL     1       1.061   2.436  25.280  0.00  0.00    +0.167 HD
ENDROOT
BRANCH  12   8
ATOM      5  N   UNL     1      -3.758   1.698  24.905  0.00  0.00    -0.297 NA
ATOM      8  C   UNL     1      -1.551   2.224  24.315  0.00  0.00    +0.070 C 
ATOM      9  C   UNL     1      -2.505   2.690  23.202  0.00  0.00    +0.028 C 
ATOM     10  C   UNL     1      -2.387   1.257  25.165  0.00  0.00    +0.096 C 
ATOM     11  C   UNL     1      -3.808   1.946  23.464  0.00  0.00    +0.085 C 
BRANCH   5  13
ATOM     13  C   UNL     1      -4.747   0.719  25.332  0.00  0.00    +0.122 C 
BRANCH  13  14
ATOM      1  F   UNL     1      -3.340  -0.942  27.146  0.00  0.00    -0.205 F 
ATOM     14  C   UNL     1      -4.323  -0.688  25.000  0.00  0.00    +0.002 A 
ATOM     19  C   UNL     1      -3.633  -1.451  25.941  0.00  0.00    +0.128 A 
ATOM     20  C   UNL     1      -4.623  -1.226  23.749  0.00  0.00    +0.008 A 
ATOM     23  C   UNL     1      -3.241  -2.753  25.631  0.00  0.00    +0.038 A 
ATOM     24  C   UNL     1      -4.231  -2.529  23.439  0.00  0.00    +0.000 A 
ATOM     26  C   UNL     1      -3.540  -3.292  24.380  0.00  0.00    +0.003 A 
ENDBRANCH  13  14
ENDBRANCH   5  13
ENDBRANCH  12   8
BRANCH  21  25
ATOM      2  F   UNL     1       5.790  -0.874  24.181  0.00  0.00    -0.166 F 
ATOM      3  F   UNL     1       6.119  -0.246  22.125  0.00  0.00    -0.166 F 
ATOM      4  F   UNL     1       6.094   1.227  23.716  0.00  0.00    -0.166 F 
ATOM     25  C   UNL     1       5.471   0.095  23.278  0.00  0.00    +0.417 C 
ENDBRANCH  21  25
TORSDOF 4
ENDMDL
MODEL 3
REMARK VINA RESULT:      -0.9     15.494     19.553
REMARK  Name = 45784264
REMARK  4 active torsions:
REMARK  status: ('A' for Active; 'I' for Inactive)
REMARK    1  A    between atoms: N_5  and  C_13
REMARK    2  A    between atoms: C_8  and  C_12
REMARK    3  A    between atoms: C_13  and  C_14
REMARK    4  A    between atoms: C_21  and  C_25
REMARK                            x       y       z     vdW  Elec       q    Type
REMARK                         _______ _______ _______ _____ _____    ______ ____
ROOT
ATOM      6  N   UNL     1      13.075  -8.205  30.668  0.00  0.00    -0.342 N 
ATOM      7  N   UNL     1      14.931  -7.791  31.820  0.00  0.00    -0.232 NA
ATOM     12  C   UNL     1      14.331  -8.627  31.001  0.00  0.00    +0.113 A 
ATOM     15  C   UNL     1      12.848  -7.016  31.315  0.00  0.00    +0.067 A 
ATOM     16  C   UNL     1      14.021  -6.780  32.027  0.00  0.00    +0.089 A 
ATOM     17  C   UNL     1      11.751  -6.154  31.337  0.00  0.00    +0.040 A 
ATOM     18  C   UNL     1      14.122  -5.620  32.812  0.00  0.00    +0.030 A 
ATOM     21  C   UNL     1      11.870  -5.005  32.124  0.00  0.00    +0.057 A 
ATOM     22  C   UNL     1      13.033  -4.740  32.850  0.00  0.00    +0.014 A 
ATOM     27  H   UNL     1      12.426  -8.679  30.055  0.00  0.00    +0.167 HD
ENDROOT
BRANCH  12   8
ATOM      5  N   UNL     1      16.288 -10.781  28.775  0.00  0.00    -0.297 NA
ATOM      8  C   UNL     1      14.897  -9.917  30.453  0.00  0.00    +0.070 C 
ATOM      9  C   UNL     1      14.038 -10.591  29.369  0.00  0.00    +0.028 C 
ATOM     10  C   UNL     1      16.275  -9.737  29.800  0.00  0.00    +0.096 C 
ATOM     11  C   UNL     1      14.959 -10.727  28.164  0.00  0.00    +0.085 C 
BRANCH   5  13
ATOM     13  C   UNL     1      17.353 -10.589  27.801  0.00  0.00    +0.122 C 
BRANCH  13  14
ATOM      1  F   UNL     1      16.588 -10.518  25.074  0.00  0.00    -0.205 F 
ATOM     14  C   UNL     1      17.182  -9.308  27.028  0.00  0.00    +0.002 A 
ATOM     19  C   UNL     1      16.803  -9.345  25.687  0.00  0.00    +0.128 A 
ATOM     20  C   UNL     1      17.403  -8.083  27.657  0.00  0.00    +0.008 A 
ATOM     23  C   UNL     1      16.646  -8.157  24.974  0.00  0.00    +0.038 A 
ATOM     24  C   UNL     1      17.246  -6.895  26.943  0.00  0.00    +0.000 A 
ATOM     26  C   UNL     1      16.867  -6.932  25.602  0.00  0.00    +0.003 A 
ENDBRANCH  13  14
ENDBRANCH   5  13
ENDBRANCH  12   8
BRANCH  21  25
ATOM      2  F   UNL     1      11.042  -2.906  32.873  0.00  0.00    -0.166 F 
ATOM      3  F   UNL     1      10.294  -3.628  30.964  0.00  0.00    -0.166 F 
ATOM      4  F   UNL     1       9.623  -4.551  32.808  0.00  0.00    -0.166 F 
ATOM     25  C   UNL     1      10.728  -4.043  32.190  0.00  0.00    +0.417 C 
ENDBRANCH  21  25
TORSDOF 4
ENDMDL
MODEL 4
REMARK VINA RESULT:      -0.7      1.509      2.260
REMARK  Name = 45784264
REMARK  4 active torsions:
REMARK  status: ('A' for Active; 'I' for Inactive)
REMARK    1  A    between atoms: N_5  and  C_13
REMARK    2  A    between atoms: C_8  and  C_12
REMARK    3  A    between atoms: C_13  and  C_14
REMARK    4  A    between atoms: C_21  and  C_25
REMARK                            x       y       z     vdW  Elec       q    Type
REMARK                         _______ _______ _______ _____ _____    ______ ____
ROOT
ATOM      6  N   UNL     1      -0.845   0.425  23.439  0.00  0.00    -0.342 N 
ATOM      7  N   UNL     1      -0.717  -1.619  24.301  0.00  0.00    -0.232 NA
ATOM     12  C   UNL     1      -1.525  -0.641  23.956  0.00  0.00    +0.113 A 
ATOM     15  C   UNL     1       0.491   0.116  23.451  0.00  0.00    +0.067 A 
ATOM     16  C   UNL     1       0.545  -1.165  23.993  0.00  0.00    +0.089 A 
ATOM     17  C   UNL     1       1.623   0.825  23.045  0.00  0.00    +0.040 A 
ATOM     18  C   UNL     1       1.793  -1.791  24.148  0.00  0.00    +0.030 A 
ATOM     21  C   UNL     1       2.856   0.186  23.207  0.00  0.00    +0.057 A 
ATOM     22  C   UNL     1       2.943  -1.098  23.748  0.00  0.00    +0.014 A 
ATOM     27  H   UNL     1      -1.250   1.290  23.106  0.00  0.00    +0.167 HD
ENDROOT
BRANCH  12   8
ATOM      5  N   UNL     1      -4.840   0.753  24.656  0.00  0.00    -0.297 NA
ATOM      8  C   UNL     1      -3.031  -0.625  24.086  0.00  0.00    +0.070 C 
ATOM      9  C   UNL     1      -3.565  -1.024  25.473  0.00  0.00    +0.028 C 
ATOM     10  C   UNL     1      -3.639   0.759  23.819  0.00  0.00    +0.096 C 
ATOM     11  C   UNL     1      -4.414   0.157  25.922  0.00  0.00    +0.085 C 
BRANCH   5  13
ATOM     13  C   UNL     1      -5.401   2.085  24.831  0.00  0.00    +0.122 C 
BRANCH  13  14
ATOM      1  F   UNL     1      -4.140   3.443  22.688  0.00  0.00    -0.205 F 
ATOM     14  C   UNL     1      -4.328   3.123  25.033  0.00  0.00    +0.002 A 
ATOM     19  C   UNL     1      -3.749   3.754  23.932  0.00  0.00    +0.128 A 
ATOM     20  C   UNL     1      -3.914   3.452  26.323  0.00  0.00    +0.008 A 
ATOM     23  C   UNL     1      -2.755   4.713  24.122  0.00  0.00    +0.038 A 
ATOM     24  C   UNL     1      -2.920   4.412  26.513  0.00  0.00    +0.000 A 
ATOM     26  C   UNL     1      -2.341   5.043  25.412  0.00  0.00    +0.003 A 
ENDBRANCH  13  14
ENDBRANCH   5  13
ENDBRANCH  12   8
BRANCH  21  25
ATOM      2  F   UNL     1       3.894   2.213  22.523  0.00  0.00    -0.166 F 
ATOM      3  F   UNL     1       5.089   0.863  23.740  0.00  0.00    -0.166 F 
ATOM      4  F   UNL     1       4.678   0.375  21.667  0.00  0.00    -0.166 F 
ATOM     25  C   UNL     1       4.105   0.894  22.792  0.00  0.00    +0.417 C 
ENDBRANCH  21  25
TORSDOF 4
ENDMDL
MODEL 5
REMARK VINA RESULT:       0.0      1.873      8.640
REMARK  Name = 45784264
REMARK  4 active torsions:
REMARK  status: ('A' for Active; 'I' for Inactive)
REMARK    1  A    between atoms: N_5  and  C_13
REMARK    2  A    between atoms: C_8  and  C_12
REMARK    3  A    between atoms: C_13  and  C_14
REMARK    4  A    between atoms: C_21  and  C_25
REMARK                            x       y       z     vdW  Elec       q    Type
REMARK                         _______ _______ _______ _____ _____    ______ ____
ROOT
ATOM      6  N   UNL     1      -2.070   1.738  24.982  0.00  0.00    -0.342 N 
ATOM      7  N   UNL     1      -3.384  -0.053  25.063  0.00  0.00    -0.232 NA
ATOM     12  C   UNL     1      -2.146   0.374  24.946  0.00  0.00    +0.113 A 
ATOM     15  C   UNL     1      -3.344   2.225  25.132  0.00  0.00    +0.067 A 
ATOM     16  C   UNL     1      -4.145   1.088  25.180  0.00  0.00    +0.089 A 
ATOM     17  C   UNL     1      -3.847   3.522  25.228  0.00  0.00    +0.040 A 
ATOM     18  C   UNL     1      -5.534   1.235  25.332  0.00  0.00    +0.030 A 
ATOM     21  C   UNL     1      -5.232   3.650  25.378  0.00  0.00    +0.057 A 
ATOM     22  C   UNL     1      -6.063   2.528  25.430  0.00  0.00    +0.014 A 
ATOM     27  H   UNL     1      -1.228   2.294  24.911  0.00  0.00    +0.167 HD
ENDROOT
BRANCH  12   8
ATOM      5  N   UNL     1       0.998  -0.770  23.452  0.00  0.00    -0.297 NA
ATOM      8  C   UNL     1      -0.907  -0.478  24.787  0.00  0.00    +0.070 C 
ATOM      9  C   UNL     1      -1.087  -1.721  23.898  0.00  0.00    +0.028 C 
ATOM     10  C   UNL     1       0.266   0.284  24.156  0.00  0.00    +0.096 C 
ATOM     11  C   UNL     1      -0.035  -1.580  22.807  0.00  0.00    +0.085 C 
BRANCH   5  13
ATOM     13  C   UNL     1       1.960  -0.237  22.499  0.00  0.00    +0.122 C 
BRANCH  13  14
ATOM      1  F   UNL     1       3.673   2.020  22.504  0.00  0.00    -0.205 F 
ATOM     14  C   UNL     1       3.365  -0.272  23.041  0.00  0.00    +0.002 A 
ATOM     19  C   UNL     1       4.155   0.877  23.012  0.00  0.00    +0.128 A 
ATOM     20  C   UNL     1       3.875  -1.456  23.572  0.00  0.00    +0.008 A 
ATOM     23  C   UNL     1       5.455   0.842  23.514  0.00  0.00    +0.038 A 
ATOM     24  C   UNL     1       5.176  -1.492  24.073  0.00  0.00    +0.000 A 
ATOM     26  C   UNL     1       5.966  -0.343  24.045  0.00  0.00    +0.003 A 
ENDBRANCH  13  14
ENDBRANCH   5  13
ENDBRANCH  12   8
BRANCH  21  25
ATOM      2  F   UNL     1      -5.259   5.763  26.468  0.00  0.00    -0.166 F 
ATOM      3  F   UNL     1      -5.715   5.752  24.342  0.00  0.00    -0.166 F 
ATOM      4  F   UNL     1      -7.169   5.000  25.765  0.00  0.00    -0.166 F 
ATOM     25  C   UNL     1      -5.833   5.014  25.485  0.00  0.00    +0.417 C 
ENDBRANCH  21  25
TORSDOF 4
ENDMDL
MODEL 6
REMARK VINA RESULT:       0.5     13.563     16.211
REMARK  Name = 45784264
REMARK  4 active torsions:
REMARK  status: ('A' for Active; 'I' for Inactive)
REMARK    1  A    between atoms: N_5  and  C_13
REMARK    2  A    between atoms: C_8  and  C_12
REMARK    3  A    between atoms: C_13  and  C_14
REMARK    4  A    between atoms: C_21  and  C_25
REMARK                            x       y       z     vdW  Elec       q    Type
REMARK                         _______ _______ _______ _____ _____    ______ ____
ROOT
ATOM      6  N   UNL     1      -4.095 -10.121  14.771  0.00  0.00    -0.342 N 
ATOM      7  N   UNL     1      -2.554 -10.674  16.274  0.00  0.00    -0.232 NA
ATOM     12  C   UNL     1      -2.778 -10.395  15.009  0.00  0.00    +0.113 A 
ATOM     15  C   UNL     1      -4.768 -10.231  15.961  0.00  0.00    +0.067 A 
ATOM     16  C   UNL     1      -3.784 -10.576  16.884  0.00  0.00    +0.089 A 
ATOM     17  C   UNL     1      -6.111 -10.062  16.300  0.00  0.00    +0.040 A 
ATOM     18  C   UNL     1      -4.144 -10.768  18.228  0.00  0.00    +0.030 A 
ATOM     21  C   UNL     1      -6.450 -10.257  17.642  0.00  0.00    +0.057 A 
ATOM     22  C   UNL     1      -5.486 -10.604  18.592  0.00  0.00    +0.014 A 
ATOM     27  H   UNL     1      -4.506  -9.881  13.878  0.00  0.00    +0.167 HD
ENDROOT
BRANCH  12   8
ATOM      5  N   UNL     1      -0.836  -8.973  12.247  0.00  0.00    -0.297 NA
ATOM      8  C   UNL     1      -1.755 -10.362  13.896  0.00  0.00    +0.070 C 
ATOM      9  C   UNL     1      -2.289 -10.780  12.515  0.00  0.00    +0.028 C 
ATOM     10  C   UNL     1      -1.156  -8.967  13.675  0.00  0.00    +0.096 C 
ATOM     11  C   UNL     1      -1.992  -9.597  11.603  0.00  0.00    +0.085 C 
BRANCH   5  13
ATOM     13  C   UNL     1      -0.570  -7.638  11.732  0.00  0.00    +0.122 C 
BRANCH  13  14
ATOM      1  F   UNL     1       1.484  -9.246  10.627  0.00  0.00    -0.205 F 
ATOM     14  C   UNL     1       0.891  -7.283  11.822  0.00  0.00    +0.002 A 
ATOM     19  C   UNL     1       1.851  -8.120  11.255  0.00  0.00    +0.128 A 
ATOM     20  C   UNL     1       1.283  -6.114  12.474  0.00  0.00    +0.008 A 
ATOM     23  C   UNL     1       3.203  -7.790  11.341  0.00  0.00    +0.038 A 
ATOM     24  C   UNL     1       2.635  -5.783  12.560  0.00  0.00    +0.000 A 
ATOM     26  C   UNL     1       3.596  -6.621  11.993  0.00  0.00    +0.003 A 
ENDBRANCH  13  14
ENDBRANCH   5  13
ENDBRANCH  12   8
BRANCH  21  25
ATOM      2  F   UNL     1      -8.118 -10.632  19.296  0.00  0.00    -0.166 F 
ATOM      3  F   UNL     1      -8.268  -8.787  18.153  0.00  0.00    -0.166 F 
ATOM      4  F   UNL     1      -8.767 -10.681  17.222  0.00  0.00    -0.166 F 
ATOM     25  C   UNL     1      -7.873 -10.092  18.068  0.00  0.00    +0.417 C 
ENDBRANCH  21  25
TORSDOF 4
ENDMDL
MODEL 7
REMARK VINA RESULT:       0.9     15.115     19.091
REMARK  Name = 45784264
REMARK  4 active torsions:
REMARK  status: ('A' for Active; 'I' for Inactive)
REMARK    1  A    between atoms: N_5  and  C_13
REMARK    2  A    between atoms: C_8  and  C_12
REMARK    3  A    between atoms: C_13  and  C_14
REMARK    4  A    between atoms: C_21  and  C_25
REMARK                            x       y       z     vdW  Elec       q    Type
REMARK                         _______ _______ _______ _____ _____    ______ ____
ROOT
ATOM      6  N   UNL     1      13.666  -7.158  31.725  0.00  0.00    -0.342 N 
ATOM      7  N   UNL     1      12.317  -8.753  32.482  0.00  0.00    -0.232 NA
ATOM     12  C   UNL     1      13.519  -8.483  32.023  0.00  0.00    +0.113 A 
ATOM     15  C   UNL     1      12.481  -6.529  32.011  0.00  0.00    +0.067 A 
ATOM     16  C   UNL     1      11.655  -7.546  32.482  0.00  0.00    +0.089 A 
ATOM     17  C   UNL     1      12.073  -5.200  31.901  0.00  0.00    +0.040 A 
ATOM     18  C   UNL     1      10.341  -7.236  32.871  0.00  0.00    +0.030 A 
ATOM     21  C   UNL     1      10.762  -4.909  32.293  0.00  0.00    +0.057 A 
ATOM     22  C   UNL     1       9.910  -5.907  32.770  0.00  0.00    +0.014 A 
ATOM     27  H   UNL     1      14.498  -6.715  31.359  0.00  0.00    +0.167 HD
ENDROOT
BRANCH  12   8
ATOM      5  N   UNL     1      16.396 -10.025  30.359  0.00  0.00    -0.297 NA
ATOM      8  C   UNL     1      14.650  -9.464  31.821  0.00  0.00    +0.070 C 
ATOM      9  C   UNL     1      14.274 -10.731  31.032  0.00  0.00    +0.028 C 
ATOM     10  C   UNL     1      15.833  -8.863  31.049  0.00  0.00    +0.096 C 
ATOM     11  C   UNL     1      15.237 -10.760  29.853  0.00  0.00    +0.085 C 
BRANCH   5  13
ATOM     13  C   UNL     1      17.319  -9.648  29.299  0.00  0.00    +0.122 C 
BRANCH  13  14
ATOM      1  F   UNL     1      17.351  -6.841  29.683  0.00  0.00    -0.205 F 
ATOM     14  C   UNL     1      16.694  -8.678  28.331  0.00  0.00    +0.002 A 
ATOM     19  C   UNL     1      16.747  -7.307  28.582  0.00  0.00    +0.128 A 
ATOM     20  C   UNL     1      16.063  -9.153  27.182  0.00  0.00    +0.008 A 
ATOM     23  C   UNL     1      16.167  -6.412  27.684  0.00  0.00    +0.038 A 
ATOM     24  C   UNL     1      15.483  -8.257  26.283  0.00  0.00    +0.000 A 
ATOM     26  C   UNL     1      15.535  -6.886  26.534  0.00  0.00    +0.003 A 
ENDBRANCH  13  14
ENDBRANCH   5  13
ENDBRANCH  12   8
BRANCH  21  25
ATOM      2  F   UNL     1      11.059  -2.622  32.871  0.00  0.00    -0.166 F 
ATOM      3  F   UNL     1      10.196  -3.035  30.917  0.00  0.00    -0.166 F 
ATOM      4  F   UNL     1       9.011  -3.333  32.709  0.00  0.00    -0.166 F 
ATOM     25  C   UNL     1      10.265  -3.503  32.198  0.00  0.00    +0.417 C 
ENDBRANCH  21  25
TORSDOF 4
ENDMDL
MODEL 8
REMARK VINA RESULT:       1.0      1.845      8.720
REMARK  Name = 45784264
REMARK  4 active torsions:
REMARK  status: ('A' for Active; 'I' for Inactive)
REMARK    1  A    between atoms: N_5  and  C_13
REMARK    2  A    between atoms: C_8  and  C_12
REMARK    3  A    between atoms: C_13  and  C_14
REMARK    4  A    between atoms: C_21  and  C_25
REMARK                            x       y       z     vdW  Elec       q    Type
REMARK                         _______ _______ _______ _____ _____    ______ ____
ROOT
ATOM      6  N   UNL     1      -2.348   0.210  24.211  0.00  0.00    -0.342 N 
ATOM      7  N   UNL     1      -0.869   1.830  24.571  0.00  0.00    -0.232 NA
ATOM     12  C   UNL     1      -1.039   0.596  24.150  0.00  0.00    +0.113 A 
ATOM     15  C   UNL     1      -3.073   1.266  24.704  0.00  0.00    +0.067 A 
ATOM     16  C   UNL     1      -2.127   2.264  24.920  0.00  0.00    +0.089 A 
ATOM     17  C   UNL     1      -4.433   1.428  24.969  0.00  0.00    +0.040 A 
ATOM     18  C   UNL     1      -2.546   3.504  25.432  0.00  0.00    +0.030 A 
ATOM     21  C   UNL     1      -4.831   2.668  25.479  0.00  0.00    +0.057 A 
ATOM     22  C   UNL     1      -3.906   3.689  25.707  0.00  0.00    +0.014 A 
ATOM     27  H   UNL     1      -2.721  -0.690  23.942  0.00  0.00    +0.167 HD
ENDROOT
BRANCH  12   8
ATOM      5  N   UNL     1       2.064  -0.401  22.475  0.00  0.00    -0.297 NA
ATOM      8  C   UNL     1       0.034  -0.343  23.648  0.00  0.00    +0.070 C 
ATOM      9  C   UNL     1      -0.205  -0.899  22.233  0.00  0.00    +0.028 C 
ATOM     10  C   UNL     1       1.420   0.314  23.578  0.00  0.00    +0.096 C 
ATOM     11  C   UNL     1       1.035  -0.505  21.441  0.00  0.00    +0.085 C 
BRANCH   5  13
ATOM     13  C   UNL     1       3.261   0.275  21.999  0.00  0.00    +0.122 C 
BRANCH  13  14
ATOM      1  F   UNL     1       3.813  -2.121  23.406  0.00  0.00    -0.205 F 
ATOM     14  C   UNL     1       4.407   0.135  22.967  0.00  0.00    +0.002 A 
ATOM     19  C   UNL     1       4.621  -1.076  23.626  0.00  0.00    +0.128 A 
ATOM     20  C   UNL     1       5.254   1.217  23.203  0.00  0.00    +0.008 A 
ATOM     23  C   UNL     1       5.682  -1.203  24.522  0.00  0.00    +0.038 A 
ATOM     24  C   UNL     1       6.315   1.090  24.100  0.00  0.00    +0.000 A 
ATOM     26  C   UNL     1       6.529  -0.120  24.759  0.00  0.00    +0.003 A 
ENDBRANCH  13  14
ENDBRANCH   5  13
ENDBRANCH  12   8
BRANCH  21  25
ATOM      2  F   UNL     1      -7.105   2.262  24.915  0.00  0.00    -0.166 F 
ATOM      3  F   UNL     1      -6.644   2.477  27.029  0.00  0.00    -0.166 F 
ATOM      4  F   UNL     1      -6.635   4.218  25.737  0.00  0.00    -0.166 F 
ATOM     25  C   UNL     1      -6.275   2.903  25.785  0.00  0.00    +0.417 C 
ENDBRANCH  21  25
TORSDOF 4
ENDMDL
