MODEL 1
REMARK VINA RESULT:      14.2      0.000      0.000
REMARK  Name = 11886265
REMARK  8 active torsions:
REMARK  status: ('A' for Active; 'I' for Inactive)
REMARK    1  A    between atoms: O_3  and  C_21
REMARK    2  A    between atoms: O_3  and  C_24
REMARK    3  A    between atoms: O_5  and  C_34
REMARK    4  A    between atoms: O_5  and  C_36
REMARK    5  A    between atoms: N_6  and  C_17
REMARK    6  A    between atoms: N_7  and  C_18
REMARK    7  A    between atoms: N_11  and  C_23
REMARK    8  A    between atoms: N_12  and  C_33
REMARK                            x       y       z     vdW  Elec       q    Type
REMARK                         _______ _______ _______ _____ _____    ______ ____
ROOT
ATOM      1  O   UNL     1      -4.558  -1.029  23.835  0.00  0.00    -0.370 OA
ATOM      2  O   UNL     1      -2.159  -0.548  25.811  0.00  0.00    -0.370 OA
ATOM     15  C   UNL     1      -2.886   0.296  24.899  0.00  0.00    +0.176 C 
ATOM     16  C   UNL     1      -3.216  -0.542  23.679  0.00  0.00    +0.172 C 
ATOM     17  C   UNL     1      -4.233   0.657  25.495  0.00  0.00    +0.171 C 
ATOM     18  C   UNL     1      -2.233  -1.689  23.736  0.00  0.00    +0.131 C 
ATOM     19  C   UNL     1      -5.130  -0.487  25.034  0.00  0.00    +0.190 C 
ATOM     20  C   UNL     1      -2.011  -1.851  25.230  0.00  0.00    +0.185 C 
ENDROOT
BRANCH  18   7
ATOM      4  O   UNL     1       0.239  -0.915  24.958  0.00  0.00    -0.252 OA
ATOM      7  N   UNL     1      -1.003  -1.358  23.059  0.00  0.00    -0.292 N 
ATOM     11  N   UNL     1       1.192  -0.726  22.821  0.00  0.00    -0.269 N 
ATOM     22  C   UNL     1       0.167  -0.988  23.734  0.00  0.00    +0.304 C 
ATOM     43  H   UNL     1      -0.964  -1.460  22.050  0.00  0.00    +0.151 HD
ATOM     44  H   UNL     1       0.965  -0.832  21.836  0.00  0.00    +0.156 HD
BRANCH  11  23
ATOM     23  C   UNL     1       2.520  -0.326  23.100  0.00  0.00    +0.035 A 
ATOM     25  C   UNL     1       2.940   0.966  22.783  0.00  0.00    +0.027 A 
ATOM     26  C   UNL     1       3.409  -1.223  23.692  0.00  0.00    +0.027 A 
ATOM     31  C   UNL     1       4.250   1.361  23.058  0.00  0.00    +0.048 A 
ATOM     32  C   UNL     1       4.718  -0.828  23.968  0.00  0.00    +0.048 A 
ATOM     34  C   UNL     1       5.139   0.464  23.651  0.00  0.00    +0.129 A 
BRANCH  34   5
ATOM      5  O   UNL     1       6.415   0.851  23.922  0.00  0.00    -0.456 OA
BRANCH   5  36
ATOM     36  C   UNL     1       7.444   0.114  23.359  0.00  0.00    +0.128 A 
ATOM     38  C   UNL     1       8.769   0.508  23.551  0.00  0.00    +0.046 A 
ATOM     39  C   UNL     1       7.157  -1.020  22.600  0.00  0.00    +0.046 A 
ATOM     40  C   UNL     1       9.805  -0.233  22.984  0.00  0.00    +0.004 A 
ATOM     41  C   UNL     1       8.193  -1.760  22.032  0.00  0.00    +0.004 A 
ATOM     42  C   UNL     1       9.518  -1.368  22.224  0.00  0.00    +0.000 A 
ENDBRANCH   5  36
ENDBRANCH  34   5
ENDBRANCH  11  23
ENDBRANCH  18   7
BRANCH  17   6
ATOM      6  N   UNL     1      -4.682   1.995  25.099  0.00  0.00    -0.187 N 
ATOM      8  N   UNL     1      -5.939   2.400  25.326  0.00  0.00    -0.041 NA
ATOM      9  N   UNL     1      -4.779   4.016  24.320  0.00  0.00    -0.071 NA
ATOM     10  N   UNL     1      -5.992   3.638  24.848  0.00  0.00    -0.020 NA
ATOM     21  C   UNL     1      -3.982   2.986  24.486  0.00  0.00    +0.342 A 
BRANCH  21   3
ATOM      3  O   UNL     1      -2.716   2.901  24.127  0.00  0.00    -0.423 OA
BRANCH   3  24
ATOM     24  C   UNL     1      -1.725   2.846  25.120  0.00  0.00    +0.132 A 
ATOM     27  C   UNL     1      -2.019   3.250  26.422  0.00  0.00    +0.048 A 
ATOM     28  C   UNL     1      -0.446   2.386  24.806  0.00  0.00    +0.048 A 
ATOM     29  C   UNL     1      -1.035   3.195  27.409  0.00  0.00    +0.031 A 
ATOM     30  C   UNL     1       0.538   2.330  25.793  0.00  0.00    +0.031 A 
ATOM     33  C   UNL     1       0.244   2.735  27.094  0.00  0.00    +0.067 A 
BRANCH  33  12
ATOM     12  N   UNL     1       1.219   2.680  28.073  0.00  0.00    -0.220 N 
ATOM     13  N   UNL     1       2.476   3.089  27.842  0.00  0.00    -0.154 NA
ATOM     14  N   UNL     1       2.218   2.336  29.986  0.00  0.00    -0.222 NA
ATOM     35  C   UNL     1       1.074   2.234  29.350  0.00  0.00    +0.225 A 
ATOM     37  C   UNL     1       3.040   2.859  29.030  0.00  0.00    +0.245 A 
ENDBRANCH  33  12
ENDBRANCH   3  24
ENDBRANCH  21   3
ENDBRANCH  17   6
TORSDOF 8
ENDMDL
MODEL 2
REMARK VINA RESULT:      14.4      1.353      2.151
REMARK  Name = 11886265
REMARK  8 active torsions:
REMARK  status: ('A' for Active; 'I' for Inactive)
REMARK    1  A    between atoms: O_3  and  C_21
REMARK    2  A    between atoms: O_3  and  C_24
REMARK    3  A    between atoms: O_5  and  C_34
REMARK    4  A    between atoms: O_5  and  C_36
REMARK    5  A    between atoms: N_6  and  C_17
REMARK    6  A    between atoms: N_7  and  C_18
REMARK    7  A    between atoms: N_11  and  C_23
REMARK    8  A    between atoms: N_12  and  C_33
REMARK                            x       y       z     vdW  Elec       q    Type
REMARK                         _______ _______ _______ _____ _____    ______ ____
ROOT
ATOM      1  O   UNL     1      -6.233   0.429  24.563  0.00  0.00    -0.370 OA
ATOM      2  O   UNL     1      -3.589   0.155  26.243  0.00  0.00    -0.370 OA
ATOM     15  C   UNL     1      -4.077   1.127  25.300  0.00  0.00    +0.176 C 
ATOM     16  C   UNL     1      -4.838   0.371  24.229  0.00  0.00    +0.172 C 
ATOM     17  C   UNL     1      -5.118   2.009  25.963  0.00  0.00    +0.171 C 
ATOM     18  C   UNL     1      -4.331  -1.049  24.342  0.00  0.00    +0.131 C 
ATOM     19  C   UNL     1      -6.415   1.242  25.730  0.00  0.00    +0.190 C 
ATOM     20  C   UNL     1      -3.992  -1.155  25.819  0.00  0.00    +0.185 C 
ENDROOT
BRANCH  18   7
ATOM      4  O   UNL     1      -1.823   0.313  24.569  0.00  0.00    -0.252 OA
ATOM      7  N   UNL     1      -3.162  -1.254  23.522  0.00  0.00    -0.292 N 
ATOM     11  N   UNL     1      -1.015  -0.952  22.763  0.00  0.00    -0.269 N 
ATOM     22  C   UNL     1      -1.968  -0.542  23.700  0.00  0.00    +0.304 C 
ATOM     43  H   UNL     1      -3.183  -1.991  22.825  0.00  0.00    +0.151 HD
ATOM     44  H   UNL     1      -1.299  -1.675  22.108  0.00  0.00    +0.156 HD
BRANCH  11  23
ATOM     23  C   UNL     1       0.310  -0.479  22.611  0.00  0.00    +0.035 A 
ATOM     25  C   UNL     1       0.882   0.321  23.601  0.00  0.00    +0.027 A 
ATOM     26  C   UNL     1       1.044  -0.814  21.474  0.00  0.00    +0.027 A 
ATOM     31  C   UNL     1       2.188   0.787  23.452  0.00  0.00    +0.048 A 
ATOM     32  C   UNL     1       2.350  -0.349  21.325  0.00  0.00    +0.048 A 
ATOM     34  C   UNL     1       2.923   0.452  22.314  0.00  0.00    +0.129 A 
BRANCH  34   5
ATOM      5  O   UNL     1       4.199   0.904  22.171  0.00  0.00    -0.456 OA
BRANCH   5  36
ATOM     36  C   UNL     1       5.188   0.285  22.915  0.00  0.00    +0.128 A 
ATOM     38  C   UNL     1       6.433   0.027  22.341  0.00  0.00    +0.046 A 
ATOM     39  C   UNL     1       4.940  -0.082  24.237  0.00  0.00    +0.046 A 
ATOM     40  C   UNL     1       7.430  -0.598  23.091  0.00  0.00    +0.004 A 
ATOM     41  C   UNL     1       5.937  -0.707  24.987  0.00  0.00    +0.004 A 
ATOM     42  C   UNL     1       7.182  -0.965  24.414  0.00  0.00    +0.000 A 
ENDBRANCH   5  36
ENDBRANCH  34   5
ENDBRANCH  11  23
ENDBRANCH  18   7
BRANCH  17   6
ATOM      6  N   UNL     1      -5.105   3.380  25.444  0.00  0.00    -0.187 N 
ATOM      8  N   UNL     1      -6.135   4.211  25.657  0.00  0.00    -0.041 NA
ATOM      9  N   UNL     1      -4.552   5.235  24.467  0.00  0.00    -0.071 NA
ATOM     10  N   UNL     1      -5.790   5.345  25.057  0.00  0.00    -0.020 NA
ATOM     21  C   UNL     1      -4.146   4.012  24.719  0.00  0.00    +0.342 A 
BRANCH  21   3
ATOM      3  O   UNL     1      -3.005   3.465  24.342  0.00  0.00    -0.423 OA
BRANCH   3  24
ATOM     24  C   UNL     1      -1.990   3.277  25.293  0.00  0.00    +0.132 A 
ATOM     27  C   UNL     1      -0.707   2.914  24.881  0.00  0.00    +0.048 A 
ATOM     28  C   UNL     1      -2.262   3.453  26.649  0.00  0.00    +0.048 A 
ATOM     29  C   UNL     1       0.302   2.727  25.826  0.00  0.00    +0.031 A 
ATOM     30  C   UNL     1      -1.253   3.266  27.594  0.00  0.00    +0.031 A 
ATOM     33  C   UNL     1       0.029   2.903  27.182  0.00  0.00    +0.067 A 
BRANCH  33  12
ATOM     12  N   UNL     1       1.029   2.718  28.119  0.00  0.00    -0.220 N 
ATOM     13  N   UNL     1       2.292   3.112  27.892  0.00  0.00    -0.154 NA
ATOM     14  N   UNL     1       2.070   2.145  29.953  0.00  0.00    -0.222 NA
ATOM     35  C   UNL     1       0.906   2.144  29.346  0.00  0.00    +0.225 A 
ATOM     37  C   UNL     1       2.881   2.742  29.031  0.00  0.00    +0.245 A 
ENDBRANCH  33  12
ENDBRANCH   3  24
ENDBRANCH  21   3
ENDBRANCH  17   6
TORSDOF 8
ENDMDL
MODEL 3
REMARK VINA RESULT:      17.0      2.437      4.240
REMARK  Name = 11886265
REMARK  8 active torsions:
REMARK  status: ('A' for Active; 'I' for Inactive)
REMARK    1  A    between atoms: O_3  and  C_21
REMARK    2  A    between atoms: O_3  and  C_24
REMARK    3  A    between atoms: O_5  and  C_34
REMARK    4  A    between atoms: O_5  and  C_36
REMARK    5  A    between atoms: N_6  and  C_17
REMARK    6  A    between atoms: N_7  and  C_18
REMARK    7  A    between atoms: N_11  and  C_23
REMARK    8  A    between atoms: N_12  and  C_33
REMARK                            x       y       z     vdW  Elec       q    Type
REMARK                         _______ _______ _______ _____ _____    ______ ____
ROOT
ATOM      1  O   UNL     1      -2.921   4.233  26.941  0.00  0.00    -0.370 OA
ATOM      2  O   UNL     1      -3.264   5.160  23.956  0.00  0.00    -0.370 OA
ATOM     15  C   UNL     1      -3.696   4.005  24.699  0.00  0.00    +0.176 C 
ATOM     16  C   UNL     1      -2.585   3.655  25.670  0.00  0.00    +0.172 C 
ATOM     17  C   UNL     1      -4.876   4.370  25.577  0.00  0.00    +0.171 C 
ATOM     18  C   UNL     1      -1.360   4.330  25.096  0.00  0.00    +0.131 C 
ATOM     19  C   UNL     1      -4.212   4.855  26.861  0.00  0.00    +0.190 C 
ATOM     20  C   UNL     1      -1.954   5.542  24.400  0.00  0.00    +0.185 C 
ENDROOT
BRANCH  18   7
ATOM      4  O   UNL     1       0.956   2.726  25.612  0.00  0.00    -0.252 OA
ATOM      7  N   UNL     1      -0.681   3.470  24.158  0.00  0.00    -0.292 N 
ATOM     11  N   UNL     1       0.888   1.981  23.386  0.00  0.00    -0.269 N 
ATOM     22  C   UNL     1       0.451   2.715  24.492  0.00  0.00    +0.304 C 
ATOM     43  H   UNL     1      -1.079   3.356  23.231  0.00  0.00    +0.151 HD
ATOM     44  H   UNL     1       0.355   2.087  22.528  0.00  0.00    +0.156 HD
BRANCH  11  23
ATOM     23  C   UNL     1       1.993   1.101  23.312  0.00  0.00    +0.035 A 
ATOM     25  C   UNL     1       3.275   1.607  23.094  0.00  0.00    +0.027 A 
ATOM     26  C   UNL     1       1.802  -0.273  23.460  0.00  0.00    +0.027 A 
ATOM     31  C   UNL     1       4.365   0.740  23.022  0.00  0.00    +0.048 A 
ATOM     32  C   UNL     1       2.892  -1.140  23.388  0.00  0.00    +0.048 A 
ATOM     34  C   UNL     1       4.173  -0.634  23.169  0.00  0.00    +0.129 A 
BRANCH  34   5
ATOM      5  O   UNL     1       5.237  -1.480  23.101  0.00  0.00    -0.456 OA
BRANCH   5  36
ATOM     36  C   UNL     1       6.505  -0.923  23.131  0.00  0.00    +0.128 A 
ATOM     38  C   UNL     1       7.532  -1.487  22.374  0.00  0.00    +0.046 A 
ATOM     39  C   UNL     1       6.755   0.201  23.918  0.00  0.00    +0.046 A 
ATOM     40  C   UNL     1       8.809  -0.927  22.404  0.00  0.00    +0.004 A 
ATOM     41  C   UNL     1       8.032   0.761  23.949  0.00  0.00    +0.004 A 
ATOM     42  C   UNL     1       9.059   0.198  23.192  0.00  0.00    +0.000 A 
ENDBRANCH   5  36
ENDBRANCH  34   5
ENDBRANCH  11  23
ENDBRANCH  18   7
BRANCH  17   6
ATOM      6  N   UNL     1      -5.816   3.258  25.747  0.00  0.00    -0.187 N 
ATOM      8  N   UNL     1      -6.774   3.296  26.684  0.00  0.00    -0.041 NA
ATOM      9  N   UNL     1      -6.886   1.383  25.545  0.00  0.00    -0.071 NA
ATOM     10  N   UNL     1      -7.425   2.146  26.555  0.00  0.00    -0.020 NA
ATOM     21  C   UNL     1      -5.892   2.089  25.058  0.00  0.00    +0.342 A 
BRANCH  21   3
ATOM      3  O   UNL     1      -5.089   1.745  24.069  0.00  0.00    -0.423 OA
BRANCH   3  24
ATOM     24  C   UNL     1      -4.073   0.805  24.309  0.00  0.00    +0.132 A 
ATOM     27  C   UNL     1      -4.234  -0.155  25.307  0.00  0.00    +0.048 A 
ATOM     28  C   UNL     1      -2.904   0.832  23.549  0.00  0.00    +0.048 A 
ATOM     29  C   UNL     1      -3.224  -1.089  25.545  0.00  0.00    +0.031 A 
ATOM     30  C   UNL     1      -1.895  -0.101  23.787  0.00  0.00    +0.031 A 
ATOM     33  C   UNL     1      -2.055  -1.062  24.785  0.00  0.00    +0.067 A 
BRANCH  33  12
ATOM     12  N   UNL     1      -1.056  -1.987  25.021  0.00  0.00    -0.220 N 
ATOM     13  N   UNL     1      -1.121  -3.238  24.539  0.00  0.00    -0.154 NA
ATOM     14  N   UNL     1       0.796  -2.899  25.739  0.00  0.00    -0.222 NA
ATOM     35  C   UNL     1       0.087  -1.794  25.734  0.00  0.00    +0.225 A 
ATOM     37  C   UNL     1       0.022  -3.748  25.002  0.00  0.00    +0.245 A 
ENDBRANCH  33  12
ENDBRANCH   3  24
ENDBRANCH  21   3
ENDBRANCH  17   6
TORSDOF 8
ENDMDL
MODEL 4
REMARK VINA RESULT:      17.2      5.079      8.593
REMARK  Name = 11886265
REMARK  8 active torsions:
REMARK  status: ('A' for Active; 'I' for Inactive)
REMARK    1  A    between atoms: O_3  and  C_21
REMARK    2  A    between atoms: O_3  and  C_24
REMARK    3  A    between atoms: O_5  and  C_34
REMARK    4  A    between atoms: O_5  and  C_36
REMARK    5  A    between atoms: N_6  and  C_17
REMARK    6  A    between atoms: N_7  and  C_18
REMARK    7  A    between atoms: N_11  and  C_23
REMARK    8  A    between atoms: N_12  and  C_33
REMARK                            x       y       z     vdW  Elec       q    Type
REMARK                         _______ _______ _______ _____ _____    ______ ____
ROOT
ATOM      1  O   UNL     1       6.061  -0.803  23.071  0.00  0.00    -0.370 OA
ATOM      2  O   UNL     1       5.054   1.246  25.234  0.00  0.00    -0.370 OA
ATOM     15  C   UNL     1       4.659   0.945  23.882  0.00  0.00    +0.176 C 
ATOM     16  C   UNL     1       5.921   0.626  23.106  0.00  0.00    +0.172 C 
ATOM     17  C   UNL     1       3.854  -0.340  23.856  0.00  0.00    +0.171 C 
ATOM     18  C   UNL     1       7.032   1.240  23.929  0.00  0.00    +0.131 C 
ATOM     19  C   UNL     1       4.926  -1.413  23.702  0.00  0.00    +0.190 C 
ATOM     20  C   UNL     1       6.481   1.141  25.341  0.00  0.00    +0.185 C 
ENDROOT
BRANCH  18   7
ATOM      4  O   UNL     1       9.539   2.419  23.204  0.00  0.00    -0.252 OA
ATOM      7  N   UNL     1       7.262   2.613  23.553  0.00  0.00    -0.292 N 
ATOM     11  N   UNL     1       8.441   4.471  22.893  0.00  0.00    -0.269 N 
ATOM     22  C   UNL     1       8.525   3.113  23.211  0.00  0.00    +0.304 C 
ATOM     43  H   UNL     1       6.462   3.233  23.470  0.00  0.00    +0.151 HD
ATOM     44  H   UNL     1       7.520   4.897  22.951  0.00  0.00    +0.156 HD
BRANCH  11  23
ATOM     23  C   UNL     1       9.489   5.336  22.499  0.00  0.00    +0.035 A 
ATOM     25  C   UNL     1       9.377   6.710  22.714  0.00  0.00    +0.027 A 
ATOM     26  C   UNL     1      10.634   4.815  21.898  0.00  0.00    +0.027 A 
ATOM     31  C   UNL     1      10.410   7.563  22.326  0.00  0.00    +0.048 A 
ATOM     32  C   UNL     1      11.668   5.668  21.510  0.00  0.00    +0.048 A 
ATOM     34  C   UNL     1      11.556   7.041  21.724  0.00  0.00    +0.129 A 
BRANCH  34   5
ATOM      5  O   UNL     1      12.565   7.874  21.348  0.00  0.00    -0.456 OA
BRANCH   5  36
ATOM     36  C   UNL     1      12.995   7.811  20.034  0.00  0.00    +0.128 A 
ATOM     38  C   UNL     1      12.151   8.229  19.004  0.00  0.00    +0.046 A 
ATOM     39  C   UNL     1      14.270   7.330  19.738  0.00  0.00    +0.046 A 
ATOM     40  C   UNL     1      12.584   8.165  17.679  0.00  0.00    +0.004 A 
ATOM     41  C   UNL     1      14.703   7.267  18.413  0.00  0.00    +0.004 A 
ATOM     42  C   UNL     1      13.860   7.684  17.384  0.00  0.00    +0.000 A 
ENDBRANCH   5  36
ENDBRANCH  34   5
ENDBRANCH  11  23
ENDBRANCH  18   7
BRANCH  17   6
ATOM      6  N   UNL     1       2.825  -0.336  22.812  0.00  0.00    -0.187 N 
ATOM      8  N   UNL     1       3.142  -0.134  21.526  0.00  0.00    -0.041 NA
ATOM      9  N   UNL     1       0.943  -0.434  21.739  0.00  0.00    -0.071 NA
ATOM     10  N   UNL     1       1.987  -0.196  20.874  0.00  0.00    -0.020 NA
ATOM     21  C   UNL     1       1.484  -0.518  22.932  0.00  0.00    +0.342 A 
BRANCH  21   3
ATOM      3  O   UNL     1       0.853  -0.740  24.070  0.00  0.00    -0.423 OA
BRANCH   3  24
ATOM     24  C   UNL     1      -0.362  -0.081  24.319  0.00  0.00    +0.132 A 
ATOM     27  C   UNL     1      -0.401   1.312  24.376  0.00  0.00    +0.048 A 
ATOM     28  C   UNL     1      -1.530  -0.820  24.507  0.00  0.00    +0.048 A 
ATOM     29  C   UNL     1      -1.608   1.966  24.623  0.00  0.00    +0.031 A 
ATOM     30  C   UNL     1      -2.737  -0.166  24.754  0.00  0.00    +0.031 A 
ATOM     33  C   UNL     1      -2.776   1.227  24.811  0.00  0.00    +0.067 A 
BRANCH  33  12
ATOM     12  N   UNL     1      -3.973   1.876  25.055  0.00  0.00    -0.220 N 
ATOM     13  N   UNL     1      -5.147   1.227  25.030  0.00  0.00    -0.154 NA
ATOM     14  N   UNL     1      -5.423   3.444  25.517  0.00  0.00    -0.222 NA
ATOM     35  C   UNL     1      -4.145   3.194  25.345  0.00  0.00    +0.225 A 
ATOM     37  C   UNL     1      -5.992   2.220  25.315  0.00  0.00    +0.245 A 
ENDBRANCH  33  12
ENDBRANCH   3  24
ENDBRANCH  21   3
ENDBRANCH  17   6
TORSDOF 8
ENDMDL
