MODEL 1
REMARK VINA RESULT:       6.7      0.000      0.000
REMARK  Name = 25314512
REMARK  6 active torsions:
REMARK  status: ('A' for Active; 'I' for Inactive)
REMARK    1  A    between atoms: O_4  and  C_10
REMARK    2  A    between atoms: N_6  and  C_9
REMARK    3  A    between atoms: N_7  and  C_11
REMARK    4  A    between atoms: N_8  and  C_27
REMARK    5  A    between atoms: C_16  and  C_20
REMARK    6  A    between atoms: C_20  and  C_21
REMARK                            x       y       z     vdW  Elec       q    Type
REMARK                         _______ _______ _______ _____ _____    ______ ____
ROOT
ATOM      2  O   UNL     1      -4.195   3.493  26.742  0.00  0.00    -0.342 OA
ATOM      3  O   UNL     1      -5.849   4.799  25.773  0.00  0.00    -0.347 OA
ATOM      9  C   UNL     1      -4.832   3.043  24.460  0.00  0.00    +0.143 C 
ATOM     10  C   UNL     1      -3.753   4.023  23.945  0.00  0.00    +0.159 C 
ATOM     11  C   UNL     1      -2.860   4.598  25.066  0.00  0.00    +0.136 C 
ATOM     12  C   UNL     1      -5.323   3.465  25.856  0.00  0.00    +0.270 C 
ATOM     13  C   UNL     1      -3.598   4.751  26.412  0.00  0.00    +0.170 C 
ATOM     17  C   UNL     1      -4.830   5.633  26.348  0.00  0.00    +0.196 C 
ENDROOT
BRANCH  11   7
ATOM      5  O   UNL     1      -1.515   3.082  23.043  0.00  0.00    -0.252 OA
ATOM      7  N   UNL     1      -1.685   3.772  25.243  0.00  0.00    -0.291 N 
ATOM      8  N   UNL     1       0.021   2.356  24.663  0.00  0.00    -0.269 N 
ATOM     22  C   UNL     1      -1.091   3.062  24.196  0.00  0.00    +0.304 C 
ATOM     34  H   UNL     1      -1.326   3.642  26.183  0.00  0.00    +0.151 HD
ATOM     36  H   UNL     1       0.238   2.447  25.652  0.00  0.00    +0.156 HD
BRANCH   8  27
ATOM      1  F   UNL     1       3.431  -0.916  21.766  0.00  0.00    -0.205 F 
ATOM     27  C   UNL     1       0.891   1.521  23.924  0.00  0.00    +0.035 A 
ATOM     29  C   UNL     1       2.220   1.898  23.727  0.00  0.00    +0.026 A 
ATOM     30  C   UNL     1       0.421   0.320  23.392  0.00  0.00    +0.026 A 
ATOM     31  C   UNL     1       3.077   1.075  22.998  0.00  0.00    +0.040 A 
ATOM     32  C   UNL     1       1.279  -0.503  22.662  0.00  0.00    +0.040 A 
ATOM     33  C   UNL     1       2.607  -0.126  22.465  0.00  0.00    +0.124 A 
ENDBRANCH   8  27
ENDBRANCH  11   7
BRANCH   9   6
ATOM      6  N   UNL     1      -4.292   1.682  24.515  0.00  0.00    -0.293 NA
ATOM     14  C   UNL     1      -3.974   1.200  23.164  0.00  0.00    +0.085 C 
ATOM     15  C   UNL     1      -5.235   0.782  25.192  0.00  0.00    +0.085 C 
ATOM     16  C   UNL     1      -4.278  -1.191  23.931  0.00  0.00    -0.004 C 
ATOM     18  C   UNL     1      -3.359  -0.200  23.208  0.00  0.00    +0.019 C 
ATOM     19  C   UNL     1      -4.662  -0.632  25.305  0.00  0.00    +0.019 C 
BRANCH  16  20
ATOM     20  C   UNL     1      -3.616  -2.560  24.060  0.00  0.00    +0.038 C 
BRANCH  20  21
ATOM     21  C   UNL     1      -2.249  -2.458  24.680  0.00  0.00    -0.047 A 
ATOM     23  C   UNL     1      -1.984  -1.467  25.625  0.00  0.00    +0.003 A 
ATOM     24  C   UNL     1      -1.247  -3.354  24.309  0.00  0.00    +0.003 A 
ATOM     25  C   UNL     1      -0.716  -1.372  26.199  0.00  0.00    +0.000 A 
ATOM     26  C   UNL     1       0.020  -3.259  24.883  0.00  0.00    +0.000 A 
ATOM     28  C   UNL     1       0.286  -2.268  25.828  0.00  0.00    +0.000 A 
ENDBRANCH  20  21
ENDBRANCH  16  20
ENDBRANCH   9   6
BRANCH  10   4
ATOM      4  O   UNL     1      -4.424   5.105  23.289  0.00  0.00    -0.388 OA
ATOM     35  H   UNL     1      -3.745   5.737  22.994  0.00  0.00    +0.210 HD
ENDBRANCH  10   4
TORSDOF 6
ENDMDL
MODEL 2
REMARK VINA RESULT:       6.8      1.936      4.839
REMARK  Name = 25314512
REMARK  6 active torsions:
REMARK  status: ('A' for Active; 'I' for Inactive)
REMARK    1  A    between atoms: O_4  and  C_10
REMARK    2  A    between atoms: N_6  and  C_9
REMARK    3  A    between atoms: N_7  and  C_11
REMARK    4  A    between atoms: N_8  and  C_27
REMARK    5  A    between atoms: C_16  and  C_20
REMARK    6  A    between atoms: C_20  and  C_21
REMARK                            x       y       z     vdW  Elec       q    Type
REMARK                         _______ _______ _______ _____ _____    ______ ____
ROOT
ATOM      2  O   UNL     1      -4.546   3.180  23.806  0.00  0.00    -0.342 OA
ATOM      3  O   UNL     1      -4.260   5.431  24.285  0.00  0.00    -0.347 OA
ATOM      9  C   UNL     1      -2.530   3.872  24.935  0.00  0.00    +0.143 C 
ATOM     10  C   UNL     1      -3.205   3.662  26.310  0.00  0.00    +0.159 C 
ATOM     11  C   UNL     1      -4.623   3.059  26.213  0.00  0.00    +0.136 C 
ATOM     12  C   UNL     1      -3.578   4.237  23.868  0.00  0.00    +0.270 C 
ATOM     13  C   UNL     1      -5.376   3.479  24.933  0.00  0.00    +0.170 C 
ATOM     17  C   UNL     1      -5.534   4.978  24.770  0.00  0.00    +0.196 C 
ENDROOT
BRANCH  11   7
ATOM      5  O   UNL     1      -3.532   1.286  24.246  0.00  0.00    -0.252 OA
ATOM      7  N   UNL     1      -4.558   1.615  26.292  0.00  0.00    -0.291 N 
ATOM      8  N   UNL     1      -4.082  -0.527  25.632  0.00  0.00    -0.269 N 
ATOM     22  C   UNL     1      -4.006   0.824  25.281  0.00  0.00    +0.304 C 
ATOM     34  H   UNL     1      -5.002   1.156  27.079  0.00  0.00    +0.151 HD
ATOM     36  H   UNL     1      -4.507  -0.743  26.530  0.00  0.00    +0.156 HD
BRANCH   8  27
ATOM      1  F   UNL     1      -2.334  -4.901  22.709  0.00  0.00    -0.205 F 
ATOM     27  C   UNL     1      -3.636  -1.643  24.886  0.00  0.00    +0.035 A 
ATOM     29  C   UNL     1      -2.292  -2.016  24.925  0.00  0.00    +0.026 A 
ATOM     30  C   UNL     1      -4.540  -2.371  24.111  0.00  0.00    +0.026 A 
ATOM     31  C   UNL     1      -1.853  -3.117  24.189  0.00  0.00    +0.040 A 
ATOM     32  C   UNL     1      -4.099  -3.471  23.375  0.00  0.00    +0.040 A 
ATOM     33  C   UNL     1      -2.756  -3.844  23.414  0.00  0.00    +0.124 A 
ENDBRANCH   8  27
ENDBRANCH  11   7
BRANCH   9   6
ATOM      6  N   UNL     1      -1.817   2.657  24.533  0.00  0.00    -0.293 NA
ATOM     14  C   UNL     1      -0.604   2.482  25.343  0.00  0.00    +0.085 C 
ATOM     15  C   UNL     1      -1.498   2.698  23.100  0.00  0.00    +0.085 C 
ATOM     16  C   UNL     1       0.464   1.148  23.478  0.00  0.00    -0.004 C 
ATOM     18  C   UNL     1       0.125   1.188  24.972  0.00  0.00    +0.019 C 
ATOM     19  C   UNL     1      -0.800   1.412  22.653  0.00  0.00    +0.019 C 
BRANCH  16  20
ATOM     20  C   UNL     1       1.100  -0.186  23.096  0.00  0.00    +0.038 C 
BRANCH  20  21
ATOM     21  C   UNL     1       2.599  -0.138  23.209  0.00  0.00    -0.047 A 
ATOM     23  C   UNL     1       3.297  -1.241  23.702  0.00  0.00    +0.003 A 
ATOM     24  C   UNL     1       3.291   1.010  22.823  0.00  0.00    +0.003 A 
ATOM     25  C   UNL     1       4.688  -1.197  23.808  0.00  0.00    +0.000 A 
ATOM     26  C   UNL     1       4.681   1.054  22.929  0.00  0.00    +0.000 A 
ATOM     28  C   UNL     1       5.379  -0.049  23.421  0.00  0.00    +0.000 A 
ENDBRANCH  20  21
ENDBRANCH  16  20
ENDBRANCH   9   6
BRANCH  10   4
ATOM      4  O   UNL     1      -3.291   4.940  26.953  0.00  0.00    -0.388 OA
ATOM     35  H   UNL     1      -4.193   5.278  26.817  0.00  0.00    +0.210 HD
ENDBRANCH  10   4
TORSDOF 6
ENDMDL
MODEL 3
REMARK VINA RESULT:       8.1      3.044      4.610
REMARK  Name = 25314512
REMARK  6 active torsions:
REMARK  status: ('A' for Active; 'I' for Inactive)
REMARK    1  A    between atoms: O_4  and  C_10
REMARK    2  A    between atoms: N_6  and  C_9
REMARK    3  A    between atoms: N_7  and  C_11
REMARK    4  A    between atoms: N_8  and  C_27
REMARK    5  A    between atoms: C_16  and  C_20
REMARK    6  A    between atoms: C_20  and  C_21
REMARK                            x       y       z     vdW  Elec       q    Type
REMARK                         _______ _______ _______ _____ _____    ______ ____
ROOT
ATOM      2  O   UNL     1      -3.968   1.737  25.655  0.00  0.00    -0.342 OA
ATOM      3  O   UNL     1      -5.834   2.393  24.443  0.00  0.00    -0.347 OA
ATOM      9  C   UNL     1      -3.851   1.697  23.246  0.00  0.00    +0.143 C 
ATOM     10  C   UNL     1      -3.325   3.151  23.229  0.00  0.00    +0.159 C 
ATOM     11  C   UNL     1      -3.067   3.729  24.638  0.00  0.00    +0.136 C 
ATOM     12  C   UNL     1      -4.742   1.460  24.479  0.00  0.00    +0.270 C 
ATOM     13  C   UNL     1      -4.024   3.166  25.709  0.00  0.00    +0.170 C 
ATOM     17  C   UNL     1      -5.493   3.396  25.413  0.00  0.00    +0.196 C 
ENDROOT
BRANCH  11   7
ATOM      5  O   UNL     1      -2.107   3.259  27.295  0.00  0.00    -0.252 OA
ATOM      7  N   UNL     1      -1.695   3.489  25.032  0.00  0.00    -0.291 N 
ATOM      8  N   UNL     1       0.068   3.068  26.433  0.00  0.00    -0.269 N 
ATOM     22  C   UNL     1      -1.313   3.269  26.358  0.00  0.00    +0.304 C 
ATOM     34  H   UNL     1      -0.972   3.562  24.324  0.00  0.00    +0.151 HD
ATOM     36  H   UNL     1       0.585   3.108  25.559  0.00  0.00    +0.156 HD
BRANCH   8  27
ATOM      1  F   UNL     1       3.113   2.075  30.958  0.00  0.00    -0.205 F 
ATOM     27  C   UNL     1       0.846   2.815  27.587  0.00  0.00    +0.035 A 
ATOM     29  C   UNL     1       0.245   2.286  28.731  0.00  0.00    +0.026 A 
ATOM     30  C   UNL     1       2.212   3.094  27.584  0.00  0.00    +0.026 A 
ATOM     31  C   UNL     1       1.011   2.037  29.869  0.00  0.00    +0.040 A 
ATOM     32  C   UNL     1       2.978   2.845  28.723  0.00  0.00    +0.040 A 
ATOM     33  C   UNL     1       2.378   2.316  29.866  0.00  0.00    +0.124 A 
ENDBRANCH   8  27
ENDBRANCH  11   7
BRANCH   9   6
ATOM      6  N   UNL     1      -2.729   0.756  23.257  0.00  0.00    -0.293 NA
ATOM     14  C   UNL     1      -2.483   0.265  24.620  0.00  0.00    +0.085 C 
ATOM     15  C   UNL     1      -1.526   1.384  22.694  0.00  0.00    +0.085 C 
ATOM     16  C   UNL     1      -0.063  -0.183  24.037  0.00  0.00    -0.004 C 
ATOM     18  C   UNL     1      -1.348  -0.761  24.640  0.00  0.00    +0.019 C 
ATOM     19  C   UNL     1      -0.359   0.396  22.649  0.00  0.00    +0.019 C 
BRANCH  16  20
ATOM     20  C   UNL     1       1.035  -1.241  23.968  0.00  0.00    +0.038 C 
BRANCH  20  21
ATOM     21  C   UNL     1       2.367  -0.635  23.620  0.00  0.00    -0.047 A 
ATOM     23  C   UNL     1       3.542  -1.345  23.867  0.00  0.00    +0.003 A 
ATOM     24  C   UNL     1       2.426   0.637  23.051  0.00  0.00    +0.003 A 
ATOM     25  C   UNL     1       4.778  -0.782  23.544  0.00  0.00    +0.000 A 
ATOM     26  C   UNL     1       3.662   1.199  22.729  0.00  0.00    +0.000 A 
ATOM     28  C   UNL     1       4.837   0.490  22.975  0.00  0.00    +0.000 A 
ENDBRANCH  20  21
ENDBRANCH  16  20
ENDBRANCH   9   6
BRANCH  10   4
ATOM      4  O   UNL     1      -4.307   3.962  22.571  0.00  0.00    -0.388 OA
ATOM     35  H   UNL     1      -5.148   3.849  23.047  0.00  0.00    +0.210 HD
ENDBRANCH  10   4
TORSDOF 6
ENDMDL
MODEL 4
REMARK VINA RESULT:       8.3      1.431      2.041
REMARK  Name = 25314512
REMARK  6 active torsions:
REMARK  status: ('A' for Active; 'I' for Inactive)
REMARK    1  A    between atoms: O_4  and  C_10
REMARK    2  A    between atoms: N_6  and  C_9
REMARK    3  A    between atoms: N_7  and  C_11
REMARK    4  A    between atoms: N_8  and  C_27
REMARK    5  A    between atoms: C_16  and  C_20
REMARK    6  A    between atoms: C_20  and  C_21
REMARK                            x       y       z     vdW  Elec       q    Type
REMARK                         _______ _______ _______ _____ _____    ______ ____
ROOT
ATOM      2  O   UNL     1      -1.739   3.624  26.009  0.00  0.00    -0.342 OA
ATOM      3  O   UNL     1      -3.178   5.434  26.185  0.00  0.00    -0.347 OA
ATOM      9  C   UNL     1      -3.912   3.474  24.972  0.00  0.00    +0.143 C 
ATOM     10  C   UNL     1      -3.344   4.050  23.655  0.00  0.00    +0.159 C 
ATOM     11  C   UNL     1      -1.815   4.263  23.685  0.00  0.00    +0.136 C 
ATOM     12  C   UNL     1      -3.113   3.998  26.180  0.00  0.00    +0.270 C 
ATOM     13  C   UNL     1      -1.279   4.618  25.088  0.00  0.00    +0.170 C 
ATOM     17  C   UNL     1      -1.898   5.862  25.693  0.00  0.00    +0.196 C 
ENDROOT
BRANCH  11   7
ATOM      5  O   UNL     1       0.766   3.308  24.481  0.00  0.00    -0.252 OA
ATOM      7  N   UNL     1      -1.137   3.087  23.185  0.00  0.00    -0.291 N 
ATOM      8  N   UNL     1       0.527   1.525  22.972  0.00  0.00    -0.269 N 
ATOM     22  C   UNL     1       0.128   2.692  23.630  0.00  0.00    +0.304 C 
ATOM     34  H   UNL     1      -1.565   2.572  22.423  0.00  0.00    +0.151 HD
ATOM     36  H   UNL     1      -0.122   1.139  22.292  0.00  0.00    +0.156 HD
BRANCH   8  27
ATOM      1  F   UNL     1       5.258  -1.292  23.616  0.00  0.00    -0.205 F 
ATOM     27  C   UNL     1       1.734   0.806  23.136  0.00  0.00    +0.035 A 
ATOM     29  C   UNL     1       1.700  -0.544  23.486  0.00  0.00    +0.026 A 
ATOM     30  C   UNL     1       2.959   1.448  22.949  0.00  0.00    +0.026 A 
ATOM     31  C   UNL     1       2.891  -1.252  23.648  0.00  0.00    +0.040 A 
ATOM     32  C   UNL     1       4.149   0.739  23.113  0.00  0.00    +0.040 A 
ATOM     33  C   UNL     1       4.116  -0.611  23.462  0.00  0.00    +0.124 A 
ENDBRANCH   8  27
ENDBRANCH  11   7
BRANCH   9   6
ATOM      6  N   UNL     1      -3.864   2.011  24.944  0.00  0.00    -0.293 NA
ATOM     14  C   UNL     1      -3.583   1.532  23.584  0.00  0.00    +0.085 C 
ATOM     15  C   UNL     1      -5.118   1.445  25.458  0.00  0.00    +0.085 C 
ATOM     16  C   UNL     1      -4.744  -0.655  24.100  0.00  0.00    -0.004 C 
ATOM     18  C   UNL     1      -3.477   0.006  23.547  0.00  0.00    +0.019 C 
ATOM     19  C   UNL     1      -5.064  -0.084  25.485  0.00  0.00    +0.019 C 
BRANCH  16  20
ATOM     20  C   UNL     1      -4.593  -2.173  24.154  0.00  0.00    +0.038 C 
BRANCH  20  21
ATOM     21  C   UNL     1      -3.158  -2.580  24.357  0.00  0.00    -0.047 A 
ATOM     23  C   UNL     1      -2.568  -3.507  23.498  0.00  0.00    +0.003 A 
ATOM     24  C   UNL     1      -2.420  -2.030  25.405  0.00  0.00    +0.003 A 
ATOM     25  C   UNL     1      -1.238  -3.884  23.687  0.00  0.00    +0.000 A 
ATOM     26  C   UNL     1      -1.090  -2.407  25.593  0.00  0.00    +0.000 A 
ATOM     28  C   UNL     1      -0.499  -3.334  24.734  0.00  0.00    +0.000 A 
ENDBRANCH  20  21
ENDBRANCH  16  20
ENDBRANCH   9   6
BRANCH  10   4
ATOM      4  O   UNL     1      -3.981   5.313  23.421  0.00  0.00    -0.388 OA
ATOM     35  H   UNL     1      -4.465   5.552  24.230  0.00  0.00    +0.210 HD
ENDBRANCH  10   4
TORSDOF 6
ENDMDL
MODEL 5
REMARK VINA RESULT:       8.4      2.817      5.700
REMARK  Name = 25314512
REMARK  6 active torsions:
REMARK  status: ('A' for Active; 'I' for Inactive)
REMARK    1  A    between atoms: O_4  and  C_10
REMARK    2  A    between atoms: N_6  and  C_9
REMARK    3  A    between atoms: N_7  and  C_11
REMARK    4  A    between atoms: N_8  and  C_27
REMARK    5  A    between atoms: C_16  and  C_20
REMARK    6  A    between atoms: C_20  and  C_21
REMARK                            x       y       z     vdW  Elec       q    Type
REMARK                         _______ _______ _______ _____ _____    ______ ____
ROOT
ATOM      2  O   UNL     1      -3.751  -1.691  23.085  0.00  0.00    -0.342 OA
ATOM      3  O   UNL     1      -4.945  -3.088  24.500  0.00  0.00    -0.347 OA
ATOM      9  C   UNL     1      -4.055  -1.021  25.382  0.00  0.00    +0.143 C 
ATOM     10  C   UNL     1      -2.743  -1.732  25.784  0.00  0.00    +0.159 C 
ATOM     11  C   UNL     1      -1.967  -2.315  24.582  0.00  0.00    +0.136 C 
ATOM     12  C   UNL     1      -4.695  -1.714  24.165  0.00  0.00    +0.270 C 
ATOM     13  C   UNL     1      -2.886  -2.777  23.433  0.00  0.00    +0.170 C 
ATOM     17  C   UNL     1      -3.906  -3.824  23.835  0.00  0.00    +0.196 C 
ENDROOT
BRANCH  11   7
ATOM      5  O   UNL     1       0.888  -2.530  24.669  0.00  0.00    -0.252 OA
ATOM      7  N   UNL     1      -1.012  -1.347  24.087  0.00  0.00    -0.291 N 
ATOM      8  N   UNL     1       1.038  -0.438  23.614  0.00  0.00    -0.269 N 
ATOM     22  C   UNL     1       0.371  -1.533  24.171  0.00  0.00    +0.304 C 
ATOM     34  H   UNL     1      -1.362  -0.463  23.735  0.00  0.00    +0.151 HD
ATOM     36  H   UNL     1       0.458   0.310  23.242  0.00  0.00    +0.156 HD
BRANCH   8  27
ATOM      1  F   UNL     1       6.508   0.346  23.176  0.00  0.00    -0.205 F 
ATOM     27  C   UNL     1       2.434  -0.238  23.502  0.00  0.00    +0.035 A 
ATOM     29  C   UNL     1       2.928   0.962  22.989  0.00  0.00    +0.026 A 
ATOM     30  C   UNL     1       3.317  -1.240  23.905  0.00  0.00    +0.026 A 
ATOM     31  C   UNL     1       4.304   1.158  22.878  0.00  0.00    +0.040 A 
ATOM     32  C   UNL     1       4.693  -1.043  23.794  0.00  0.00    +0.040 A 
ATOM     33  C   UNL     1       5.187   0.156  23.281  0.00  0.00    +0.124 A 
ENDBRANCH   8  27
ENDBRANCH  11   7
BRANCH   9   6
ATOM      6  N   UNL     1      -3.791   0.385  25.069  0.00  0.00    -0.293 NA
ATOM     14  C   UNL     1      -4.823   1.247  25.662  0.00  0.00    +0.085 C 
ATOM     15  C   UNL     1      -3.707   0.581  23.615  0.00  0.00    +0.085 C 
ATOM     16  C   UNL     1      -4.401   2.998  23.887  0.00  0.00    -0.004 C 
ATOM     18  C   UNL     1      -4.532   2.724  25.389  0.00  0.00    +0.019 C 
ATOM     19  C   UNL     1      -3.378   2.036  23.273  0.00  0.00    +0.019 C 
BRANCH  16  20
ATOM     20  C   UNL     1      -4.012   4.451  23.627  0.00  0.00    +0.038 C 
BRANCH  20  21
ATOM     21  C   UNL     1      -2.605   4.737  24.076  0.00  0.00    -0.047 A 
ATOM     23  C   UNL     1      -2.269   6.004  24.553  0.00  0.00    +0.003 A 
ATOM     24  C   UNL     1      -1.636   3.735  24.015  0.00  0.00    +0.003 A 
ATOM     25  C   UNL     1      -0.964   6.270  24.970  0.00  0.00    +0.000 A 
ATOM     26  C   UNL     1      -0.332   4.001  24.431  0.00  0.00    +0.000 A 
ATOM     28  C   UNL     1       0.004   5.268  24.908  0.00  0.00    +0.000 A 
ENDBRANCH  20  21
ENDBRANCH  16  20
ENDBRANCH   9   6
BRANCH  10   4
ATOM      4  O   UNL     1      -3.081  -2.801  26.677  0.00  0.00    -0.388 OA
ATOM     35  H   UNL     1      -2.257  -3.106  27.095  0.00  0.00    +0.210 HD
ENDBRANCH  10   4
TORSDOF 6
ENDMDL
MODEL 6
REMARK VINA RESULT:       8.5      2.321      5.216
REMARK  Name = 25314512
REMARK  6 active torsions:
REMARK  status: ('A' for Active; 'I' for Inactive)
REMARK    1  A    between atoms: O_4  and  C_10
REMARK    2  A    between atoms: N_6  and  C_9
REMARK    3  A    between atoms: N_7  and  C_11
REMARK    4  A    between atoms: N_8  and  C_27
REMARK    5  A    between atoms: C_16  and  C_20
REMARK    6  A    between atoms: C_20  and  C_21
REMARK                            x       y       z     vdW  Elec       q    Type
REMARK                         _______ _______ _______ _____ _____    ______ ____
ROOT
ATOM      2  O   UNL     1      -1.300   4.682  23.594  0.00  0.00    -0.342 OA
ATOM      3  O   UNL     1      -1.451   6.213  25.329  0.00  0.00    -0.347 OA
ATOM      9  C   UNL     1      -0.891   3.918  25.844  0.00  0.00    +0.143 C 
ATOM     10  C   UNL     1      -2.387   3.569  26.018  0.00  0.00    +0.159 C 
ATOM     11  C   UNL     1      -3.218   3.764  24.731  0.00  0.00    +0.136 C 
ATOM     12  C   UNL     1      -0.719   5.076  24.844  0.00  0.00    +0.270 C 
ATOM     13  C   UNL     1      -2.692   4.906  23.837  0.00  0.00    +0.170 C 
ATOM     17  C   UNL     1      -2.639   6.257  24.523  0.00  0.00    +0.196 C 
ENDROOT
BRANCH  11   7
ATOM      5  O   UNL     1      -3.589   1.125  25.782  0.00  0.00    -0.252 OA
ATOM      7  N   UNL     1      -3.263   2.531  23.975  0.00  0.00    -0.291 N 
ATOM      8  N   UNL     1      -3.448   0.278  23.596  0.00  0.00    -0.269 N 
ATOM     22  C   UNL     1      -3.449   1.281  24.571  0.00  0.00    +0.304 C 
ATOM     34  H   UNL     1      -3.075   2.570  22.979  0.00  0.00    +0.151 HD
ATOM     36  H   UNL     1      -3.319   0.577  22.633  0.00  0.00    +0.156 HD
BRANCH   8  27
ATOM      1  F   UNL     1      -4.070  -5.180  24.337  0.00  0.00    -0.205 F 
ATOM     27  C   UNL     1      -3.606  -1.115  23.785  0.00  0.00    +0.035 A 
ATOM     29  C   UNL     1      -4.764  -1.752  23.338  0.00  0.00    +0.026 A 
ATOM     30  C   UNL     1      -2.606  -1.851  24.420  0.00  0.00    +0.026 A 
ATOM     31  C   UNL     1      -4.920  -3.125  23.525  0.00  0.00    +0.040 A 
ATOM     32  C   UNL     1      -2.763  -3.225  24.607  0.00  0.00    +0.040 A 
ATOM     33  C   UNL     1      -3.920  -3.862  24.159  0.00  0.00    +0.124 A 
ENDBRANCH   8  27
ENDBRANCH  11   7
BRANCH   9   6
ATOM      6  N   UNL     1      -0.151   2.744  25.375  0.00  0.00    -0.293 NA
ATOM     14  C   UNL     1       0.204   2.894  23.957  0.00  0.00    +0.085 C 
ATOM     15  C   UNL     1      -0.933   1.520  25.599  0.00  0.00    +0.085 C 
ATOM     16  C   UNL     1       0.281   0.380  23.696  0.00  0.00    -0.004 C 
ATOM     18  C   UNL     1       1.025   1.700  23.465  0.00  0.00    +0.019 C 
ATOM     19  C   UNL     1      -0.151   0.279  25.163  0.00  0.00    +0.019 C 
BRANCH  16  20
ATOM     20  C   UNL     1       1.144  -0.813  23.296  0.00  0.00    +0.038 C 
BRANCH  20  21
ATOM     21  C   UNL     1       2.606  -0.458  23.277  0.00  0.00    -0.047 A 
ATOM     23  C   UNL     1       3.538  -1.305  23.878  0.00  0.00    +0.003 A 
ATOM     24  C   UNL     1       3.030   0.719  22.660  0.00  0.00    +0.003 A 
ATOM     25  C   UNL     1       4.893  -0.976  23.861  0.00  0.00    +0.000 A 
ATOM     26  C   UNL     1       4.385   1.049  22.644  0.00  0.00    +0.000 A 
ATOM     28  C   UNL     1       5.316   0.202  23.244  0.00  0.00    +0.000 A 
ENDBRANCH  20  21
ENDBRANCH  16  20
ENDBRANCH   9   6
BRANCH  10   4
ATOM      4  O   UNL     1      -2.917   4.420  27.043  0.00  0.00    -0.388 OA
ATOM     35  H   UNL     1      -3.888   4.381  26.984  0.00  0.00    +0.210 HD
ENDBRANCH  10   4
TORSDOF 6
ENDMDL
MODEL 7
REMARK VINA RESULT:      10.3      2.853      5.960
REMARK  Name = 25314512
REMARK  6 active torsions:
REMARK  status: ('A' for Active; 'I' for Inactive)
REMARK    1  A    between atoms: O_4  and  C_10
REMARK    2  A    between atoms: N_6  and  C_9
REMARK    3  A    between atoms: N_7  and  C_11
REMARK    4  A    between atoms: N_8  and  C_27
REMARK    5  A    between atoms: C_16  and  C_20
REMARK    6  A    between atoms: C_20  and  C_21
REMARK                            x       y       z     vdW  Elec       q    Type
REMARK                         _______ _______ _______ _____ _____    ______ ____
ROOT
ATOM      2  O   UNL     1      -3.763  -1.042  23.295  0.00  0.00    -0.342 OA
ATOM      3  O   UNL     1      -4.912  -2.408  24.776  0.00  0.00    -0.347 OA
ATOM      9  C   UNL     1      -3.112  -1.029  25.617  0.00  0.00    +0.143 C 
ATOM     10  C   UNL     1      -2.094  -2.162  25.358  0.00  0.00    +0.159 C 
ATOM     11  C   UNL     1      -1.974  -2.553  23.868  0.00  0.00    +0.136 C 
ATOM     12  C   UNL     1      -4.288  -1.122  24.627  0.00  0.00    +0.270 C 
ATOM     13  C   UNL     1      -3.293  -2.377  23.087  0.00  0.00    +0.170 C 
ATOM     17  C   UNL     1      -4.457  -3.171  23.648  0.00  0.00    +0.196 C 
ENDROOT
BRANCH  11   7
ATOM      5  O   UNL     1       0.691  -2.170  24.845  0.00  0.00    -0.252 OA
ATOM      7  N   UNL     1      -0.923  -1.787  23.234  0.00  0.00    -0.291 N 
ATOM      8  N   UNL     1       1.153  -0.859  22.952  0.00  0.00    -0.269 N 
ATOM     22  C   UNL     1       0.355  -1.651  23.783  0.00  0.00    +0.304 C 
ATOM     34  H   UNL     1      -1.149  -1.263  22.395  0.00  0.00    +0.151 HD
ATOM     36  H   UNL     1       0.720  -0.504  22.104  0.00  0.00    +0.156 HD
BRANCH   8  27
ATOM      1  F   UNL     1       6.444   0.610  23.717  0.00  0.00    -0.205 F 
ATOM     27  C   UNL     1       2.503  -0.484  23.148  0.00  0.00    +0.035 A 
ATOM     29  C   UNL     1       2.933   0.791  22.780  0.00  0.00    +0.026 A 
ATOM     30  C   UNL     1       3.405  -1.389  23.708  0.00  0.00    +0.026 A 
ATOM     31  C   UNL     1       4.264   1.160  22.972  0.00  0.00    +0.040 A 
ATOM     32  C   UNL     1       4.736  -1.020  23.899  0.00  0.00    +0.040 A 
ATOM     33  C   UNL     1       5.166   0.255  23.532  0.00  0.00    +0.124 A 
ENDBRANCH   8  27
ENDBRANCH  11   7
BRANCH   9   6
ATOM      6  N   UNL     1      -2.458   0.275  25.488  0.00  0.00    -0.293 NA
ATOM     14  C   UNL     1      -2.414   0.691  24.079  0.00  0.00    +0.085 C 
ATOM     15  C   UNL     1      -1.110   0.235  26.071  0.00  0.00    +0.085 C 
ATOM     16  C   UNL     1      -0.379   2.118  24.549  0.00  0.00    -0.004 C 
ATOM     18  C   UNL     1      -1.782   2.076  23.932  0.00  0.00    +0.019 C 
ATOM     19  C   UNL     1      -0.434   1.605  25.992  0.00  0.00    +0.019 C 
BRANCH  16  20
ATOM     20  C   UNL     1       0.205   3.526  24.488  0.00  0.00    +0.038 C 
BRANCH  20  21
ATOM     21  C   UNL     1      -0.820   4.567  24.848  0.00  0.00    -0.047 A 
ATOM     23  C   UNL     1      -1.893   4.234  25.674  0.00  0.00    +0.003 A 
ATOM     24  C   UNL     1      -0.697   5.866  24.353  0.00  0.00    +0.003 A 
ATOM     25  C   UNL     1      -2.843   5.199  26.008  0.00  0.00    +0.000 A 
ATOM     26  C   UNL     1      -1.648   6.830  24.686  0.00  0.00    +0.000 A 
ATOM     28  C   UNL     1      -2.720   6.498  25.513  0.00  0.00    +0.000 A 
ENDBRANCH  20  21
ENDBRANCH  16  20
ENDBRANCH   9   6
BRANCH  10   4
ATOM      4  O   UNL     1      -2.519  -3.310  26.103  0.00  0.00    -0.388 OA
ATOM     35  H   UNL     1      -3.419  -3.535  25.808  0.00  0.00    +0.210 HD
ENDBRANCH  10   4
TORSDOF 6
ENDMDL
MODEL 8
REMARK VINA RESULT:      10.4      3.553      7.431
REMARK  Name = 25314512
REMARK  6 active torsions:
REMARK  status: ('A' for Active; 'I' for Inactive)
REMARK    1  A    between atoms: O_4  and  C_10
REMARK    2  A    between atoms: N_6  and  C_9
REMARK    3  A    between atoms: N_7  and  C_11
REMARK    4  A    between atoms: N_8  and  C_27
REMARK    5  A    between atoms: C_16  and  C_20
REMARK    6  A    between atoms: C_20  and  C_21
REMARK                            x       y       z     vdW  Elec       q    Type
REMARK                         _______ _______ _______ _____ _____    ______ ____
ROOT
ATOM      2  O   UNL     1       4.120   0.321  24.621  0.00  0.00    -0.342 OA
ATOM      3  O   UNL     1       5.426   0.719  22.746  0.00  0.00    -0.347 OA
ATOM      9  C   UNL     1       3.185   1.625  22.820  0.00  0.00    +0.143 C 
ATOM     10  C   UNL     1       2.623   0.346  22.160  0.00  0.00    +0.159 C 
ATOM     11  C   UNL     1       2.839  -0.929  23.005  0.00  0.00    +0.136 C 
ATOM     12  C   UNL     1       4.454   1.303  23.630  0.00  0.00    +0.270 C 
ATOM     13  C   UNL     1       4.128  -0.884  23.851  0.00  0.00    +0.170 C 
ATOM     17  C   UNL     1       5.395  -0.686  23.041  0.00  0.00    +0.196 C 
ENDROOT
BRANCH  11   7
ATOM      5  O   UNL     1       0.087  -1.001  22.212  0.00  0.00    -0.252 OA
ATOM      7  N   UNL     1       1.697  -1.156  23.865  0.00  0.00    -0.291 N 
ATOM      8  N   UNL     1      -0.505  -1.416  24.446  0.00  0.00    -0.269 N 
ATOM     22  C   UNL     1       0.382  -1.175  23.392  0.00  0.00    +0.304 C 
ATOM     34  H   UNL     1       1.854  -1.228  24.865  0.00  0.00    +0.151 HD
ATOM     36  H   UNL     1      -0.096  -1.539  25.368  0.00  0.00    +0.156 HD
BRANCH   8  27
ATOM      1  F   UNL     1      -6.031  -1.787  24.220  0.00  0.00    -0.205 F 
ATOM     27  C   UNL     1      -1.915  -1.511  24.388  0.00  0.00    +0.035 A 
ATOM     29  C   UNL     1      -2.697  -0.364  24.527  0.00  0.00    +0.026 A 
ATOM     30  C   UNL     1      -2.524  -2.751  24.192  0.00  0.00    +0.026 A 
ATOM     31  C   UNL     1      -4.088  -0.458  24.471  0.00  0.00    +0.040 A 
ATOM     32  C   UNL     1      -3.914  -2.844  24.137  0.00  0.00    +0.040 A 
ATOM     33  C   UNL     1      -4.697  -1.698  24.276  0.00  0.00    +0.124 A 
ENDBRANCH   8  27
ENDBRANCH  11   7
BRANCH   9   6
ATOM      6  N   UNL     1       2.177   2.224  23.697  0.00  0.00    -0.293 NA
ATOM     14  C   UNL     1       1.185   1.219  24.101  0.00  0.00    +0.085 C 
ATOM     15  C   UNL     1       1.534   3.368  23.036  0.00  0.00    +0.085 C 
ATOM     16  C   UNL     1      -0.538   3.038  24.448  0.00  0.00    -0.004 C 
ATOM     18  C   UNL     1       0.154   1.816  25.062  0.00  0.00    +0.019 C 
ATOM     19  C   UNL     1       0.516   4.038  23.960  0.00  0.00    +0.019 C 
BRANCH  16  20
ATOM     20  C   UNL     1      -1.491   3.688  25.447  0.00  0.00    +0.038 C 
BRANCH  20  21
ATOM     21  C   UNL     1      -2.924   3.331  25.159  0.00  0.00    -0.047 A 
ATOM     23  C   UNL     1      -3.857   3.300  26.196  0.00  0.00    +0.003 A 
ATOM     24  C   UNL     1      -3.319   3.031  23.855  0.00  0.00    +0.003 A 
ATOM     25  C   UNL     1      -5.185   2.968  25.929  0.00  0.00    +0.000 A 
ATOM     26  C   UNL     1      -4.647   2.699  23.589  0.00  0.00    +0.000 A 
ATOM     28  C   UNL     1      -5.580   2.668  24.625  0.00  0.00    +0.000 A 
ENDBRANCH  20  21
ENDBRANCH  16  20
ENDBRANCH   9   6
BRANCH  10   4
ATOM      4  O   UNL     1       3.283   0.179  20.899  0.00  0.00    -0.388 OA
ATOM     35  H   UNL     1       4.204  -0.075  21.080  0.00  0.00    +0.210 HD
ENDBRANCH  10   4
TORSDOF 6
ENDMDL
