MODEL 1
REMARK VINA RESULT:       2.5      0.000      0.000
REMARK  Name = 45784367
REMARK  13 active torsions:
REMARK  status: ('A' for Active; 'I' for Inactive)
REMARK    1  A    between atoms: O_1  and  C_10
REMARK    2  A    between atoms: O_4  and  C_36
REMARK    3  A    between atoms: O_4  and  C_37
REMARK    4  A    between atoms: N_5  and  C_14
REMARK    5  A    between atoms: N_6  and  C_24
REMARK    6  A    between atoms: C_7  and  C_17
REMARK    7  A    between atoms: C_9  and  C_19
REMARK    8  A    between atoms: C_13  and  C_18
REMARK    9  A    between atoms: C_18  and  C_20
REMARK   10  A    between atoms: C_18  and  C_21
REMARK   11  A    between atoms: C_22  and  C_23
REMARK   12  A    between atoms: C_23  and  C_25
REMARK   13  A    between atoms: C_24  and  C_26
REMARK                            x       y       z     vdW  Elec       q    Type
REMARK                         _______ _______ _______ _____ _____    ______ ____
ROOT
ATOM      7  C   UNL     1      -2.263  -0.863  25.327  0.00  0.00    -0.027 C 
ATOM      8  C   UNL     1      -2.462   0.183  24.181  0.00  0.00    +0.028 C 
ATOM      9  C   UNL     1      -1.082   0.776  23.718  0.00  0.00    +0.012 C 
ATOM     10  C   UNL     1      -3.547   1.233  24.557  0.00  0.00    +0.122 C 
ATOM     11  C   UNL     1      -3.624  -1.508  25.678  0.00  0.00    +0.007 C 
ATOM     12  C   UNL     1      -1.326  -1.987  24.826  0.00  0.00    +0.009 C 
ATOM     13  C   UNL     1      -4.875   0.580  25.008  0.00  0.00    +0.029 C 
ATOM     14  C   UNL     1      -0.122  -0.369  23.288  0.00  0.00    +0.076 C 
ATOM     15  C   UNL     1      -4.679  -0.486  26.086  0.00  0.00    +0.007 C 
ATOM     16  C   UNL     1       0.020  -1.469  24.340  0.00  0.00    +0.023 C 
ATOM     17  C   UNL     1      -1.664  -0.233  26.609  0.00  0.00    +0.011 C 
ATOM     19  C   UNL     1      -1.202   1.793  22.571  0.00  0.00    +0.010 C 
ENDROOT
BRANCH  14   5
ATOM      3  O   UNL     1       1.289  -0.702  20.803  0.00  0.00    -0.275 OA
ATOM      5  N   UNL     1       1.198   0.132  22.968  0.00  0.00    -0.312 N 
ATOM     22  C   UNL     1       1.795  -0.082  21.736  0.00  0.00    +0.218 C 
ATOM     38  H   UNL     1       1.717   0.600  23.704  0.00  0.00    +0.149 HD
BRANCH  22  23
ATOM     23  C   UNL     1       3.170   0.554  21.669  0.00  0.00    +0.130 C 
BRANCH  23  25
ATOM     25  C   UNL     1       4.106   0.066  22.744  0.00  0.00    -0.039 A 
ATOM     27  C   UNL     1       5.068   0.924  23.275  0.00  0.00    +0.004 A 
ATOM     28  C   UNL     1       4.011  -1.247  23.208  0.00  0.00    +0.004 A 
ATOM     31  C   UNL     1       5.935   0.471  24.268  0.00  0.00    +0.000 A 
ATOM     32  C   UNL     1       4.877  -1.701  24.202  0.00  0.00    +0.000 A 
ATOM     33  C   UNL     1       5.840  -0.841  24.732  0.00  0.00    +0.000 A 
ENDBRANCH  23  25
ENDBRANCH  22  23
ENDBRANCH  14   5
BRANCH  10   1
ATOM      1  O   UNL     1      -3.855   2.034  23.414  0.00  0.00    -0.391 OA
ATOM     39  H   UNL     1      -4.249   1.457  22.739  0.00  0.00    +0.210 HD
ENDBRANCH  10   1
BRANCH  13  18
ATOM     18  C   UNL     1      -5.885   1.625  25.498  0.00  0.00    +0.077 C 
ATOM     20  C   UNL     1      -7.055   1.721  24.525  0.00  0.00    +0.017 C 
BRANCH  18  21
ATOM      2  O   UNL     1      -5.479   3.959  24.993  0.00  0.00    -0.276 OA
ATOM      6  N   UNL     1      -4.226   2.952  26.665  0.00  0.00    -0.311 N 
ATOM     21  C   UNL     1      -5.194   2.974  25.672  0.00  0.00    +0.216 C 
ATOM     40  H   UNL     1      -4.087   2.112  27.218  0.00  0.00    +0.149 HD
BRANCH   6  24
ATOM     24  C   UNL     1      -3.436   4.110  27.012  0.00  0.00    +0.139 C 
BRANCH  24  26
ATOM     26  C   UNL     1      -2.286   4.309  26.068  0.00  0.00    -0.030 A 
ATOM     29  C   UNL     1      -1.246   3.381  26.031  0.00  0.00    +0.009 A 
ATOM     30  C   UNL     1      -2.260   5.421  25.226  0.00  0.00    +0.009 A 
ATOM     34  C   UNL     1      -0.178   3.565  25.151  0.00  0.00    +0.046 A 
ATOM     35  C   UNL     1      -1.193   5.605  24.347  0.00  0.00    +0.046 A 
ATOM     36  C   UNL     1      -0.153   4.677  24.309  0.00  0.00    +0.120 A 
BRANCH  36   4
ATOM      4  O   UNL     1       0.888   4.855  23.450  0.00  0.00    -0.495 OA
ATOM     37  C   UNL     1       0.624   5.590  22.255  0.00  0.00    +0.277 C 
ENDBRANCH  36   4
ENDBRANCH  24  26
ENDBRANCH   6  24
ENDBRANCH  18  21
ENDBRANCH  13  18
TORSDOF 9
ENDMDL
