MODEL 1
REMARK VINA RESULT:      -1.2      0.000      0.000
REMARK  Name = 25388788
REMARK  9 active torsions:
REMARK  status: ('A' for Active; 'I' for Inactive)
REMARK    1  A    between atoms: N_6  and  C_15
REMARK    2  A    between atoms: N_6  and  C_17
REMARK    3  A    between atoms: N_6  and  C_18
REMARK    4  A    between atoms: N_7  and  C_16
REMARK    5  A    between atoms: C_9  and  C_15
REMARK    6  A    between atoms: C_10  and  C_16
REMARK    7  A    between atoms: C_17  and  C_20
REMARK    8  A    between atoms: C_19  and  C_21
REMARK    9  A    between atoms: C_31  and  C_32
REMARK                            x       y       z     vdW  Elec       q    Type
REMARK                         _______ _______ _______ _____ _____    ______ ____
ROOT
ATOM      5  N   UNL     1      -2.800  -1.606  23.951  0.00  0.00    -0.298 NA
ATOM      8  C   UNL     1      -3.766  -0.376  26.031  0.00  0.00    -0.003 C 
ATOM      9  C   UNL     1      -4.711  -0.233  24.817  0.00  0.00    +0.020 C 
ATOM     10  C   UNL     1      -1.780  -0.683  24.517  0.00  0.00    +0.074 C 
ATOM     11  C   UNL     1      -2.374   0.169  25.660  0.00  0.00    +0.024 C 
ATOM     12  C   UNL     1      -4.024  -0.855  23.580  0.00  0.00    +0.089 C 
ATOM     13  C   UNL     1      -3.608  -1.885  26.299  0.00  0.00    +0.019 C 
ATOM     14  C   UNL     1      -3.162  -2.587  25.003  0.00  0.00    +0.085 C 
ENDROOT
BRANCH   9  15
ATOM     15  C   UNL     1      -5.143   1.208  24.556  0.00  0.00    +0.089 C 
BRANCH  15   6
ATOM      6  N   UNL     1      -5.263   1.938  25.782  0.00  0.00    -0.301 NA
ATOM     18  C   UNL     1      -6.629   1.858  26.328  0.00  0.00    +0.105 C 
BRANCH   6  17
ATOM     17  C   UNL     1      -4.892   3.354  25.608  0.00  0.00    +0.119 C 
BRANCH  17  20
ATOM     20  C   UNL     1      -3.451   3.509  25.200  0.00  0.00    -0.033 A 
ATOM     22  C   UNL     1      -3.072   3.276  23.878  0.00  0.00    +0.005 A 
ATOM     23  C   UNL     1      -2.495   3.884  26.145  0.00  0.00    +0.005 A 
ATOM     26  C   UNL     1      -1.736   3.420  23.500  0.00  0.00    +0.000 A 
ATOM     27  C   UNL     1      -1.161   4.028  25.767  0.00  0.00    +0.000 A 
ATOM     28  C   UNL     1      -0.781   3.795  24.445  0.00  0.00    +0.000 A 
ENDBRANCH  17  20
ENDBRANCH   6  17
ENDBRANCH  15   6
ENDBRANCH   9  15
BRANCH  10  16
ATOM     16  C   UNL     1      -1.121   0.186  23.444  0.00  0.00    +0.123 C 
BRANCH  16   7
ATOM      4  O   UNL     1       0.781  -0.558  21.424  0.00  0.00    -0.270 OA
ATOM      7  N   UNL     1       0.304   0.168  23.576  0.00  0.00    -0.310 N 
ATOM     19  C   UNL     1       1.156  -0.209  22.540  0.00  0.00    +0.244 C 
ATOM     33  H   UNL     1       0.679   0.387  24.493  0.00  0.00    +0.149 HD
BRANCH  19  21
ATOM     21  C   UNL     1       2.610  -0.199  22.846  0.00  0.00    +0.037 A 
ATOM     24  C   UNL     1       3.385   0.913  22.517  0.00  0.00    +0.013 A 
ATOM     25  C   UNL     1       3.201  -1.303  23.462  0.00  0.00    +0.013 A 
ATOM     29  C   UNL     1       4.750   0.922  22.803  0.00  0.00    +0.013 A 
ATOM     30  C   UNL     1       4.566  -1.293  23.749  0.00  0.00    +0.013 A 
ATOM     31  C   UNL     1       5.341  -0.181  23.419  0.00  0.00    +0.055 A 
BRANCH  31  32
ATOM      1  F   UNL     1       7.581  -0.593  22.688  0.00  0.00    -0.166 F 
ATOM      2  F   UNL     1       7.121  -0.982  24.777  0.00  0.00    -0.166 F 
ATOM      3  F   UNL     1       7.282   1.062  24.056  0.00  0.00    -0.166 F 
ATOM     32  C   UNL     1       6.800  -0.172  23.727  0.00  0.00    +0.417 C 
ENDBRANCH  31  32
ENDBRANCH  19  21
ENDBRANCH  16   7
ENDBRANCH  10  16
TORSDOF 8
ENDMDL
MODEL 2
REMARK VINA RESULT:      -1.1      1.199      3.874
REMARK  Name = 25388788
REMARK  9 active torsions:
REMARK  status: ('A' for Active; 'I' for Inactive)
REMARK    1  A    between atoms: N_6  and  C_15
REMARK    2  A    between atoms: N_6  and  C_17
REMARK    3  A    between atoms: N_6  and  C_18
REMARK    4  A    between atoms: N_7  and  C_16
REMARK    5  A    between atoms: C_9  and  C_15
REMARK    6  A    between atoms: C_10  and  C_16
REMARK    7  A    between atoms: C_17  and  C_20
REMARK    8  A    between atoms: C_19  and  C_21
REMARK    9  A    between atoms: C_31  and  C_32
REMARK                            x       y       z     vdW  Elec       q    Type
REMARK                         _______ _______ _______ _____ _____    ______ ____
ROOT
ATOM      5  N   UNL     1      -1.293   3.577  25.081  0.00  0.00    -0.298 NA
ATOM      8  C   UNL     1      -3.693   4.381  24.475  0.00  0.00    -0.003 C 
ATOM      9  C   UNL     1      -3.669   3.716  25.870  0.00  0.00    +0.020 C 
ATOM     10  C   UNL     1      -1.686   3.049  23.747  0.00  0.00    +0.074 C 
ATOM     11  C   UNL     1      -3.160   3.385  23.427  0.00  0.00    +0.024 C 
ATOM     12  C   UNL     1      -2.259   3.133  26.115  0.00  0.00    +0.089 C 
ATOM     13  C   UNL     1      -2.706   5.563  24.526  0.00  0.00    +0.019 C 
ATOM     14  C   UNL     1      -1.336   5.059  25.016  0.00  0.00    +0.085 C 
ENDROOT
BRANCH   9  15
ATOM     15  C   UNL     1      -4.755   2.659  26.053  0.00  0.00    +0.089 C 
BRANCH  15   6
ATOM      6  N   UNL     1      -4.513   1.523  25.214  0.00  0.00    -0.301 NA
ATOM     18  C   UNL     1      -5.495   1.441  24.119  0.00  0.00    +0.105 C 
BRANCH   6  17
ATOM     17  C   UNL     1      -4.537   0.266  25.983  0.00  0.00    +0.119 C 
BRANCH  17  20
ATOM     20  C   UNL     1      -3.532  -0.726  25.463  0.00  0.00    -0.033 A 
ATOM     22  C   UNL     1      -3.928  -1.710  24.556  0.00  0.00    +0.005 A 
ATOM     23  C   UNL     1      -2.205  -0.664  25.889  0.00  0.00    +0.005 A 
ATOM     26  C   UNL     1      -2.996  -2.631  24.075  0.00  0.00    +0.000 A 
ATOM     27  C   UNL     1      -1.274  -1.583  25.407  0.00  0.00    +0.000 A 
ATOM     28  C   UNL     1      -1.670  -2.567  24.500  0.00  0.00    +0.000 A 
ENDBRANCH  17  20
ENDBRANCH   6  17
ENDBRANCH  15   6
ENDBRANCH   9  15
BRANCH  10  16
ATOM     16  C   UNL     1      -1.402   1.552  23.605  0.00  0.00    +0.123 C 
BRANCH  16   7
ATOM      4  O   UNL     1       0.004  -0.489  22.154  0.00  0.00    -0.270 OA
ATOM      7  N   UNL     1       0.005   1.294  23.639  0.00  0.00    -0.310 N 
ATOM     19  C   UNL     1       0.607   0.279  22.900  0.00  0.00    +0.244 C 
ATOM     33  H   UNL     1       0.555   1.854  24.283  0.00  0.00    +0.149 HD
BRANCH  19  21
ATOM     21  C   UNL     1       2.076   0.124  23.065  0.00  0.00    +0.037 A 
ATOM     24  C   UNL     1       2.604  -1.086  23.515  0.00  0.00    +0.013 A 
ATOM     25  C   UNL     1       2.927   1.190  22.772  0.00  0.00    +0.013 A 
ATOM     29  C   UNL     1       3.983  -1.231  23.672  0.00  0.00    +0.013 A 
ATOM     30  C   UNL     1       4.305   1.045  22.929  0.00  0.00    +0.013 A 
ATOM     31  C   UNL     1       4.833  -0.165  23.379  0.00  0.00    +0.055 A 
BRANCH  31  32
ATOM      1  F   UNL     1       6.945  -0.737  22.411  0.00  0.00    -0.166 F 
ATOM      2  F   UNL     1       6.634  -1.233  24.505  0.00  0.00    -0.166 F 
ATOM      3  F   UNL     1       6.942   0.834  23.905  0.00  0.00    -0.166 F 
ATOM     32  C   UNL     1       6.307  -0.320  23.545  0.00  0.00    +0.417 C 
ENDBRANCH  31  32
ENDBRANCH  19  21
ENDBRANCH  16   7
ENDBRANCH  10  16
TORSDOF 8
ENDMDL
MODEL 3
REMARK VINA RESULT:       1.0      1.696      4.254
REMARK  Name = 25388788
REMARK  9 active torsions:
REMARK  status: ('A' for Active; 'I' for Inactive)
REMARK    1  A    between atoms: N_6  and  C_15
REMARK    2  A    between atoms: N_6  and  C_17
REMARK    3  A    between atoms: N_6  and  C_18
REMARK    4  A    between atoms: N_7  and  C_16
REMARK    5  A    between atoms: C_9  and  C_15
REMARK    6  A    between atoms: C_10  and  C_16
REMARK    7  A    between atoms: C_17  and  C_20
REMARK    8  A    between atoms: C_19  and  C_21
REMARK    9  A    between atoms: C_31  and  C_32
REMARK                            x       y       z     vdW  Elec       q    Type
REMARK                         _______ _______ _______ _____ _____    ______ ____
ROOT
ATOM      5  N   UNL     1      -2.367   3.541  24.807  0.00  0.00    -0.298 NA
ATOM      8  C   UNL     1      -4.886   3.890  25.358  0.00  0.00    -0.003 C 
ATOM      9  C   UNL     1      -4.337   2.629  26.063  0.00  0.00    +0.020 C 
ATOM     10  C   UNL     1      -3.146   3.704  23.551  0.00  0.00    +0.074 C 
ATOM     11  C   UNL     1      -4.663   3.763  23.840  0.00  0.00    +0.024 C 
ATOM     12  C   UNL     1      -2.885   2.391  25.588  0.00  0.00    +0.089 C 
ATOM     13  C   UNL     1      -4.038   5.080  25.846  0.00  0.00    +0.019 C 
ATOM     14  C   UNL     1      -2.548   4.769  25.619  0.00  0.00    +0.085 C 
ENDROOT
BRANCH   9  15
ATOM     15  C   UNL     1      -5.208   1.394  25.853  0.00  0.00    +0.089 C 
BRANCH  15   6
ATOM      6  N   UNL     1      -4.485   0.366  25.166  0.00  0.00    -0.301 NA
ATOM     18  C   UNL     1      -5.264  -0.187  24.044  0.00  0.00    +0.105 C 
BRANCH   6  17
ATOM     17  C   UNL     1      -4.101  -0.728  26.075  0.00  0.00    +0.119 C 
BRANCH  17  20
ATOM     20  C   UNL     1      -2.823  -1.394  25.642  0.00  0.00    -0.033 A 
ATOM     22  C   UNL     1      -1.596  -0.912  26.096  0.00  0.00    +0.005 A 
ATOM     23  C   UNL     1      -2.866  -2.494  24.784  0.00  0.00    +0.005 A 
ATOM     26  C   UNL     1      -0.411  -1.530  25.694  0.00  0.00    +0.000 A 
ATOM     27  C   UNL     1      -1.682  -3.111  24.382  0.00  0.00    +0.000 A 
ATOM     28  C   UNL     1      -0.454  -2.629  24.837  0.00  0.00    +0.000 A 
ENDBRANCH  17  20
ENDBRANCH   6  17
ENDBRANCH  15   6
ENDBRANCH   9  15
BRANCH  10  16
ATOM     16  C   UNL     1      -2.808   2.632  22.511  0.00  0.00    +0.123 C 
BRANCH  16   7
ATOM      4  O   UNL     1      -1.774   0.026  23.134  0.00  0.00    -0.270 OA
ATOM      7  N   UNL     1      -1.430   2.257  22.595  0.00  0.00    -0.310 N 
ATOM     19  C   UNL     1      -1.014   0.964  22.905  0.00  0.00    +0.244 C 
ATOM     33  H   UNL     1      -0.748   2.999  22.477  0.00  0.00    +0.149 HD
BRANCH  19  21
ATOM     21  C   UNL     1       0.454   0.743  22.978  0.00  0.00    +0.037 A 
ATOM     24  C   UNL     1       1.256   1.626  23.699  0.00  0.00    +0.013 A 
ATOM     25  C   UNL     1       1.029  -0.347  22.324  0.00  0.00    +0.013 A 
ATOM     29  C   UNL     1       2.635   1.420  23.768  0.00  0.00    +0.013 A 
ATOM     30  C   UNL     1       2.407  -0.553  22.392  0.00  0.00    +0.013 A 
ATOM     31  C   UNL     1       3.209   0.330  23.114  0.00  0.00    +0.055 A 
BRANCH  31  32
ATOM      1  F   UNL     1       5.339   1.040  23.940  0.00  0.00    -0.166 F 
ATOM      2  F   UNL     1       5.281   0.141  21.961  0.00  0.00    -0.166 F 
ATOM      3  F   UNL     1       5.028  -1.095  23.732  0.00  0.00    -0.166 F 
ATOM     32  C   UNL     1       4.683   0.108  23.188  0.00  0.00    +0.417 C 
ENDBRANCH  31  32
ENDBRANCH  19  21
ENDBRANCH  16   7
ENDBRANCH  10  16
TORSDOF 8
ENDMDL
MODEL 4
REMARK VINA RESULT:       1.5      3.676      7.182
REMARK  Name = 25388788
REMARK  9 active torsions:
REMARK  status: ('A' for Active; 'I' for Inactive)
REMARK    1  A    between atoms: N_6  and  C_15
REMARK    2  A    between atoms: N_6  and  C_17
REMARK    3  A    between atoms: N_6  and  C_18
REMARK    4  A    between atoms: N_7  and  C_16
REMARK    5  A    between atoms: C_9  and  C_15
REMARK    6  A    between atoms: C_10  and  C_16
REMARK    7  A    between atoms: C_17  and  C_20
REMARK    8  A    between atoms: C_19  and  C_21
REMARK    9  A    between atoms: C_31  and  C_32
REMARK                            x       y       z     vdW  Elec       q    Type
REMARK                         _______ _______ _______ _____ _____    ______ ____
ROOT
ATOM      5  N   UNL     1      -3.472  -1.874  25.801  0.00  0.00    -0.298 NA
ATOM      8  C   UNL     1      -1.829  -2.529  23.893  0.00  0.00    -0.003 C 
ATOM      9  C   UNL     1      -1.329  -1.274  24.645  0.00  0.00    +0.020 C 
ATOM     10  C   UNL     1      -4.212  -2.022  24.520  0.00  0.00    +0.074 C 
ATOM     11  C   UNL     1      -3.242  -2.264  23.341  0.00  0.00    +0.024 C 
ATOM     12  C   UNL     1      -2.409  -0.848  25.666  0.00  0.00    +0.089 C 
ATOM     13  C   UNL     1      -1.950  -3.657  24.936  0.00  0.00    +0.019 C 
ATOM     14  C   UNL     1      -2.824  -3.173  26.107  0.00  0.00    +0.085 C 
ENDROOT
BRANCH   9  15
ATOM     15  C   UNL     1      -0.950  -0.125  23.714  0.00  0.00    +0.089 C 
BRANCH  15   6
ATOM      6  N   UNL     1       0.416   0.259  23.902  0.00  0.00    -0.301 NA
ATOM     18  C   UNL     1       0.532   1.681  24.274  0.00  0.00    +0.105 C 
BRANCH   6  17
ATOM     17  C   UNL     1       1.223   0.007  22.695  0.00  0.00    +0.119 C 
BRANCH  17  20
ATOM     20  C   UNL     1       2.688  -0.112  23.016  0.00  0.00    -0.033 A 
ATOM     22  C   UNL     1       3.187  -1.289  23.576  0.00  0.00    +0.005 A 
ATOM     23  C   UNL     1       3.548   0.955  22.755  0.00  0.00    +0.005 A 
ATOM     26  C   UNL     1       4.546  -1.399  23.873  0.00  0.00    +0.000 A 
ATOM     27  C   UNL     1       4.906   0.845  23.052  0.00  0.00    +0.000 A 
ATOM     28  C   UNL     1       5.405  -0.332  23.611  0.00  0.00    +0.000 A 
ENDBRANCH  17  20
ENDBRANCH   6  17
ENDBRANCH  15   6
ENDBRANCH   9  15
BRANCH  10  16
ATOM     16  C   UNL     1      -5.152  -0.845  24.249  0.00  0.00    +0.123 C 
BRANCH  16   7
ATOM      4  O   UNL     1      -5.773   1.468  25.834  0.00  0.00    -0.270 OA
ATOM      7  N   UNL     1      -4.437   0.394  24.270  0.00  0.00    -0.310 N 
ATOM     19  C   UNL     1      -4.809   1.470  25.073  0.00  0.00    +0.244 C 
ATOM     33  H   UNL     1      -3.664   0.485  23.619  0.00  0.00    +0.149 HD
BRANCH  19  21
ATOM     21  C   UNL     1      -3.977   2.696  24.960  0.00  0.00    +0.037 A 
ATOM     24  C   UNL     1      -4.294   3.669  24.012  0.00  0.00    +0.013 A 
ATOM     25  C   UNL     1      -2.877   2.874  25.800  0.00  0.00    +0.013 A 
ATOM     29  C   UNL     1      -3.513   4.820  23.904  0.00  0.00    +0.013 A 
ATOM     30  C   UNL     1      -2.097   4.024  25.692  0.00  0.00    +0.013 A 
ATOM     31  C   UNL     1      -2.414   4.997  24.745  0.00  0.00    +0.055 A 
BRANCH  31  32
ATOM      1  F   UNL     1      -1.813   6.945  23.492  0.00  0.00    -0.166 F 
ATOM      2  F   UNL     1      -0.242   5.956  24.623  0.00  0.00    -0.166 F 
ATOM      3  F   UNL     1      -1.766   7.113  25.653  0.00  0.00    -0.166 F 
ATOM     32  C   UNL     1      -1.579   6.228  24.631  0.00  0.00    +0.417 C 
ENDBRANCH  31  32
ENDBRANCH  19  21
ENDBRANCH  16   7
ENDBRANCH  10  16
TORSDOF 8
ENDMDL
MODEL 5
REMARK VINA RESULT:       2.4      2.845      5.230
REMARK  Name = 25388788
REMARK  9 active torsions:
REMARK  status: ('A' for Active; 'I' for Inactive)
REMARK    1  A    between atoms: N_6  and  C_15
REMARK    2  A    between atoms: N_6  and  C_17
REMARK    3  A    between atoms: N_6  and  C_18
REMARK    4  A    between atoms: N_7  and  C_16
REMARK    5  A    between atoms: C_9  and  C_15
REMARK    6  A    between atoms: C_10  and  C_16
REMARK    7  A    between atoms: C_17  and  C_20
REMARK    8  A    between atoms: C_19  and  C_21
REMARK    9  A    between atoms: C_31  and  C_32
REMARK                            x       y       z     vdW  Elec       q    Type
REMARK                         _______ _______ _______ _____ _____    ______ ____
ROOT
ATOM      5  N   UNL     1      -4.904   3.487  26.173  0.00  0.00    -0.298 NA
ATOM      8  C   UNL     1      -4.347   4.904  24.062  0.00  0.00    -0.003 C 
ATOM      9  C   UNL     1      -4.464   3.404  23.705  0.00  0.00    +0.020 C 
ATOM     10  C   UNL     1      -3.718   4.346  26.434  0.00  0.00    +0.074 C 
ATOM     11  C   UNL     1      -3.274   5.086  25.152  0.00  0.00    +0.024 C 
ATOM     12  C   UNL     1      -4.651   2.599  25.012  0.00  0.00    +0.089 C 
ATOM     13  C   UNL     1      -5.697   5.324  24.676  0.00  0.00    +0.019 C 
ATOM     14  C   UNL     1      -6.044   4.373  25.836  0.00  0.00    +0.085 C 
ENDROOT
BRANCH   9  15
ATOM     15  C   UNL     1      -3.284   2.886  22.889  0.00  0.00    +0.089 C 
BRANCH  15   6
ATOM      6  N   UNL     1      -2.954   1.542  23.258  0.00  0.00    -0.301 NA
ATOM     18  C   UNL     1      -2.128   0.886  22.229  0.00  0.00    +0.105 C 
BRANCH   6  17
ATOM     17  C   UNL     1      -4.163   0.733  23.497  0.00  0.00    +0.119 C 
BRANCH  17  20
ATOM     20  C   UNL     1      -3.845  -0.544  24.228  0.00  0.00    -0.033 A 
ATOM     22  C   UNL     1      -4.054  -1.775  23.605  0.00  0.00    +0.005 A 
ATOM     23  C   UNL     1      -3.343  -0.497  25.528  0.00  0.00    +0.005 A 
ATOM     26  C   UNL     1      -3.760  -2.959  24.283  0.00  0.00    +0.000 A 
ATOM     27  C   UNL     1      -3.048  -1.680  26.206  0.00  0.00    +0.000 A 
ATOM     28  C   UNL     1      -3.257  -2.911  25.583  0.00  0.00    +0.000 A 
ENDBRANCH  17  20
ENDBRANCH   6  17
ENDBRANCH  15   6
ENDBRANCH   9  15
BRANCH  10  16
ATOM     16  C   UNL     1      -2.562   3.568  27.069  0.00  0.00    +0.123 C 
BRANCH  16   7
ATOM      4  O   UNL     1       0.053   2.423  27.376  0.00  0.00    -0.270 OA
ATOM      7  N   UNL     1      -1.818   2.858  26.074  0.00  0.00    -0.310 N 
ATOM     19  C   UNL     1      -0.549   2.333  26.309  0.00  0.00    +0.244 C 
ATOM     33  H   UNL     1      -2.232   2.801  25.150  0.00  0.00    +0.149 HD
BRANCH  19  21
ATOM     21  C   UNL     1       0.102   1.646  25.164  0.00  0.00    +0.037 A 
ATOM     24  C   UNL     1       0.951   2.356  24.316  0.00  0.00    +0.013 A 
ATOM     25  C   UNL     1      -0.137   0.290  24.937  0.00  0.00    +0.013 A 
ATOM     29  C   UNL     1       1.563   1.711  23.240  0.00  0.00    +0.013 A 
ATOM     30  C   UNL     1       0.474  -0.355  23.862  0.00  0.00    +0.013 A 
ATOM     31  C   UNL     1       1.323   0.355  23.013  0.00  0.00    +0.055 A 
BRANCH  31  32
ATOM      1  F   UNL     1       2.927   0.422  21.240  0.00  0.00    -0.166 F 
ATOM      2  F   UNL     1       1.090  -0.685  20.888  0.00  0.00    -0.166 F 
ATOM      3  F   UNL     1       2.615  -1.491  22.211  0.00  0.00    -0.166 F 
ATOM     32  C   UNL     1       1.977  -0.335  21.864  0.00  0.00    +0.417 C 
ENDBRANCH  31  32
ENDBRANCH  19  21
ENDBRANCH  16   7
ENDBRANCH  10  16
TORSDOF 8
ENDMDL
MODEL 6
REMARK VINA RESULT:       2.5      2.095      4.597
REMARK  Name = 25388788
REMARK  9 active torsions:
REMARK  status: ('A' for Active; 'I' for Inactive)
REMARK    1  A    between atoms: N_6  and  C_15
REMARK    2  A    between atoms: N_6  and  C_17
REMARK    3  A    between atoms: N_6  and  C_18
REMARK    4  A    between atoms: N_7  and  C_16
REMARK    5  A    between atoms: C_9  and  C_15
REMARK    6  A    between atoms: C_10  and  C_16
REMARK    7  A    between atoms: C_17  and  C_20
REMARK    8  A    between atoms: C_19  and  C_21
REMARK    9  A    between atoms: C_31  and  C_32
REMARK                            x       y       z     vdW  Elec       q    Type
REMARK                         _______ _______ _______ _____ _____    ______ ____
ROOT
ATOM      5  N   UNL     1      -3.677   4.486  24.140  0.00  0.00    -0.298 NA
ATOM      8  C   UNL     1      -3.353   2.716  26.020  0.00  0.00    -0.003 C 
ATOM      9  C   UNL     1      -2.052   3.517  25.786  0.00  0.00    +0.020 C 
ATOM     10  C   UNL     1      -4.107   3.146  23.658  0.00  0.00    +0.074 C 
ATOM     11  C   UNL     1      -3.786   2.051  24.700  0.00  0.00    +0.024 C 
ATOM     12  C   UNL     1      -2.258   4.448  24.569  0.00  0.00    +0.089 C 
ATOM     13  C   UNL     1      -4.444   3.736  26.397  0.00  0.00    +0.019 C 
ATOM     14  C   UNL     1      -4.507   4.834  25.320  0.00  0.00    +0.085 C 
ENDROOT
BRANCH   9  15
ATOM     15  C   UNL     1      -0.821   2.632  25.614  0.00  0.00    +0.089 C 
BRANCH  15   6
ATOM      6  N   UNL     1      -0.775   1.615  26.621  0.00  0.00    -0.301 NA
ATOM     18  C   UNL     1       0.005   2.049  27.794  0.00  0.00    +0.105 C 
BRANCH   6  17
ATOM     17  C   UNL     1      -0.208   0.359  26.099  0.00  0.00    +0.119 C 
BRANCH  17  20
ATOM     20  C   UNL     1      -1.282  -0.631  25.736  0.00  0.00    -0.033 A 
ATOM     22  C   UNL     1      -0.973  -1.734  24.938  0.00  0.00    +0.005 A 
ATOM     23  C   UNL     1      -2.586  -0.446  26.195  0.00  0.00    +0.005 A 
ATOM     26  C   UNL     1      -1.969  -2.651  24.600  0.00  0.00    +0.000 A 
ATOM     27  C   UNL     1      -3.581  -1.363  25.859  0.00  0.00    +0.000 A 
ATOM     28  C   UNL     1      -3.273  -2.466  25.061  0.00  0.00    +0.000 A 
ENDBRANCH  17  20
ENDBRANCH   6  17
ENDBRANCH  15   6
ENDBRANCH   9  15
BRANCH  10  16
ATOM     16  C   UNL     1      -3.528   2.808  22.282  0.00  0.00    +0.123 C 
BRANCH  16   7
ATOM      4  O   UNL     1      -2.535   0.145  22.695  0.00  0.00    -0.270 OA
ATOM      7  N   UNL     1      -2.156   2.413  22.389  0.00  0.00    -0.310 N 
ATOM     19  C   UNL     1      -1.761   1.093  22.590  0.00  0.00    +0.244 C 
ATOM     33  H   UNL     1      -1.466   3.157  22.372  0.00  0.00    +0.149 HD
BRANCH  19  21
ATOM     21  C   UNL     1      -0.299   0.852  22.705  0.00  0.00    +0.037 A 
ATOM     24  C   UNL     1       0.506   1.765  23.385  0.00  0.00    +0.013 A 
ATOM     25  C   UNL     1       0.268  -0.286  22.131  0.00  0.00    +0.013 A 
ATOM     29  C   UNL     1       1.879   1.540  23.494  0.00  0.00    +0.013 A 
ATOM     30  C   UNL     1       1.640  -0.511  22.239  0.00  0.00    +0.013 A 
ATOM     31  C   UNL     1       2.446   0.402  22.919  0.00  0.00    +0.055 A 
BRANCH  31  32
ATOM      1  F   UNL     1       4.586   0.305  21.855  0.00  0.00    -0.166 F 
ATOM      2  F   UNL     1       4.205  -1.100  23.470  0.00  0.00    -0.166 F 
ATOM      3  F   UNL     1       4.540   1.003  23.907  0.00  0.00    -0.166 F 
ATOM     32  C   UNL     1       3.913   0.161  23.035  0.00  0.00    +0.417 C 
ENDBRANCH  31  32
ENDBRANCH  19  21
ENDBRANCH  16   7
ENDBRANCH  10  16
TORSDOF 8
ENDMDL
MODEL 7
REMARK VINA RESULT:       2.6      4.745      7.404
REMARK  Name = 25388788
REMARK  9 active torsions:
REMARK  status: ('A' for Active; 'I' for Inactive)
REMARK    1  A    between atoms: N_6  and  C_15
REMARK    2  A    between atoms: N_6  and  C_17
REMARK    3  A    between atoms: N_6  and  C_18
REMARK    4  A    between atoms: N_7  and  C_16
REMARK    5  A    between atoms: C_9  and  C_15
REMARK    6  A    between atoms: C_10  and  C_16
REMARK    7  A    between atoms: C_17  and  C_20
REMARK    8  A    between atoms: C_19  and  C_21
REMARK    9  A    between atoms: C_31  and  C_32
REMARK                            x       y       z     vdW  Elec       q    Type
REMARK                         _______ _______ _______ _____ _____    ______ ____
ROOT
ATOM      5  N   UNL     1      -1.641  -2.204  26.214  0.00  0.00    -0.298 NA
ATOM      8  C   UNL     1      -0.002  -1.912  24.214  0.00  0.00    -0.003 C 
ATOM      9  C   UNL     1      -0.453  -0.539  24.763  0.00  0.00    +0.020 C 
ATOM     10  C   UNL     1      -2.112  -2.999  25.048  0.00  0.00    +0.074 C 
ATOM     11  C   UNL     1      -1.241  -2.727  23.801  0.00  0.00    +0.024 C 
ATOM     12  C   UNL     1      -1.529  -0.771  25.848  0.00  0.00    +0.089 C 
ATOM     13  C   UNL     1       0.670  -2.661  25.381  0.00  0.00    +0.019 C 
ATOM     14  C   UNL     1      -0.290  -2.692  26.584  0.00  0.00    +0.085 C 
ENDROOT
BRANCH   9  15
ATOM     15  C   UNL     1      -0.944   0.413  23.677  0.00  0.00    +0.089 C 
BRANCH  15   6
ATOM      6  N   UNL     1       0.137   1.184  23.141  0.00  0.00    -0.301 NA
ATOM     18  C   UNL     1       1.162   0.323  22.523  0.00  0.00    +0.105 C 
BRANCH   6  17
ATOM     17  C   UNL     1       0.769   2.024  24.173  0.00  0.00    +0.119 C 
BRANCH  17  20
ATOM     20  C   UNL     1      -0.183   3.060  24.710  0.00  0.00    -0.033 A 
ATOM     22  C   UNL     1      -0.970   2.773  25.826  0.00  0.00    +0.005 A 
ATOM     23  C   UNL     1      -0.278   4.307  24.092  0.00  0.00    +0.005 A 
ATOM     26  C   UNL     1      -1.852   3.733  26.323  0.00  0.00    +0.000 A 
ATOM     27  C   UNL     1      -1.159   5.266  24.589  0.00  0.00    +0.000 A 
ATOM     28  C   UNL     1      -1.946   4.979  25.705  0.00  0.00    +0.000 A 
ENDBRANCH  17  20
ENDBRANCH   6  17
ENDBRANCH  15   6
ENDBRANCH   9  15
BRANCH  10  16
ATOM     16  C   UNL     1      -3.600  -2.786  24.759  0.00  0.00    +0.123 C 
BRANCH  16   7
ATOM      4  O   UNL     1      -3.956  -0.784  22.731  0.00  0.00    -0.270 OA
ATOM      7  N   UNL     1      -3.968  -1.418  24.963  0.00  0.00    -0.310 N 
ATOM     19  C   UNL     1      -4.120  -0.511  23.917  0.00  0.00    +0.244 C 
ATOM     33  H   UNL     1      -4.059  -1.110  25.925  0.00  0.00    +0.149 HD
BRANCH  19  21
ATOM     21  C   UNL     1      -4.481   0.879  24.297  0.00  0.00    +0.037 A 
ATOM     24  C   UNL     1      -5.365   1.106  25.352  0.00  0.00    +0.013 A 
ATOM     25  C   UNL     1      -3.937   1.958  23.600  0.00  0.00    +0.013 A 
ATOM     29  C   UNL     1      -5.706   2.411  25.710  0.00  0.00    +0.013 A 
ATOM     30  C   UNL     1      -4.277   3.262  23.957  0.00  0.00    +0.013 A 
ATOM     31  C   UNL     1      -5.162   3.489  25.011  0.00  0.00    +0.055 A 
BRANCH  31  32
ATOM      1  F   UNL     1      -4.785   5.377  26.432  0.00  0.00    -0.166 F 
ATOM      2  F   UNL     1      -6.826   5.000  25.785  0.00  0.00    -0.166 F 
ATOM      3  F   UNL     1      -5.364   5.788  24.383  0.00  0.00    -0.166 F 
ATOM     32  C   UNL     1      -5.524   4.885  25.394  0.00  0.00    +0.417 C 
ENDBRANCH  31  32
ENDBRANCH  19  21
ENDBRANCH  16   7
ENDBRANCH  10  16
TORSDOF 8
ENDMDL
MODEL 8
REMARK VINA RESULT:       2.7      3.708      7.105
REMARK  Name = 25388788
REMARK  9 active torsions:
REMARK  status: ('A' for Active; 'I' for Inactive)
REMARK    1  A    between atoms: N_6  and  C_15
REMARK    2  A    between atoms: N_6  and  C_17
REMARK    3  A    between atoms: N_6  and  C_18
REMARK    4  A    between atoms: N_7  and  C_16
REMARK    5  A    between atoms: C_9  and  C_15
REMARK    6  A    between atoms: C_10  and  C_16
REMARK    7  A    between atoms: C_17  and  C_20
REMARK    8  A    between atoms: C_19  and  C_21
REMARK    9  A    between atoms: C_31  and  C_32
REMARK                            x       y       z     vdW  Elec       q    Type
REMARK                         _______ _______ _______ _____ _____    ______ ____
ROOT
ATOM      5  N   UNL     1      -3.613   4.681  23.813  0.00  0.00    -0.298 NA
ATOM      8  C   UNL     1      -2.218   4.913  25.998  0.00  0.00    -0.003 C 
ATOM      9  C   UNL     1      -1.698   3.742  25.133  0.00  0.00    +0.020 C 
ATOM     10  C   UNL     1      -4.517   4.704  24.995  0.00  0.00    +0.074 C 
ATOM     11  C   UNL     1      -3.710   4.691  26.312  0.00  0.00    +0.024 C 
ATOM     12  C   UNL     1      -2.647   3.561  23.926  0.00  0.00    +0.089 C 
ATOM     13  C   UNL     1      -2.119   6.186  25.135  0.00  0.00    +0.019 C 
ATOM     14  C   UNL     1      -2.847   5.951  23.799  0.00  0.00    +0.085 C 
ENDROOT
BRANCH   9  15
ATOM     15  C   UNL     1      -1.529   2.444  25.916  0.00  0.00    +0.089 C 
BRANCH  15   6
ATOM      6  N   UNL     1      -0.156   2.037  25.947  0.00  0.00    -0.301 NA
ATOM     18  C   UNL     1       0.519   2.504  27.171  0.00  0.00    +0.105 C 
BRANCH   6  17
ATOM     17  C   UNL     1       0.581   2.527  24.769  0.00  0.00    +0.119 C 
BRANCH  17  20
ATOM     20  C   UNL     1       0.934   1.409  23.825  0.00  0.00    -0.033 A 
ATOM     22  C   UNL     1       2.224   1.318  23.302  0.00  0.00    +0.005 A 
ATOM     23  C   UNL     1      -0.030   0.464  23.472  0.00  0.00    +0.005 A 
ATOM     26  C   UNL     1       2.550   0.282  22.426  0.00  0.00    +0.000 A 
ATOM     27  C   UNL     1       0.297  -0.572  22.598  0.00  0.00    +0.000 A 
ATOM     28  C   UNL     1       1.587  -0.663  22.075  0.00  0.00    +0.000 A 
ENDBRANCH  17  20
ENDBRANCH   6  17
ENDBRANCH  15   6
ENDBRANCH   9  15
BRANCH  10  16
ATOM     16  C   UNL     1      -5.558   3.584  24.955  0.00  0.00    +0.123 C 
BRANCH  16   7
ATOM      4  O   UNL     1      -5.869   1.190  26.512  0.00  0.00    -0.270 OA
ATOM      7  N   UNL     1      -4.937   2.318  24.711  0.00  0.00    -0.310 N 
ATOM     19  C   UNL     1      -5.144   1.203  25.521  0.00  0.00    +0.244 C 
ATOM     33  H   UNL     1      -4.276   2.276  23.942  0.00  0.00    +0.149 HD
BRANCH  19  21
ATOM     21  C   UNL     1      -4.404  -0.030  25.147  0.00  0.00    +0.037 A 
ATOM     24  C   UNL     1      -3.349  -0.478  25.941  0.00  0.00    +0.013 A 
ATOM     25  C   UNL     1      -4.764  -0.738  24.000  0.00  0.00    +0.013 A 
ATOM     29  C   UNL     1      -2.654  -1.636  25.590  0.00  0.00    +0.013 A 
ATOM     30  C   UNL     1      -4.068  -1.895  23.649  0.00  0.00    +0.013 A 
ATOM     31  C   UNL     1      -3.014  -2.344  24.443  0.00  0.00    +0.055 A 
BRANCH  31  32
ATOM      1  F   UNL     1      -3.082  -4.608  23.674  0.00  0.00    -0.166 F 
ATOM      2  F   UNL     1      -1.526  -4.080  25.097  0.00  0.00    -0.166 F 
ATOM      3  F   UNL     1      -1.397  -3.404  23.035  0.00  0.00    -0.166 F 
ATOM     32  C   UNL     1      -2.271  -3.582  24.068  0.00  0.00    +0.417 C 
ENDBRANCH  31  32
ENDBRANCH  19  21
ENDBRANCH  16   7
ENDBRANCH  10  16
TORSDOF 8
ENDMDL
