MODEL 1
REMARK VINA RESULT:      -0.8      0.000      0.000
REMARK  Name = 45360931
REMARK  10 active torsions:
REMARK  status: ('A' for Active; 'I' for Inactive)
REMARK    1  A    between atoms: O_4  and  C_31
REMARK    2  A    between atoms: O_4  and  C_32
REMARK    3  A    between atoms: N_5  and  C_16
REMARK    4  A    between atoms: N_6  and  C_18
REMARK    5  A    between atoms: N_8  and  C_25
REMARK    6  A    between atoms: C_13  and  C_17
REMARK    7  A    between atoms: C_16  and  C_20
REMARK    8  A    between atoms: C_17  and  C_19
REMARK    9  A    between atoms: C_19  and  C_21
REMARK   10  A    between atoms: C_25  and  C_26
REMARK                            x       y       z     vdW  Elec       q    Type
REMARK                         _______ _______ _______ _____ _____    ______ ____
ROOT
ATOM      2  O   UNL     1      -6.156  -7.115  11.054  0.00  0.00    -0.274 OA
ATOM      5  N   UNL     1      -6.726  -8.978   9.185  0.00  0.00    -0.285 NA
ATOM      6  N   UNL     1      -3.663 -10.071  10.864  0.00  0.00    -0.296 NA
ATOM      7  N   UNL     1      -5.429  -8.615  12.621  0.00  0.00    -0.312 N 
ATOM      9  C   UNL     1      -4.904 -10.302  10.092  0.00  0.00    +0.084 C 
ATOM     10  C   UNL     1      -6.171  -9.474  10.458  0.00  0.00    +0.161 C 
ATOM     11  C   UNL     1      -4.763 -10.020   8.584  0.00  0.00    +0.036 C 
ATOM     12  C   UNL     1      -6.193  -9.828   8.127  0.00  0.00    +0.087 C 
ATOM     13  C   UNL     1      -3.762 -10.421  12.309  0.00  0.00    +0.074 C 
ATOM     14  C   UNL     1      -5.918  -8.278  11.374  0.00  0.00    +0.232 C 
ATOM     15  C   UNL     1      -5.063  -9.965  12.998  0.00  0.00    +0.123 C 
ATOM     18  C   UNL     1      -2.524 -10.770  10.247  0.00  0.00    +0.105 C 
ATOM     33  H   UNL     1      -5.261  -7.867  13.286  0.00  0.00    +0.149 HD
ENDROOT
BRANCH   5  16
ATOM     16  C   UNL     1      -8.182  -8.930   9.169  0.00  0.00    +0.127 C 
BRANCH  16  20
ATOM      1  S   UNL     1     -10.213  -8.675  11.047  0.00  0.00    -0.100 S 
ATOM     20  C   UNL     1      -8.774  -9.400  10.467  0.00  0.00    +0.004 A 
ATOM     22  C   UNL     1      -8.311 -10.380  11.315  0.00  0.00    +0.012 A 
ATOM     23  C   UNL     1      -9.149 -10.540  12.457  0.00  0.00    +0.008 A 
ATOM     24  C   UNL     1     -10.219  -9.674  12.437  0.00  0.00    +0.045 A 
ENDBRANCH  16  20
ENDBRANCH   5  16
BRANCH  13  17
ATOM     17  C   UNL     1      -2.582  -9.810  13.094  0.00  0.00    +0.029 C 
BRANCH  17  19
ATOM     19  C   UNL     1      -2.102 -10.767  14.170  0.00  0.00    +0.097 C 
BRANCH  19  21
ATOM      3  O   UNL     1      -1.817  -9.604  16.274  0.00  0.00    -0.276 OA
ATOM      8  N   UNL     1      -3.782 -10.779  15.890  0.00  0.00    -0.311 N 
ATOM     21  C   UNL     1      -2.521 -10.307  15.554  0.00  0.00    +0.213 C 
ATOM     34  H   UNL     1      -4.290 -11.377  15.246  0.00  0.00    +0.149 HD
BRANCH   8  25
ATOM     25  C   UNL     1      -4.404 -10.480  17.158  0.00  0.00    +0.139 C 
BRANCH  25  26
ATOM     26  C   UNL     1      -5.866 -10.171  17.008  0.00  0.00    -0.030 A 
ATOM     27  C   UNL     1      -6.364  -9.731  15.782  0.00  0.00    +0.009 A 
ATOM     28  C   UNL     1      -6.725 -10.324  18.097  0.00  0.00    +0.009 A 
ATOM     29  C   UNL     1      -7.723  -9.444  15.644  0.00  0.00    +0.046 A 
ATOM     30  C   UNL     1      -8.084 -10.037  17.959  0.00  0.00    +0.046 A 
ATOM     31  C   UNL     1      -8.582  -9.597  16.732  0.00  0.00    +0.120 A 
BRANCH  31   4
ATOM      4  O   UNL     1      -9.907  -9.318  16.598  0.00  0.00    -0.495 OA
ATOM     32  C   UNL     1     -10.257  -8.199  15.785  0.00  0.00    +0.277 C 
ENDBRANCH  31   4
ENDBRANCH  25  26
ENDBRANCH   8  25
ENDBRANCH  19  21
ENDBRANCH  17  19
ENDBRANCH  13  17
TORSDOF 8
ENDMDL
MODEL 2
REMARK VINA RESULT:       0.5     14.723     17.436
REMARK  Name = 45360931
REMARK  10 active torsions:
REMARK  status: ('A' for Active; 'I' for Inactive)
REMARK    1  A    between atoms: O_4  and  C_31
REMARK    2  A    between atoms: O_4  and  C_32
REMARK    3  A    between atoms: N_5  and  C_16
REMARK    4  A    between atoms: N_6  and  C_18
REMARK    5  A    between atoms: N_8  and  C_25
REMARK    6  A    between atoms: C_13  and  C_17
REMARK    7  A    between atoms: C_16  and  C_20
REMARK    8  A    between atoms: C_17  and  C_19
REMARK    9  A    between atoms: C_19  and  C_21
REMARK   10  A    between atoms: C_25  and  C_26
REMARK                            x       y       z     vdW  Elec       q    Type
REMARK                         _______ _______ _______ _____ _____    ______ ____
ROOT
ATOM      2  O   UNL     1      -0.920  -1.391  22.086  0.00  0.00    -0.274 OA
ATOM      5  N   UNL     1       1.070   0.303  22.766  0.00  0.00    -0.285 NA
ATOM      6  N   UNL     1      -1.235   0.189  25.607  0.00  0.00    -0.296 NA
ATOM      7  N   UNL     1      -1.123  -2.311  24.172  0.00  0.00    -0.312 N 
ATOM      9  C   UNL     1       0.090   0.406  24.985  0.00  0.00    +0.084 C 
ATOM     10  C   UNL     1       0.540  -0.554  23.844  0.00  0.00    +0.161 C 
ATOM     11  C   UNL     1       0.252   1.787  24.323  0.00  0.00    +0.036 C 
ATOM     12  C   UNL     1       1.409   1.587  23.368  0.00  0.00    +0.087 C 
ATOM     13  C   UNL     1      -1.374  -1.110  26.323  0.00  0.00    +0.074 C 
ATOM     14  C   UNL     1      -0.567  -1.431  23.263  0.00  0.00    +0.232 C 
ATOM     15  C   UNL     1      -0.787  -2.326  25.580  0.00  0.00    +0.123 C 
ATOM     18  C   UNL     1      -1.582   1.305  26.502  0.00  0.00    +0.105 C 
ATOM     33  H   UNL     1      -1.850  -2.940  23.843  0.00  0.00    +0.149 HD
ENDROOT
BRANCH   5  16
ATOM     16  C   UNL     1       2.201  -0.288  22.062  0.00  0.00    +0.127 C 
BRANCH  16  20
ATOM      1  S   UNL     1       4.053  -1.455  23.771  0.00  0.00    -0.100 S 
ATOM     20  C   UNL     1       3.481  -0.142  22.832  0.00  0.00    +0.004 A 
ATOM     22  C   UNL     1       4.317   0.949  22.906  0.00  0.00    +0.012 A 
ATOM     23  C   UNL     1       5.443   0.705  23.744  0.00  0.00    +0.008 A 
ATOM     24  C   UNL     1       5.424  -0.564  24.280  0.00  0.00    +0.045 A 
ENDBRANCH  16  20
ENDBRANCH   5  16
BRANCH  13  17
ATOM     17  C   UNL     1      -2.861  -1.413  26.606  0.00  0.00    +0.029 C 
BRANCH  17  19
ATOM     19  C   UNL     1      -3.576  -1.823  25.332  0.00  0.00    +0.097 C 
BRANCH  19  21
ATOM      3  O   UNL     1      -3.813  -0.428  23.368  0.00  0.00    -0.276 OA
ATOM      8  N   UNL     1      -4.833   0.227  25.348  0.00  0.00    -0.311 N 
ATOM     21  C   UNL     1      -4.069  -0.617  24.554  0.00  0.00    +0.213 C 
ATOM     34  H   UNL     1      -4.977   0.010  26.330  0.00  0.00    +0.149 HD
BRANCH   8  25
ATOM     25  C   UNL     1      -5.416   1.446  24.839  0.00  0.00    +0.139 C 
BRANCH  25  26
ATOM     26  C   UNL     1      -4.456   2.598  24.904  0.00  0.00    -0.030 A 
ATOM     27  C   UNL     1      -4.367   3.368  26.063  0.00  0.00    +0.009 A 
ATOM     28  C   UNL     1      -3.652   2.898  23.803  0.00  0.00    +0.009 A 
ATOM     29  C   UNL     1      -3.474   4.439  26.123  0.00  0.00    +0.046 A 
ATOM     30  C   UNL     1      -2.759   3.968  23.863  0.00  0.00    +0.046 A 
ATOM     31  C   UNL     1      -2.671   4.739  25.023  0.00  0.00    +0.120 A 
BRANCH  31   4
ATOM      4  O   UNL     1      -1.800   5.782  25.080  0.00  0.00    -0.495 OA
ATOM     32  C   UNL     1      -0.450   5.523  24.698  0.00  0.00    +0.277 C 
ENDBRANCH  31   4
ENDBRANCH  25  26
ENDBRANCH   8  25
ENDBRANCH  19  21
ENDBRANCH  17  19
ENDBRANCH  13  17
TORSDOF 8
ENDMDL
MODEL 3
REMARK VINA RESULT:       0.7     14.464     17.142
REMARK  Name = 45360931
REMARK  10 active torsions:
REMARK  status: ('A' for Active; 'I' for Inactive)
REMARK    1  A    between atoms: O_4  and  C_31
REMARK    2  A    between atoms: O_4  and  C_32
REMARK    3  A    between atoms: N_5  and  C_16
REMARK    4  A    between atoms: N_6  and  C_18
REMARK    5  A    between atoms: N_8  and  C_25
REMARK    6  A    between atoms: C_13  and  C_17
REMARK    7  A    between atoms: C_16  and  C_20
REMARK    8  A    between atoms: C_17  and  C_19
REMARK    9  A    between atoms: C_19  and  C_21
REMARK   10  A    between atoms: C_25  and  C_26
REMARK                            x       y       z     vdW  Elec       q    Type
REMARK                         _______ _______ _______ _____ _____    ______ ____
ROOT
ATOM      2  O   UNL     1      -1.170   0.667  26.485  0.00  0.00    -0.274 OA
ATOM      5  N   UNL     1      -0.756   0.036  23.892  0.00  0.00    -0.285 NA
ATOM      6  N   UNL     1      -2.367   3.322  23.935  0.00  0.00    -0.296 NA
ATOM      7  N   UNL     1      -0.680   2.888  26.234  0.00  0.00    -0.312 N 
ATOM      9  C   UNL     1      -1.518   2.272  23.330  0.00  0.00    +0.084 C 
ATOM     10  C   UNL     1      -0.575   1.453  24.261  0.00  0.00    +0.161 C 
ATOM     11  C   UNL     1      -2.312   1.159  22.621  0.00  0.00    +0.036 C 
ATOM     12  C   UNL     1      -1.325   0.012  22.551  0.00  0.00    +0.087 C 
ATOM     13  C   UNL     1      -1.609   4.448  24.550  0.00  0.00    +0.074 C 
ATOM     14  C   UNL     1      -0.852   1.603  25.755  0.00  0.00    +0.232 C 
ATOM     15  C   UNL     1      -0.386   4.025  25.387  0.00  0.00    +0.123 C 
ATOM     18  C   UNL     1      -3.340   3.837  22.957  0.00  0.00    +0.105 C 
ATOM     33  H   UNL     1      -0.826   3.051  27.226  0.00  0.00    +0.149 HD
ENDROOT
BRANCH   5  16
ATOM     16  C   UNL     1       0.471  -0.745  23.982  0.00  0.00    +0.127 C 
BRANCH  16  20
ATOM      1  S   UNL     1       1.981  -0.628  21.653  0.00  0.00    -0.100 S 
ATOM     20  C   UNL     1       1.604  -0.099  23.238  0.00  0.00    +0.004 A 
ATOM     22  C   UNL     1       2.438   0.914  23.656  0.00  0.00    +0.012 A 
ATOM     23  C   UNL     1       3.399   1.260  22.664  0.00  0.00    +0.008 A 
ATOM     24  C   UNL     1       3.264   0.499  21.525  0.00  0.00    +0.045 A 
ENDBRANCH  16  20
ENDBRANCH   5  16
BRANCH  13  17
ATOM     17  C   UNL     1      -2.531   5.282  25.464  0.00  0.00    +0.029 C 
BRANCH  17  19
ATOM     19  C   UNL     1      -3.155   4.409  26.537  0.00  0.00    +0.097 C 
BRANCH  19  21
ATOM      3  O   UNL     1      -5.430   4.233  25.730  0.00  0.00    -0.276 OA
ATOM      8  N   UNL     1      -4.147   2.308  25.919  0.00  0.00    -0.311 N 
ATOM     21  C   UNL     1      -4.376   3.673  26.019  0.00  0.00    +0.213 C 
ATOM     34  H   UNL     1      -3.253   1.920  26.204  0.00  0.00    +0.149 HD
BRANCH   8  25
ATOM     25  C   UNL     1      -5.158   1.389  25.452  0.00  0.00    +0.139 C 
BRANCH  25  26
ATOM     26  C   UNL     1      -4.583   0.042  25.122  0.00  0.00    -0.030 A 
ATOM     27  C   UNL     1      -4.866  -0.557  23.894  0.00  0.00    +0.009 A 
ATOM     28  C   UNL     1      -3.766  -0.612  26.045  0.00  0.00    +0.009 A 
ATOM     29  C   UNL     1      -4.331  -1.809  23.589  0.00  0.00    +0.046 A 
ATOM     30  C   UNL     1      -3.231  -1.863  25.740  0.00  0.00    +0.046 A 
ATOM     31  C   UNL     1      -3.514  -2.462  24.512  0.00  0.00    +0.120 A 
BRANCH  31   4
ATOM      4  O   UNL     1      -2.991  -3.683  24.214  0.00  0.00    -0.495 OA
ATOM     32  C   UNL     1      -1.747  -3.704  23.516  0.00  0.00    +0.277 C 
ENDBRANCH  31   4
ENDBRANCH  25  26
ENDBRANCH   8  25
ENDBRANCH  19  21
ENDBRANCH  17  19
ENDBRANCH  13  17
TORSDOF 8
ENDMDL
MODEL 4
REMARK VINA RESULT:       1.1     14.676     17.508
REMARK  Name = 45360931
REMARK  10 active torsions:
REMARK  status: ('A' for Active; 'I' for Inactive)
REMARK    1  A    between atoms: O_4  and  C_31
REMARK    2  A    between atoms: O_4  and  C_32
REMARK    3  A    between atoms: N_5  and  C_16
REMARK    4  A    between atoms: N_6  and  C_18
REMARK    5  A    between atoms: N_8  and  C_25
REMARK    6  A    between atoms: C_13  and  C_17
REMARK    7  A    between atoms: C_16  and  C_20
REMARK    8  A    between atoms: C_17  and  C_19
REMARK    9  A    between atoms: C_19  and  C_21
REMARK   10  A    between atoms: C_25  and  C_26
REMARK                            x       y       z     vdW  Elec       q    Type
REMARK                         _______ _______ _______ _____ _____    ______ ____
ROOT
ATOM      2  O   UNL     1       0.830   2.220  26.230  0.00  0.00    -0.274 OA
ATOM      5  N   UNL     1       0.943   1.393  23.662  0.00  0.00    -0.285 NA
ATOM      6  N   UNL     1      -2.461   2.612  24.228  0.00  0.00    -0.296 NA
ATOM      7  N   UNL     1      -0.501   4.031  25.801  0.00  0.00    -0.312 N 
ATOM      9  C   UNL     1      -1.293   2.294  23.377  0.00  0.00    +0.084 C 
ATOM     10  C   UNL     1       0.132   2.595  23.929  0.00  0.00    +0.161 C 
ATOM     11  C   UNL     1      -1.182   0.805  23.001  0.00  0.00    +0.036 C 
ATOM     12  C   UNL     1       0.271   0.650  22.603  0.00  0.00    +0.087 C 
ATOM     13  C   UNL     1      -2.627   4.062  24.530  0.00  0.00    +0.074 C 
ATOM     14  C   UNL     1       0.194   2.898  25.425  0.00  0.00    +0.232 C 
ATOM     15  C   UNL     1      -1.325   4.802  24.892  0.00  0.00    +0.123 C 
ATOM     18  C   UNL     1      -3.698   2.067  23.646  0.00  0.00    +0.105 C 
ATOM     33  H   UNL     1      -0.481   4.301  26.779  0.00  0.00    +0.149 HD
ENDROOT
BRANCH   5  16
ATOM     16  C   UNL     1       2.329   1.694  23.326  0.00  0.00    +0.127 C 
BRANCH  16  20
ATOM      1  S   UNL     1       4.913   0.705  23.566  0.00  0.00    -0.100 S 
ATOM     20  C   UNL     1       3.217   0.493  23.471  0.00  0.00    +0.004 A 
ATOM     22  C   UNL     1       2.858  -0.835  23.544  0.00  0.00    +0.012 A 
ATOM     23  C   UNL     1       3.990  -1.688  23.680  0.00  0.00    +0.008 A 
ATOM     24  C   UNL     1       5.171  -0.981  23.704  0.00  0.00    +0.045 A 
ENDBRANCH  16  20
ENDBRANCH   5  16
BRANCH  13  17
ATOM     17  C   UNL     1      -3.614   4.259  25.699  0.00  0.00    +0.029 C 
BRANCH  17  19
ATOM     19  C   UNL     1      -5.037   3.976  25.252  0.00  0.00    +0.097 C 
BRANCH  19  21
ATOM      3  O   UNL     1      -6.033   2.413  26.809  0.00  0.00    -0.276 OA
ATOM      8  N   UNL     1      -5.269   1.634  24.760  0.00  0.00    -0.311 N 
ATOM     21  C   UNL     1      -5.508   2.611  25.717  0.00  0.00    +0.213 C 
ATOM     34  H   UNL     1      -4.806   1.878  23.890  0.00  0.00    +0.149 HD
BRANCH   8  25
ATOM     25  C   UNL     1      -5.626   0.250  24.965  0.00  0.00    +0.139 C 
BRANCH  25  26
ATOM     26  C   UNL     1      -4.423  -0.647  24.958  0.00  0.00    -0.030 A 
ATOM     27  C   UNL     1      -4.332  -1.686  24.033  0.00  0.00    +0.009 A 
ATOM     28  C   UNL     1      -3.395  -0.441  25.880  0.00  0.00    +0.009 A 
ATOM     29  C   UNL     1      -3.213  -2.519  24.028  0.00  0.00    +0.046 A 
ATOM     30  C   UNL     1      -2.276  -1.274  25.875  0.00  0.00    +0.046 A 
ATOM     31  C   UNL     1      -2.185  -2.314  24.949  0.00  0.00    +0.120 A 
BRANCH  31   4
ATOM      4  O   UNL     1      -1.093  -3.126  24.944  0.00  0.00    -0.495 OA
ATOM     32  C   UNL     1       0.143  -2.555  25.369  0.00  0.00    +0.277 C 
ENDBRANCH  31   4
ENDBRANCH  25  26
ENDBRANCH   8  25
ENDBRANCH  19  21
ENDBRANCH  17  19
ENDBRANCH  13  17
TORSDOF 8
ENDMDL
MODEL 5
REMARK VINA RESULT:       1.7     14.906     17.774
REMARK  Name = 45360931
REMARK  10 active torsions:
REMARK  status: ('A' for Active; 'I' for Inactive)
REMARK    1  A    between atoms: O_4  and  C_31
REMARK    2  A    between atoms: O_4  and  C_32
REMARK    3  A    between atoms: N_5  and  C_16
REMARK    4  A    between atoms: N_6  and  C_18
REMARK    5  A    between atoms: N_8  and  C_25
REMARK    6  A    between atoms: C_13  and  C_17
REMARK    7  A    between atoms: C_16  and  C_20
REMARK    8  A    between atoms: C_17  and  C_19
REMARK    9  A    between atoms: C_19  and  C_21
REMARK   10  A    between atoms: C_25  and  C_26
REMARK                            x       y       z     vdW  Elec       q    Type
REMARK                         _______ _______ _______ _____ _____    ______ ____
ROOT
ATOM      2  O   UNL     1      -1.065   1.943  23.430  0.00  0.00    -0.274 OA
ATOM      5  N   UNL     1       0.274  -0.377  23.767  0.00  0.00    -0.285 NA
ATOM      6  N   UNL     1      -3.022  -0.830  25.291  0.00  0.00    -0.296 NA
ATOM      7  N   UNL     1      -3.087   0.953  23.025  0.00  0.00    -0.312 N 
ATOM      9  C   UNL     1      -1.781  -1.319  24.651  0.00  0.00    +0.084 C 
ATOM     10  C   UNL     1      -1.170  -0.487  23.485  0.00  0.00    +0.161 C 
ATOM     11  C   UNL     1      -0.587  -1.444  25.616  0.00  0.00    +0.036 C 
ATOM     12  C   UNL     1       0.613  -1.452  24.692  0.00  0.00    +0.087 C 
ATOM     13  C   UNL     1      -4.206  -0.786  24.387  0.00  0.00    +0.074 C 
ATOM     14  C   UNL     1      -1.740   0.921  23.329  0.00  0.00    +0.232 C 
ATOM     15  C   UNL     1      -3.925  -0.227  22.979  0.00  0.00    +0.123 C 
ATOM     18  C   UNL     1      -3.332  -1.612  26.500  0.00  0.00    +0.105 C 
ATOM     33  H   UNL     1      -3.523   1.859  22.884  0.00  0.00    +0.149 HD
ENDROOT
BRANCH   5  16
ATOM     16  C   UNL     1       1.100  -0.407  22.566  0.00  0.00    +0.127 C 
BRANCH  16  20
ATOM      1  S   UNL     1       3.532  -1.329  23.541  0.00  0.00    -0.100 S 
ATOM     20  C   UNL     1       2.540  -0.107  22.867  0.00  0.00    +0.004 A 
ATOM     22  C   UNL     1       3.229   1.070  22.676  0.00  0.00    +0.012 A 
ATOM     23  C   UNL     1       4.589   0.967  23.087  0.00  0.00    +0.008 A 
ATOM     24  C   UNL     1       4.887  -0.284  23.578  0.00  0.00    +0.045 A 
ENDBRANCH  16  20
ENDBRANCH   5  16
BRANCH  13  17
ATOM     17  C   UNL     1      -5.328   0.069  25.011  0.00  0.00    +0.029 C 
BRANCH  17  19
ATOM     19  C   UNL     1      -5.492   1.374  24.254  0.00  0.00    +0.097 C 
BRANCH  19  21
ATOM      3  O   UNL     1      -5.209   2.862  26.142  0.00  0.00    -0.276 OA
ATOM      8  N   UNL     1      -3.899   3.175  24.252  0.00  0.00    -0.311 N 
ATOM     21  C   UNL     1      -4.874   2.538  25.007  0.00  0.00    +0.213 C 
ATOM     34  H   UNL     1      -3.699   2.859  23.308  0.00  0.00    +0.149 HD
BRANCH   8  25
ATOM     25  C   UNL     1      -3.164   4.315  24.747  0.00  0.00    +0.139 C 
BRANCH  25  26
ATOM     26  C   UNL     1      -1.890   3.909  25.430  0.00  0.00    -0.030 A 
ATOM     27  C   UNL     1      -0.686   4.522  25.084  0.00  0.00    +0.009 A 
ATOM     28  C   UNL     1      -1.912   2.917  26.411  0.00  0.00    +0.009 A 
ATOM     29  C   UNL     1       0.497   4.143  25.720  0.00  0.00    +0.046 A 
ATOM     30  C   UNL     1      -0.729   2.538  27.047  0.00  0.00    +0.046 A 
ATOM     31  C   UNL     1       0.475   3.151  26.700  0.00  0.00    +0.120 A 
BRANCH  31   4
ATOM      4  O   UNL     1       1.629   2.782  27.321  0.00  0.00    -0.495 OA
ATOM     32  C   UNL     1       1.588   2.644  28.740  0.00  0.00    +0.277 C 
ENDBRANCH  31   4
ENDBRANCH  25  26
ENDBRANCH   8  25
ENDBRANCH  19  21
ENDBRANCH  17  19
ENDBRANCH  13  17
TORSDOF 8
ENDMDL
MODEL 6
REMARK VINA RESULT:       1.9     15.721     18.552
REMARK  Name = 45360931
REMARK  10 active torsions:
REMARK  status: ('A' for Active; 'I' for Inactive)
REMARK    1  A    between atoms: O_4  and  C_31
REMARK    2  A    between atoms: O_4  and  C_32
REMARK    3  A    between atoms: N_5  and  C_16
REMARK    4  A    between atoms: N_6  and  C_18
REMARK    5  A    between atoms: N_8  and  C_25
REMARK    6  A    between atoms: C_13  and  C_17
REMARK    7  A    between atoms: C_16  and  C_20
REMARK    8  A    between atoms: C_17  and  C_19
REMARK    9  A    between atoms: C_19  and  C_21
REMARK   10  A    between atoms: C_25  and  C_26
REMARK                            x       y       z     vdW  Elec       q    Type
REMARK                         _______ _______ _______ _____ _____    ______ ____
ROOT
ATOM      2  O   UNL     1      -1.750   3.118  27.437  0.00  0.00    -0.274 OA
ATOM      5  N   UNL     1       0.306   2.419  25.832  0.00  0.00    -0.285 NA
ATOM      6  N   UNL     1      -2.641   2.748  23.687  0.00  0.00    -0.296 NA
ATOM      7  N   UNL     1      -2.700   4.557  25.933  0.00  0.00    -0.312 N 
ATOM      9  C   UNL     1      -1.184   2.751  23.944  0.00  0.00    +0.084 C 
ATOM     10  C   UNL     1      -0.666   3.377  25.273  0.00  0.00    +0.161 C 
ATOM     11  C   UNL     1      -0.553   1.347  23.986  0.00  0.00    +0.036 C 
ATOM     12  C   UNL     1       0.745   1.565  24.735  0.00  0.00    +0.087 C 
ATOM     13  C   UNL     1      -3.247   4.103  23.561  0.00  0.00    +0.074 C 
ATOM     14  C   UNL     1      -1.742   3.642  26.324  0.00  0.00    +0.232 C 
ATOM     15  C   UNL     1      -2.764   5.129  24.603  0.00  0.00    +0.123 C 
ATOM     18  C   UNL     1      -2.962   1.932  22.503  0.00  0.00    +0.105 C 
ATOM     33  H   UNL     1      -3.432   4.796  26.595  0.00  0.00    +0.149 HD
ENDROOT
BRANCH   5  16
ATOM     16  C   UNL     1       1.426   3.062  26.508  0.00  0.00    +0.127 C 
BRANCH  16  20
ATOM      1  S   UNL     1       2.979   2.701  28.783  0.00  0.00    -0.100 S 
ATOM     20  C   UNL     1       1.472   2.719  27.969  0.00  0.00    +0.004 A 
ATOM     22  C   UNL     1       0.428   2.397  28.807  0.00  0.00    +0.012 A 
ATOM     23  C   UNL     1       0.871   2.132  30.135  0.00  0.00    +0.008 A 
ATOM     24  C   UNL     1       2.236   2.261  30.261  0.00  0.00    +0.045 A 
ENDBRANCH  16  20
ENDBRANCH   5  16
BRANCH  13  17
ATOM     17  C   UNL     1      -4.784   4.017  23.671  0.00  0.00    +0.029 C 
BRANCH  17  19
ATOM     19  C   UNL     1      -5.219   4.026  25.125  0.00  0.00    +0.097 C 
BRANCH  19  21
ATOM      3  O   UNL     1      -6.095   2.417  26.707  0.00  0.00    -0.276 OA
ATOM      8  N   UNL     1      -5.371   1.678  24.628  0.00  0.00    -0.311 N 
ATOM     21  C   UNL     1      -5.617   2.640  25.598  0.00  0.00    +0.213 C 
ATOM     34  H   UNL     1      -4.949   1.944  23.744  0.00  0.00    +0.149 HD
BRANCH   8  25
ATOM     25  C   UNL     1      -5.664   0.280  24.838  0.00  0.00    +0.139 C 
BRANCH  25  26
ATOM     26  C   UNL     1      -4.418  -0.557  24.861  0.00  0.00    -0.030 A 
ATOM     27  C   UNL     1      -3.350  -0.198  25.682  0.00  0.00    +0.009 A 
ATOM     28  C   UNL     1      -4.329  -1.695  24.058  0.00  0.00    +0.009 A 
ATOM     29  C   UNL     1      -2.192  -0.977  25.702  0.00  0.00    +0.046 A 
ATOM     30  C   UNL     1      -3.172  -2.474  24.078  0.00  0.00    +0.046 A 
ATOM     31  C   UNL     1      -2.103  -2.114  24.900  0.00  0.00    +0.120 A 
BRANCH  31   4
ATOM      4  O   UNL     1      -0.975  -2.875  24.919  0.00  0.00    -0.495 OA
ATOM     32  C   UNL     1       0.234  -2.233  25.320  0.00  0.00    +0.277 C 
ENDBRANCH  31   4
ENDBRANCH  25  26
ENDBRANCH   8  25
ENDBRANCH  19  21
ENDBRANCH  17  19
ENDBRANCH  13  17
TORSDOF 8
ENDMDL
MODEL 7
REMARK VINA RESULT:       1.9     15.223     17.701
REMARK  Name = 45360931
REMARK  10 active torsions:
REMARK  status: ('A' for Active; 'I' for Inactive)
REMARK    1  A    between atoms: O_4  and  C_31
REMARK    2  A    between atoms: O_4  and  C_32
REMARK    3  A    between atoms: N_5  and  C_16
REMARK    4  A    between atoms: N_6  and  C_18
REMARK    5  A    between atoms: N_8  and  C_25
REMARK    6  A    between atoms: C_13  and  C_17
REMARK    7  A    between atoms: C_16  and  C_20
REMARK    8  A    between atoms: C_17  and  C_19
REMARK    9  A    between atoms: C_19  and  C_21
REMARK   10  A    between atoms: C_25  and  C_26
REMARK                            x       y       z     vdW  Elec       q    Type
REMARK                         _______ _______ _______ _____ _____    ______ ____
ROOT
ATOM      2  O   UNL     1      -0.467   1.757  24.493  0.00  0.00    -0.274 OA
ATOM      5  N   UNL     1       0.723  -0.602  23.936  0.00  0.00    -0.285 NA
ATOM      6  N   UNL     1      -2.586  -1.385  25.289  0.00  0.00    -0.296 NA
ATOM      7  N   UNL     1      -2.551   1.096  23.817  0.00  0.00    -0.312 N 
ATOM      9  C   UNL     1      -1.383  -1.680  24.481  0.00  0.00    +0.084 C 
ATOM     10  C   UNL     1      -0.726  -0.521  23.675  0.00  0.00    +0.161 C 
ATOM     11  C   UNL     1      -0.193  -2.212  25.302  0.00  0.00    +0.036 C 
ATOM     12  C   UNL     1       0.998  -1.956  24.404  0.00  0.00    +0.087 C 
ATOM     13  C   UNL     1      -3.770  -0.950  24.495  0.00  0.00    +0.074 C 
ATOM     14  C   UNL     1      -1.207   0.879  24.051  0.00  0.00    +0.232 C 
ATOM     15  C   UNL     1      -3.463   0.062  23.374  0.00  0.00    +0.123 C 
ATOM     18  C   UNL     1      -2.938  -2.531  26.144  0.00  0.00    +0.105 C 
ATOM     33  H   UNL     1      -2.930   2.015  24.024  0.00  0.00    +0.149 HD
ENDROOT
BRANCH   5  16
ATOM     16  C   UNL     1       1.539  -0.245  22.782  0.00  0.00    +0.127 C 
BRANCH  16  20
ATOM      1  S   UNL     1       3.973   1.089  22.687  0.00  0.00    -0.100 S 
ATOM     20  C   UNL     1       3.005  -0.260  23.104  0.00  0.00    +0.004 A 
ATOM     22  C   UNL     1       3.737  -1.251  23.719  0.00  0.00    +0.012 A 
ATOM     23  C   UNL     1       5.111  -0.898  23.849  0.00  0.00    +0.008 A 
ATOM     24  C   UNL     1       5.377   0.349  23.329  0.00  0.00    +0.045 A 
ENDBRANCH  16  20
ENDBRANCH   5  16
BRANCH  13  17
ATOM     17  C   UNL     1      -4.832  -0.314  25.416  0.00  0.00    +0.029 C 
BRANCH  17  19
ATOM     19  C   UNL     1      -5.837   0.483  24.605  0.00  0.00    +0.097 C 
BRANCH  19  21
ATOM      3  O   UNL     1      -5.044   2.524  23.573  0.00  0.00    -0.276 OA
ATOM      8  N   UNL     1      -5.718   2.570  25.794  0.00  0.00    -0.311 N 
ATOM     21  C   UNL     1      -5.483   1.958  24.570  0.00  0.00    +0.213 C 
ATOM     34  H   UNL     1      -6.059   2.023  26.578  0.00  0.00    +0.149 HD
BRANCH   8  25
ATOM     25  C   UNL     1      -5.458   3.972  26.017  0.00  0.00    +0.139 C 
BRANCH  25  26
ATOM     26  C   UNL     1      -4.049   4.347  25.661  0.00  0.00    -0.030 A 
ATOM     27  C   UNL     1      -3.805   5.217  24.599  0.00  0.00    +0.009 A 
ATOM     28  C   UNL     1      -2.983   3.822  26.393  0.00  0.00    +0.009 A 
ATOM     29  C   UNL     1      -2.494   5.564  24.269  0.00  0.00    +0.046 A 
ATOM     30  C   UNL     1      -1.672   4.169  26.063  0.00  0.00    +0.046 A 
ATOM     31  C   UNL     1      -1.428   5.039  25.001  0.00  0.00    +0.120 A 
BRANCH  31   4
ATOM      4  O   UNL     1      -0.150   5.378  24.679  0.00  0.00    -0.495 OA
ATOM     32  C   UNL     1       0.345   4.928  23.420  0.00  0.00    +0.277 C 
ENDBRANCH  31   4
ENDBRANCH  25  26
ENDBRANCH   8  25
ENDBRANCH  19  21
ENDBRANCH  17  19
ENDBRANCH  13  17
TORSDOF 8
ENDMDL
MODEL 8
REMARK VINA RESULT:       2.2     14.517     17.407
REMARK  Name = 45360931
REMARK  10 active torsions:
REMARK  status: ('A' for Active; 'I' for Inactive)
REMARK    1  A    between atoms: O_4  and  C_31
REMARK    2  A    between atoms: O_4  and  C_32
REMARK    3  A    between atoms: N_5  and  C_16
REMARK    4  A    between atoms: N_6  and  C_18
REMARK    5  A    between atoms: N_8  and  C_25
REMARK    6  A    between atoms: C_13  and  C_17
REMARK    7  A    between atoms: C_16  and  C_20
REMARK    8  A    between atoms: C_17  and  C_19
REMARK    9  A    between atoms: C_19  and  C_21
REMARK   10  A    between atoms: C_25  and  C_26
REMARK                            x       y       z     vdW  Elec       q    Type
REMARK                         _______ _______ _______ _____ _____    ______ ____
ROOT
ATOM      2  O   UNL     1      -0.691   2.969  21.843  0.00  0.00    -0.274 OA
ATOM      5  N   UNL     1       0.547   1.535  23.768  0.00  0.00    -0.285 NA
ATOM      6  N   UNL     1      -2.269   3.239  25.368  0.00  0.00    -0.296 NA
ATOM      7  N   UNL     1      -2.805   2.562  22.615  0.00  0.00    -0.312 N 
ATOM      9  C   UNL     1      -1.266   2.158  25.258  0.00  0.00    +0.084 C 
ATOM     10  C   UNL     1      -0.925   1.603  23.843  0.00  0.00    +0.161 C 
ATOM     11  C   UNL     1       0.126   2.538  25.796  0.00  0.00    +0.036 C 
ATOM     12  C   UNL     1       1.046   1.532  25.137  0.00  0.00    +0.087 C 
ATOM     13  C   UNL     1      -3.640   2.856  24.928  0.00  0.00    +0.074 C 
ATOM     14  C   UNL     1      -1.430   2.452  22.678  0.00  0.00    +0.232 C 
ATOM     15  C   UNL     1      -3.697   2.033  23.627  0.00  0.00    +0.123 C 
ATOM     18  C   UNL     1      -2.305   3.784  26.736  0.00  0.00    +0.105 C 
ATOM     33  H   UNL     1      -3.207   3.095  21.850  0.00  0.00    +0.149 HD
ENDROOT
BRANCH   5  16
ATOM     16  C   UNL     1       1.034   0.394  23.004  0.00  0.00    +0.127 C 
BRANCH  16  20
ATOM      1  S   UNL     1       3.218  -1.207  23.620  0.00  0.00    -0.100 S 
ATOM     20  C   UNL     1       2.527   0.263  23.079  0.00  0.00    +0.004 A 
ATOM     22  C   UNL     1       3.487   1.199  22.762  0.00  0.00    +0.012 A 
ATOM     23  C   UNL     1       4.806   0.703  22.965  0.00  0.00    +0.008 A 
ATOM     24  C   UNL     1       4.805  -0.593  23.431  0.00  0.00    +0.045 A 
ENDBRANCH  16  20
ENDBRANCH   5  16
BRANCH  13  17
ATOM     17  C   UNL     1      -4.511   4.113  24.722  0.00  0.00    +0.029 C 
BRANCH  17  19
ATOM     19  C   UNL     1      -5.823   3.985  25.474  0.00  0.00    +0.097 C 
BRANCH  19  21
ATOM      3  O   UNL     1      -6.378   2.235  27.052  0.00  0.00    -0.276 OA
ATOM      8  N   UNL     1      -5.951   1.668  24.841  0.00  0.00    -0.311 N 
ATOM     21  C   UNL     1      -6.085   2.553  25.903  0.00  0.00    +0.213 C 
ATOM     34  H   UNL     1      -5.680   2.011  23.925  0.00  0.00    +0.149 HD
BRANCH   8  25
ATOM     25  C   UNL     1      -6.148   0.246  24.994  0.00  0.00    +0.139 C 
BRANCH  25  26
ATOM     26  C   UNL     1      -4.853  -0.511  24.930  0.00  0.00    -0.030 A 
ATOM     27  C   UNL     1      -4.597  -1.367  23.860  0.00  0.00    +0.009 A 
ATOM     28  C   UNL     1      -3.907  -0.356  25.944  0.00  0.00    +0.009 A 
ATOM     29  C   UNL     1      -3.393  -2.070  23.803  0.00  0.00    +0.046 A 
ATOM     30  C   UNL     1      -2.703  -1.059  25.886  0.00  0.00    +0.046 A 
ATOM     31  C   UNL     1      -2.446  -1.916  24.816  0.00  0.00    +0.120 A 
BRANCH  31   4
ATOM      4  O   UNL     1      -1.271  -2.601  24.760  0.00  0.00    -0.495 OA
ATOM     32  C   UNL     1      -0.136  -1.995  25.376  0.00  0.00    +0.277 C 
ENDBRANCH  31   4
ENDBRANCH  25  26
ENDBRANCH   8  25
ENDBRANCH  19  21
ENDBRANCH  17  19
ENDBRANCH  13  17
TORSDOF 8
ENDMDL
MODEL 9
REMARK VINA RESULT:       2.8     14.683     17.478
REMARK  Name = 45360931
REMARK  10 active torsions:
REMARK  status: ('A' for Active; 'I' for Inactive)
REMARK    1  A    between atoms: O_4  and  C_31
REMARK    2  A    between atoms: O_4  and  C_32
REMARK    3  A    between atoms: N_5  and  C_16
REMARK    4  A    between atoms: N_6  and  C_18
REMARK    5  A    between atoms: N_8  and  C_25
REMARK    6  A    between atoms: C_13  and  C_17
REMARK    7  A    between atoms: C_16  and  C_20
REMARK    8  A    between atoms: C_17  and  C_19
REMARK    9  A    between atoms: C_19  and  C_21
REMARK   10  A    between atoms: C_25  and  C_26
REMARK                            x       y       z     vdW  Elec       q    Type
REMARK                         _______ _______ _______ _____ _____    ______ ____
ROOT
ATOM      2  O   UNL     1      -1.573   0.216  23.413  0.00  0.00    -0.274 OA
ATOM      5  N   UNL     1       1.021   0.932  23.191  0.00  0.00    -0.285 NA
ATOM      6  N   UNL     1      -0.706   3.715  24.826  0.00  0.00    -0.296 NA
ATOM      7  N   UNL     1      -1.866   1.156  25.479  0.00  0.00    -0.312 N 
ATOM      9  C   UNL     1       0.488   2.899  24.511  0.00  0.00    +0.084 C 
ATOM     10  C   UNL     1       0.327   1.352  24.423  0.00  0.00    +0.161 C 
ATOM     11  C   UNL     1       1.132   3.231  23.152  0.00  0.00    +0.036 C 
ATOM     12  C   UNL     1       1.953   1.997  22.840  0.00  0.00    +0.087 C 
ATOM     13  C   UNL     1      -1.288   3.461  26.173  0.00  0.00    +0.074 C 
ATOM     14  C   UNL     1      -1.116   0.856  24.358  0.00  0.00    +0.232 C 
ATOM     15  C   UNL     1      -1.381   1.975  26.570  0.00  0.00    +0.123 C 
ATOM     18  C   UNL     1      -0.419   5.149  24.654  0.00  0.00    +0.105 C 
ATOM     33  H   UNL     1      -2.829   0.833  25.509  0.00  0.00    +0.149 HD
ENDROOT
BRANCH   5  16
ATOM     16  C   UNL     1       1.685  -0.359  23.313  0.00  0.00    +0.127 C 
BRANCH  16  20
ATOM      1  S   UNL     1       4.128  -1.525  23.936  0.00  0.00    -0.100 S 
ATOM     20  C   UNL     1       3.179  -0.221  23.360  0.00  0.00    +0.004 A 
ATOM     22  C   UNL     1       3.952   0.857  22.989  0.00  0.00    +0.012 A 
ATOM     23  C   UNL     1       5.342   0.609  23.181  0.00  0.00    +0.008 A 
ATOM     24  C   UNL     1       5.578  -0.648  23.691  0.00  0.00    +0.045 A 
ENDBRANCH  16  20
ENDBRANCH   5  16
BRANCH  13  17
ATOM     17  C   UNL     1      -2.708   4.058  26.267  0.00  0.00    +0.029 C 
BRANCH  17  19
ATOM     19  C   UNL     1      -3.271   4.322  24.883  0.00  0.00    +0.097 C 
BRANCH  19  21
ATOM      3  O   UNL     1      -3.836   2.662  23.215  0.00  0.00    -0.276 OA
ATOM      8  N   UNL     1      -4.907   2.604  25.274  0.00  0.00    -0.311 N 
ATOM     21  C   UNL     1      -4.015   3.116  24.342  0.00  0.00    +0.213 C 
ATOM     34  H   UNL     1      -5.013   3.055  26.177  0.00  0.00    +0.149 HD
BRANCH   8  25
ATOM     25  C   UNL     1      -5.736   1.455  24.997  0.00  0.00    +0.139 C 
BRANCH  25  26
ATOM     26  C   UNL     1      -4.937   0.185  24.944  0.00  0.00    -0.030 A 
ATOM     27  C   UNL     1      -4.236  -0.246  26.070  0.00  0.00    +0.009 A 
ATOM     28  C   UNL     1      -4.894  -0.563  23.767  0.00  0.00    +0.009 A 
ATOM     29  C   UNL     1      -3.493  -1.426  26.020  0.00  0.00    +0.046 A 
ATOM     30  C   UNL     1      -4.152  -1.743  23.716  0.00  0.00    +0.046 A 
ATOM     31  C   UNL     1      -3.451  -2.174  24.843  0.00  0.00    +0.120 A 
BRANCH  31   4
ATOM      4  O   UNL     1      -2.727  -3.325  24.794  0.00  0.00    -0.495 OA
ATOM     32  C   UNL     1      -1.349  -3.212  24.442  0.00  0.00    +0.277 C 
ENDBRANCH  31   4
ENDBRANCH  25  26
ENDBRANCH   8  25
ENDBRANCH  19  21
ENDBRANCH  17  19
ENDBRANCH  13  17
TORSDOF 8
ENDMDL
MODEL 10
REMARK VINA RESULT:       3.2     15.116     17.836
REMARK  Name = 45360931
REMARK  10 active torsions:
REMARK  status: ('A' for Active; 'I' for Inactive)
REMARK    1  A    between atoms: O_4  and  C_31
REMARK    2  A    between atoms: O_4  and  C_32
REMARK    3  A    between atoms: N_5  and  C_16
REMARK    4  A    between atoms: N_6  and  C_18
REMARK    5  A    between atoms: N_8  and  C_25
REMARK    6  A    between atoms: C_13  and  C_17
REMARK    7  A    between atoms: C_16  and  C_20
REMARK    8  A    between atoms: C_17  and  C_19
REMARK    9  A    between atoms: C_19  and  C_21
REMARK   10  A    between atoms: C_25  and  C_26
REMARK                            x       y       z     vdW  Elec       q    Type
REMARK                         _______ _______ _______ _____ _____    ______ ____
ROOT
ATOM      2  O   UNL     1      -1.543  -2.638  23.656  0.00  0.00    -0.274 OA
ATOM      5  N   UNL     1       0.240  -0.625  23.407  0.00  0.00    -0.285 NA
ATOM      6  N   UNL     1      -3.042   0.925  23.879  0.00  0.00    -0.296 NA
ATOM      7  N   UNL     1      -2.801  -1.597  25.259  0.00  0.00    -0.312 N 
ATOM      9  C   UNL     1      -1.564   0.906  23.948  0.00  0.00    +0.084 C 
ATOM     10  C   UNL     1      -0.857  -0.415  24.370  0.00  0.00    +0.161 C 
ATOM     11  C   UNL     1      -0.871   1.226  22.611  0.00  0.00    +0.036 C 
ATOM     12  C   UNL     1       0.524   0.666  22.794  0.00  0.00    +0.087 C 
ATOM     13  C   UNL     1      -3.723   0.700  25.184  0.00  0.00    +0.074 C 
ATOM     14  C   UNL     1      -1.749  -1.655  24.365  0.00  0.00    +0.232 C 
ATOM     15  C   UNL     1      -3.117  -0.424  26.047  0.00  0.00    +0.123 C 
ATOM     18  C   UNL     1      -3.522   2.172  23.260  0.00  0.00    +0.105 C 
ATOM     33  H   UNL     1      -3.419  -2.400  25.321  0.00  0.00    +0.149 HD
ENDROOT
BRANCH   5  16
ATOM     16  C   UNL     1       1.428  -1.221  24.006  0.00  0.00    +0.127 C 
BRANCH  16  20
ATOM      1  S   UNL     1       4.201  -1.274  23.866  0.00  0.00    -0.100 S 
ATOM     20  C   UNL     1       2.687  -0.538  23.555  0.00  0.00    +0.004 A 
ATOM     22  C   UNL     1       2.821   0.661  22.892  0.00  0.00    +0.012 A 
ATOM     23  C   UNL     1       4.186   0.980  22.635  0.00  0.00    +0.008 A 
ATOM     24  C   UNL     1       5.042   0.012  23.113  0.00  0.00    +0.045 A 
ENDBRANCH  16  20
ENDBRANCH   5  16
BRANCH  13  17
ATOM     17  C   UNL     1      -5.213   0.364  24.964  0.00  0.00    +0.029 C 
BRANCH  17  19
ATOM     19  C   UNL     1      -6.099   1.319  25.743  0.00  0.00    +0.097 C 
BRANCH  19  21
ATOM      3  O   UNL     1      -5.863   3.622  25.037  0.00  0.00    -0.276 OA
ATOM      8  N   UNL     1      -4.540   2.832  26.773  0.00  0.00    -0.311 N 
ATOM     21  C   UNL     1      -5.511   2.717  25.788  0.00  0.00    +0.213 C 
ATOM     34  H   UNL     1      -4.289   2.026  27.337  0.00  0.00    +0.149 HD
BRANCH   8  25
ATOM     25  C   UNL     1      -3.829   4.066  27.015  0.00  0.00    +0.139 C 
BRANCH  25  26
ATOM     26  C   UNL     1      -2.627   4.205  26.127  0.00  0.00    -0.030 A 
ATOM     27  C   UNL     1      -2.576   5.220  25.173  0.00  0.00    +0.009 A 
ATOM     28  C   UNL     1      -1.559   3.315  26.258  0.00  0.00    +0.009 A 
ATOM     29  C   UNL     1      -1.458   5.347  24.348  0.00  0.00    +0.046 A 
ATOM     30  C   UNL     1      -0.440   3.443  25.434  0.00  0.00    +0.046 A 
ATOM     31  C   UNL     1      -0.390   4.459  24.479  0.00  0.00    +0.120 A 
BRANCH  31   4
ATOM      4  O   UNL     1       0.701   4.583  23.676  0.00  0.00    -0.495 OA
ATOM     32  C   UNL     1       0.558   5.383  22.504  0.00  0.00    +0.277 C 
ENDBRANCH  31   4
ENDBRANCH  25  26
ENDBRANCH   8  25
ENDBRANCH  19  21
ENDBRANCH  17  19
ENDBRANCH  13  17
TORSDOF 8
ENDMDL
