MODEL 1
REMARK VINA RESULT:      -7.1      0.000      0.000
REMARK  Name = 75536860
REMARK  4 active torsions:
REMARK  status: ('A' for Active; 'I' for Inactive)
REMARK    1  A    between atoms: O_2  and  C_11
REMARK    2  A    between atoms: O_2  and  C_14
REMARK    3  A    between atoms: N_3  and  C_5
REMARK    4  A    between atoms: C_16  and  C_19
REMARK                            x       y       z     vdW  Elec       q    Type
REMARK                         _______ _______ _______ _____ _____    ______ ____
ROOT
ATOM      1  O   UNL     1      -0.302   4.019  24.916  0.00  0.00    -0.375 OA
ATOM      3  N   UNL     1      -3.217   3.512  25.341  0.00  0.00    -0.294 NA
ATOM      9  C   UNL     1      -2.580   2.281  24.849  0.00  0.00    +0.131 C 
ATOM     10  C   UNL     1      -2.655   4.695  24.665  0.00  0.00    +0.113 C 
ATOM     11  C   UNL     1      -1.308   1.896  25.610  0.00  0.00    +0.215 C 
ATOM     12  C   UNL     1      -1.250   5.061  25.135  0.00  0.00    +0.175 C 
ATOM     13  C   UNL     1      -0.337   3.026  25.938  0.00  0.00    +0.205 C 
ENDROOT
BRANCH   3   5
ATOM      5  C   UNL     1      -4.660   3.451  25.028  0.00  0.00    +0.057 C 
ATOM      6  C   UNL     1      -5.408   2.795  26.209  0.00  0.00    +0.019 C 
ATOM      7  C   UNL     1      -4.953   2.166  24.225  0.00  0.00    +0.019 C 
ATOM      8  C   UNL     1      -6.176   1.970  25.151  0.00  0.00    +0.003 C 
ENDBRANCH   3   5
BRANCH  11   2
ATOM      2  O   UNL     1      -0.600   0.940  24.812  0.00  0.00    -0.469 OA
BRANCH   2  14
ATOM      4  N   UNL     1      -2.445  -0.385  24.363  0.00  0.00    -0.218 NA
ATOM     14  C   UNL     1      -1.147  -0.308  24.732  0.00  0.00    +0.215 A 
ATOM     15  C   UNL     1      -0.358  -1.408  25.029  0.00  0.00    +0.067 A 
ATOM     16  C   UNL     1      -2.977  -1.627  24.288  0.00  0.00    +0.042 A 
ATOM     17  C   UNL     1      -0.940  -2.669  24.941  0.00  0.00    +0.007 A 
ATOM     18  C   UNL     1      -2.273  -2.789  24.564  0.00  0.00    +0.023 A 
ATOM     19  C   UNL     1      -4.410  -1.718  23.884  0.00  0.00    +0.066 C 
ENDBRANCH   2  14
ENDBRANCH  11   2
TORSDOF 3
ENDMDL
MODEL 2
REMARK VINA RESULT:      -7.1      1.921      3.722
REMARK  Name = 75536860
REMARK  4 active torsions:
REMARK  status: ('A' for Active; 'I' for Inactive)
REMARK    1  A    between atoms: O_2  and  C_11
REMARK    2  A    between atoms: O_2  and  C_14
REMARK    3  A    between atoms: N_3  and  C_5
REMARK    4  A    between atoms: C_16  and  C_19
REMARK                            x       y       z     vdW  Elec       q    Type
REMARK                         _______ _______ _______ _____ _____    ______ ____
ROOT
ATOM      1  O   UNL     1      -5.858   2.783  26.152  0.00  0.00    -0.375 OA
ATOM      3  N   UNL     1      -3.486   3.400  24.442  0.00  0.00    -0.294 NA
ATOM      9  C   UNL     1      -3.397   2.008  24.905  0.00  0.00    +0.131 C 
ATOM     10  C   UNL     1      -4.007   4.272  25.509  0.00  0.00    +0.113 C 
ATOM     11  C   UNL     1      -4.683   1.202  24.696  0.00  0.00    +0.215 C 
ATOM     12  C   UNL     1      -5.503   4.107  25.760  0.00  0.00    +0.175 C 
ATOM     13  C   UNL     1      -5.993   1.903  25.040  0.00  0.00    +0.205 C 
ENDROOT
BRANCH   3   5
ATOM      5  C   UNL     1      -2.128   3.867  24.094  0.00  0.00    +0.057 C 
ATOM      6  C   UNL     1      -1.093   2.827  24.578  0.00  0.00    +0.019 C 
ATOM      7  C   UNL     1      -1.607   4.796  25.210  0.00  0.00    +0.019 C 
ATOM      8  C   UNL     1      -0.272   4.023  25.112  0.00  0.00    +0.003 C 
ENDBRANCH   3   5
BRANCH  11   2
ATOM      2  O   UNL     1      -4.596   0.029  25.515  0.00  0.00    -0.469 OA
BRANCH   2  14
ATOM      4  N   UNL     1      -2.455  -0.852  25.438  0.00  0.00    -0.218 NA
ATOM     14  C   UNL     1      -3.755  -0.954  25.079  0.00  0.00    +0.215 A 
ATOM     15  C   UNL     1      -4.268  -1.984  24.306  0.00  0.00    +0.067 A 
ATOM     16  C   UNL     1      -1.632  -1.832  25.000  0.00  0.00    +0.042 A 
ATOM     17  C   UNL     1      -3.390  -2.973  23.875  0.00  0.00    +0.007 A 
ATOM     18  C   UNL     1      -2.046  -2.902  24.223  0.00  0.00    +0.023 A 
ATOM     19  C   UNL     1      -0.196  -1.723  25.390  0.00  0.00    +0.066 C 
ENDBRANCH   2  14
ENDBRANCH  11   2
TORSDOF 3
ENDMDL
MODEL 3
REMARK VINA RESULT:      -6.0      1.592      4.667
REMARK  Name = 75536860
REMARK  4 active torsions:
REMARK  status: ('A' for Active; 'I' for Inactive)
REMARK    1  A    between atoms: O_2  and  C_11
REMARK    2  A    between atoms: O_2  and  C_14
REMARK    3  A    between atoms: N_3  and  C_5
REMARK    4  A    between atoms: C_16  and  C_19
REMARK                            x       y       z     vdW  Elec       q    Type
REMARK                         _______ _______ _______ _____ _____    ______ ____
ROOT
ATOM      1  O   UNL     1      -0.602   2.986  24.864  0.00  0.00    -0.375 OA
ATOM      3  N   UNL     1      -1.132   0.047  24.990  0.00  0.00    -0.294 NA
ATOM      9  C   UNL     1      -2.206   0.698  24.225  0.00  0.00    +0.131 C 
ATOM     10  C   UNL     1      -0.728   0.883  26.135  0.00  0.00    +0.113 C 
ATOM     11  C   UNL     1      -1.702   1.646  23.133  0.00  0.00    +0.215 C 
ATOM     12  C   UNL     1       0.096   2.106  25.741  0.00  0.00    +0.175 C 
ATOM     13  C   UNL     1      -0.541   2.563  23.504  0.00  0.00    +0.205 C 
ENDROOT
BRANCH   3   5
ATOM      5  C   UNL     1      -1.643  -1.235  25.519  0.00  0.00    +0.057 C 
ATOM      6  C   UNL     1      -1.900  -2.203  24.343  0.00  0.00    +0.019 C 
ATOM      7  C   UNL     1      -3.175  -1.144  25.682  0.00  0.00    +0.019 C 
ATOM      8  C   UNL     1      -3.240  -2.545  25.033  0.00  0.00    +0.003 C 
ENDBRANCH   3   5
BRANCH  11   2
ATOM      2  O   UNL     1      -2.800   2.480  22.743  0.00  0.00    -0.469 OA
BRANCH   2  14
ATOM      4  N   UNL     1      -4.594   1.921  24.097  0.00  0.00    -0.218 NA
ATOM     14  C   UNL     1      -3.670   2.838  23.732  0.00  0.00    +0.215 A 
ATOM     15  C   UNL     1      -3.564   4.100  24.296  0.00  0.00    +0.067 A 
ATOM     16  C   UNL     1      -5.451   2.289  25.077  0.00  0.00    +0.042 A 
ATOM     17  C   UNL     1      -4.463   4.441  25.300  0.00  0.00    +0.007 A 
ATOM     18  C   UNL     1      -5.428   3.524  25.704  0.00  0.00    +0.023 A 
ATOM     19  C   UNL     1      -6.474   1.281  25.483  0.00  0.00    +0.066 C 
ENDBRANCH   2  14
ENDBRANCH  11   2
TORSDOF 3
ENDMDL
MODEL 4
REMARK VINA RESULT:      -6.0      1.455      4.880
REMARK  Name = 75536860
REMARK  4 active torsions:
REMARK  status: ('A' for Active; 'I' for Inactive)
REMARK    1  A    between atoms: O_2  and  C_11
REMARK    2  A    between atoms: O_2  and  C_14
REMARK    3  A    between atoms: N_3  and  C_5
REMARK    4  A    between atoms: C_16  and  C_19
REMARK                            x       y       z     vdW  Elec       q    Type
REMARK                         _______ _______ _______ _____ _____    ______ ____
ROOT
ATOM      1  O   UNL     1      -0.253  -1.328  25.117  0.00  0.00    -0.375 OA
ATOM      3  N   UNL     1      -2.894  -0.408  24.065  0.00  0.00    -0.294 NA
ATOM      9  C   UNL     1      -2.077   0.765  24.407  0.00  0.00    +0.131 C 
ATOM     10  C   UNL     1      -2.708  -1.480  25.058  0.00  0.00    +0.113 C 
ATOM     11  C   UNL     1      -0.657   0.719  23.833  0.00  0.00    +0.215 C 
ATOM     12  C   UNL     1      -1.366  -2.199  24.941  0.00  0.00    +0.175 C 
ATOM     13  C   UNL     1       0.076  -0.615  23.928  0.00  0.00    +0.205 C 
ENDROOT
BRANCH   3   5
ATOM      5  C   UNL     1      -4.318  -0.011  24.084  0.00  0.00    +0.057 C 
ATOM      6  C   UNL     1      -4.419   1.525  23.955  0.00  0.00    +0.019 C 
ATOM      7  C   UNL     1      -4.780   0.156  25.547  0.00  0.00    +0.019 C 
ATOM      8  C   UNL     1      -5.466   1.464  25.091  0.00  0.00    +0.003 C 
ENDBRANCH   3   5
BRANCH  11   2
ATOM      2  O   UNL     1       0.125   1.690  24.539  0.00  0.00    -0.469 OA
BRANCH   2  14
ATOM      4  N   UNL     1      -1.563   2.902  25.562  0.00  0.00    -0.218 NA
ATOM     14  C   UNL     1      -0.469   2.898  24.769  0.00  0.00    +0.215 A 
ATOM     15  C   UNL     1       0.071   4.033  24.186  0.00  0.00    +0.067 A 
ATOM     16  C   UNL     1      -2.143   4.104  25.781  0.00  0.00    +0.042 A 
ATOM     17  C   UNL     1      -0.553   5.252  24.434  0.00  0.00    +0.007 A 
ATOM     18  C   UNL     1      -1.681   5.296  25.245  0.00  0.00    +0.023 A 
ATOM     19  C   UNL     1      -3.353   4.114  26.653  0.00  0.00    +0.066 C 
ENDBRANCH   2  14
ENDBRANCH  11   2
TORSDOF 3
ENDMDL
MODEL 5
REMARK VINA RESULT:      -5.8      2.368      3.779
REMARK  Name = 75536860
REMARK  4 active torsions:
REMARK  status: ('A' for Active; 'I' for Inactive)
REMARK    1  A    between atoms: O_2  and  C_11
REMARK    2  A    between atoms: O_2  and  C_14
REMARK    3  A    between atoms: N_3  and  C_5
REMARK    4  A    between atoms: C_16  and  C_19
REMARK                            x       y       z     vdW  Elec       q    Type
REMARK                         _______ _______ _______ _____ _____    ______ ____
ROOT
ATOM      1  O   UNL     1      -3.236   4.183  24.855  0.00  0.00    -0.375 OA
ATOM      3  N   UNL     1      -3.882   1.306  25.340  0.00  0.00    -0.294 NA
ATOM      9  C   UNL     1      -2.551   1.403  24.723  0.00  0.00    +0.131 C 
ATOM     10  C   UNL     1      -4.804   2.290  24.748  0.00  0.00    +0.113 C 
ATOM     11  C   UNL     1      -1.626   2.419  25.402  0.00  0.00    +0.215 C 
ATOM     12  C   UNL     1      -4.541   3.725  25.197  0.00  0.00    +0.175 C 
ATOM     13  C   UNL     1      -2.247   3.757  25.789  0.00  0.00    +0.205 C 
ENDROOT
BRANCH   3   5
ATOM      5  C   UNL     1      -4.423  -0.044  25.077  0.00  0.00    +0.057 C 
ATOM      6  C   UNL     1      -3.515  -1.097  25.750  0.00  0.00    +0.019 C 
ATOM      7  C   UNL     1      -3.886  -0.553  23.723  0.00  0.00    +0.019 C 
ATOM      8  C   UNL     1      -3.621  -1.900  24.433  0.00  0.00    +0.003 C 
ENDBRANCH   3   5
BRANCH  11   2
ATOM      2  O   UNL     1      -0.547   2.691  24.500  0.00  0.00    -0.469 OA
BRANCH   2  14
ATOM      4  N   UNL     1       1.428   1.828  23.652  0.00  0.00    -0.218 NA
ATOM     14  C   UNL     1       0.154   1.610  24.048  0.00  0.00    +0.215 A 
ATOM     15  C   UNL     1      -0.466   0.371  24.020  0.00  0.00    +0.067 A 
ATOM     16  C   UNL     1       2.112   0.749  23.206  0.00  0.00    +0.042 A 
ATOM     17  C   UNL     1       0.269  -0.715  23.555  0.00  0.00    +0.007 A 
ATOM     18  C   UNL     1       1.583  -0.530  23.138  0.00  0.00    +0.023 A 
ATOM     19  C   UNL     1       3.517   0.984  22.765  0.00  0.00    +0.066 C 
ENDBRANCH   2  14
ENDBRANCH  11   2
TORSDOF 3
ENDMDL
MODEL 6
REMARK VINA RESULT:      -5.7      1.954      4.615
REMARK  Name = 75536860
REMARK  4 active torsions:
REMARK  status: ('A' for Active; 'I' for Inactive)
REMARK    1  A    between atoms: O_2  and  C_11
REMARK    2  A    between atoms: O_2  and  C_14
REMARK    3  A    between atoms: N_3  and  C_5
REMARK    4  A    between atoms: C_16  and  C_19
REMARK                            x       y       z     vdW  Elec       q    Type
REMARK                         _______ _______ _______ _____ _____    ______ ____
ROOT
ATOM      1  O   UNL     1      -0.585  -1.031  23.573  0.00  0.00    -0.375 OA
ATOM      3  N   UNL     1      -0.102   1.404  25.237  0.00  0.00    -0.294 NA
ATOM      9  C   UNL     1      -1.530   1.057  25.294  0.00  0.00    +0.131 C 
ATOM     10  C   UNL     1       0.432   1.188  23.881  0.00  0.00    +0.113 C 
ATOM     11  C   UNL     1      -1.796  -0.418  25.612  0.00  0.00    +0.215 C 
ATOM     12  C   UNL     1       0.627  -0.284  23.525  0.00  0.00    +0.175 C 
ATOM     13  C   UNL     1      -0.921  -1.442  24.895  0.00  0.00    +0.205 C 
ENDROOT
BRANCH   3   5
ATOM      5  C   UNL     1       0.045   2.838  25.563  0.00  0.00    +0.057 C 
ATOM      6  C   UNL     1      -1.321   3.400  26.011  0.00  0.00    +0.019 C 
ATOM      7  C   UNL     1      -0.117   3.672  24.274  0.00  0.00    +0.019 C 
ATOM      8  C   UNL     1      -1.021   4.614  25.101  0.00  0.00    +0.003 C 
ENDBRANCH   3   5
BRANCH  11   2
ATOM      2  O   UNL     1      -3.157  -0.697  25.263  0.00  0.00    -0.469 OA
BRANCH   2  14
ATOM      4  N   UNL     1      -3.547   1.296  24.148  0.00  0.00    -0.218 NA
ATOM     14  C   UNL     1      -3.964   0.385  25.056  0.00  0.00    +0.215 A 
ATOM     15  C   UNL     1      -5.144   0.490  25.775  0.00  0.00    +0.067 A 
ATOM     16  C   UNL     1      -4.355   2.363  23.953  0.00  0.00    +0.042 A 
ATOM     17  C   UNL     1      -5.949   1.601  25.547  0.00  0.00    +0.007 A 
ATOM     18  C   UNL     1      -5.554   2.560  24.620  0.00  0.00    +0.023 A 
ATOM     19  C   UNL     1      -3.899   3.373  22.954  0.00  0.00    +0.066 C 
ENDBRANCH   2  14
ENDBRANCH  11   2
TORSDOF 3
ENDMDL
MODEL 7
REMARK VINA RESULT:      -5.6      1.598      4.914
REMARK  Name = 75536860
REMARK  4 active torsions:
REMARK  status: ('A' for Active; 'I' for Inactive)
REMARK    1  A    between atoms: O_2  and  C_11
REMARK    2  A    between atoms: O_2  and  C_14
REMARK    3  A    between atoms: N_3  and  C_5
REMARK    4  A    between atoms: C_16  and  C_19
REMARK                            x       y       z     vdW  Elec       q    Type
REMARK                         _______ _______ _______ _____ _____    ______ ____
ROOT
ATOM      1  O   UNL     1      -0.627   2.706  24.460  0.00  0.00    -0.375 OA
ATOM      3  N   UNL     1      -1.283  -0.199  24.717  0.00  0.00    -0.294 NA
ATOM      9  C   UNL     1      -2.447   0.511  24.168  0.00  0.00    +0.131 C 
ATOM     10  C   UNL     1      -0.619   0.612  25.753  0.00  0.00    +0.113 C 
ATOM     11  C   UNL     1      -2.113   1.430  22.989  0.00  0.00    +0.215 C 
ATOM     12  C   UNL     1       0.179   1.787  25.195  0.00  0.00    +0.175 C 
ATOM     13  C   UNL     1      -0.854   2.281  23.119  0.00  0.00    +0.205 C 
ENDROOT
BRANCH   3   5
ATOM      5  C   UNL     1      -1.751  -1.451  25.347  0.00  0.00    +0.057 C 
ATOM      6  C   UNL     1      -2.110  -2.471  24.246  0.00  0.00    +0.019 C 
ATOM      7  C   UNL     1      -3.263  -1.341  25.636  0.00  0.00    +0.019 C 
ATOM      8  C   UNL     1      -3.388  -2.771  25.062  0.00  0.00    +0.003 C 
ENDBRANCH   3   5
BRANCH  11   2
ATOM      2  O   UNL     1      -3.218   2.324  22.811  0.00  0.00    -0.469 OA
BRANCH   2  14
ATOM      4  N   UNL     1      -3.478   3.482  24.800  0.00  0.00    -0.218 NA
ATOM     14  C   UNL     1      -3.973   2.585  23.918  0.00  0.00    +0.215 A 
ATOM     15  C   UNL     1      -5.182   1.927  24.077  0.00  0.00    +0.067 A 
ATOM     16  C   UNL     1      -4.234   3.731  25.893  0.00  0.00    +0.042 A 
ATOM     17  C   UNL     1      -5.932   2.209  25.214  0.00  0.00    +0.007 A 
ATOM     18  C   UNL     1      -5.456   3.127  26.145  0.00  0.00    +0.023 A 
ATOM     19  C   UNL     1      -3.691   4.719  26.871  0.00  0.00    +0.066 C 
ENDBRANCH   2  14
ENDBRANCH  11   2
TORSDOF 3
ENDMDL
MODEL 8
REMARK VINA RESULT:      -5.4      2.098      3.601
REMARK  Name = 75536860
REMARK  4 active torsions:
REMARK  status: ('A' for Active; 'I' for Inactive)
REMARK    1  A    between atoms: O_2  and  C_11
REMARK    2  A    between atoms: O_2  and  C_14
REMARK    3  A    between atoms: N_3  and  C_5
REMARK    4  A    between atoms: C_16  and  C_19
REMARK                            x       y       z     vdW  Elec       q    Type
REMARK                         _______ _______ _______ _____ _____    ______ ____
ROOT
ATOM      1  O   UNL     1      -4.102   3.666  26.302  0.00  0.00    -0.375 OA
ATOM      3  N   UNL     1      -1.983   3.071  24.280  0.00  0.00    -0.294 NA
ATOM      9  C   UNL     1      -2.891   1.918  24.380  0.00  0.00    +0.131 C 
ATOM     10  C   UNL     1      -1.741   3.660  25.609  0.00  0.00    +0.113 C 
ATOM     11  C   UNL     1      -4.375   2.290  24.293  0.00  0.00    +0.215 C 
ATOM     12  C   UNL     1      -2.926   4.455  26.152  0.00  0.00    +0.175 C 
ATOM     13  C   UNL     1      -4.820   3.519  25.079  0.00  0.00    +0.205 C 
ENDROOT
BRANCH   3   5
ATOM      5  C   UNL     1      -0.687   2.602  23.746  0.00  0.00    +0.057 C 
ATOM      6  C   UNL     1      -0.806   1.112  23.359  0.00  0.00    +0.019 C 
ATOM      7  C   UNL     1       0.213   2.150  24.916  0.00  0.00    +0.019 C 
ATOM      8  C   UNL     1       0.558   0.912  24.058  0.00  0.00    +0.003 C 
ENDBRANCH   3   5
BRANCH  11   2
ATOM      2  O   UNL     1      -5.128   1.173  24.780  0.00  0.00    -0.469 OA
BRANCH   2  14
ATOM      4  N   UNL     1      -4.686  -0.965  24.007  0.00  0.00    -0.218 NA
ATOM     14  C   UNL     1      -4.448  -0.002  24.925  0.00  0.00    +0.215 A 
ATOM     15  C   UNL     1      -3.569  -0.143  25.987  0.00  0.00    +0.067 A 
ATOM     16  C   UNL     1      -4.007  -2.124  24.161  0.00  0.00    +0.042 A 
ATOM     17  C   UNL     1      -2.889  -1.350  26.113  0.00  0.00    +0.007 A 
ATOM     18  C   UNL     1      -3.106  -2.364  25.188  0.00  0.00    +0.023 A 
ATOM     19  C   UNL     1      -4.267  -3.192  23.152  0.00  0.00    +0.066 C 
ENDBRANCH   2  14
ENDBRANCH  11   2
TORSDOF 3
ENDMDL
MODEL 9
REMARK VINA RESULT:      -5.3      2.021      5.920
REMARK  Name = 75536860
REMARK  4 active torsions:
REMARK  status: ('A' for Active; 'I' for Inactive)
REMARK    1  A    between atoms: O_2  and  C_11
REMARK    2  A    between atoms: O_2  and  C_14
REMARK    3  A    between atoms: N_3  and  C_5
REMARK    4  A    between atoms: C_16  and  C_19
REMARK                            x       y       z     vdW  Elec       q    Type
REMARK                         _______ _______ _______ _____ _____    ______ ____
ROOT
ATOM      1  O   UNL     1      -3.404  -2.532  24.106  0.00  0.00    -0.375 OA
ATOM      3  N   UNL     1      -1.115  -0.835  25.005  0.00  0.00    -0.294 NA
ATOM      9  C   UNL     1      -2.282   0.023  24.758  0.00  0.00    +0.131 C 
ATOM     10  C   UNL     1      -1.029  -1.902  23.992  0.00  0.00    +0.113 C 
ATOM     11  C   UNL     1      -3.569  -0.474  25.425  0.00  0.00    +0.215 C 
ATOM     12  C   UNL     1      -2.063  -3.009  24.177  0.00  0.00    +0.175 C 
ATOM     13  C   UNL     1      -3.850  -1.971  25.337  0.00  0.00    +0.205 C 
ENDROOT
BRANCH   3   5
ATOM      5  C   UNL     1       0.106  -0.008  24.902  0.00  0.00    +0.057 C 
ATOM      6  C   UNL     1      -0.242   1.457  25.243  0.00  0.00    +0.019 C 
ATOM      7  C   UNL     1       0.287   0.453  23.440  0.00  0.00    +0.019 C 
ATOM      8  C   UNL     1       0.604   1.853  24.012  0.00  0.00    +0.003 C 
ENDBRANCH   3   5
BRANCH  11   2
ATOM      2  O   UNL     1      -4.667   0.206  24.806  0.00  0.00    -0.469 OA
BRANCH   2  14
ATOM      4  N   UNL     1      -3.631   2.270  24.983  0.00  0.00    -0.218 NA
ATOM     14  C   UNL     1      -4.770   1.544  25.054  0.00  0.00    +0.215 A 
ATOM     15  C   UNL     1      -6.012   2.078  25.361  0.00  0.00    +0.067 A 
ATOM     16  C   UNL     1      -3.746   3.595  25.232  0.00  0.00    +0.042 A 
ATOM     17  C   UNL     1      -6.090   3.444  25.611  0.00  0.00    +0.007 A 
ATOM     18  C   UNL     1      -4.940   4.223  25.548  0.00  0.00    +0.023 A 
ATOM     19  C   UNL     1      -2.492   4.400  25.158  0.00  0.00    +0.066 C 
ENDBRANCH   2  14
ENDBRANCH  11   2
TORSDOF 3
ENDMDL
MODEL 10
REMARK VINA RESULT:      -4.9     19.269     20.763
REMARK  Name = 75536860
REMARK  4 active torsions:
REMARK  status: ('A' for Active; 'I' for Inactive)
REMARK    1  A    between atoms: O_2  and  C_11
REMARK    2  A    between atoms: O_2  and  C_14
REMARK    3  A    between atoms: N_3  and  C_5
REMARK    4  A    between atoms: C_16  and  C_19
REMARK                            x       y       z     vdW  Elec       q    Type
REMARK                         _______ _______ _______ _____ _____    ______ ____
ROOT
ATOM      1  O   UNL     1      16.236  -9.231  26.577  0.00  0.00    -0.375 OA
ATOM      3  N   UNL     1      15.102  -7.582  28.797  0.00  0.00    -0.294 NA
ATOM      9  C   UNL     1      16.157  -6.815  28.118  0.00  0.00    +0.131 C 
ATOM     10  C   UNL     1      15.479  -9.002  28.907  0.00  0.00    +0.113 C 
ATOM     11  C   UNL     1      16.020  -6.791  26.592  0.00  0.00    +0.215 C 
ATOM     12  C   UNL     1      15.387  -9.766  27.589  0.00  0.00    +0.175 C 
ATOM     13  C   UNL     1      15.657  -8.109  25.916  0.00  0.00    +0.205 C 
ENDROOT
BRANCH   3   5
ATOM      5  C   UNL     1      14.938  -7.046  30.164  0.00  0.00    +0.057 C 
ATOM      6  C   UNL     1      13.513  -6.471  30.317  0.00  0.00    +0.019 C 
ATOM      7  C   UNL     1      15.450  -5.591  30.205  0.00  0.00    +0.019 C 
ATOM      8  C   UNL     1      14.173  -5.255  31.008  0.00  0.00    +0.003 C 
ENDBRANCH   3   5
BRANCH  11   2
ATOM      2  O   UNL     1      17.276  -6.363  26.052  0.00  0.00    -0.469 OA
BRANCH   2  14
ATOM      4  N   UNL     1      17.012  -4.107  25.601  0.00  0.00    -0.218 NA
ATOM     14  C   UNL     1      17.230  -5.356  25.132  0.00  0.00    +0.215 A 
ATOM     15  C   UNL     1      17.405  -5.661  23.792  0.00  0.00    +0.067 A 
ATOM     16  C   UNL     1      16.967  -3.117  24.680  0.00  0.00    +0.042 A 
ATOM     17  C   UNL     1      17.353  -4.618  22.874  0.00  0.00    +0.007 A 
ATOM     18  C   UNL     1      17.130  -3.319  23.318  0.00  0.00    +0.023 A 
ATOM     19  C   UNL     1      16.723  -1.737  25.191  0.00  0.00    +0.066 C 
ENDBRANCH   2  14
ENDBRANCH  11   2
TORSDOF 3
ENDMDL
