MODEL 1
REMARK VINA RESULT:      -4.7      0.000      0.000
REMARK  Name = 56774833
REMARK  7 active torsions:
REMARK  status: ('A' for Active; 'I' for Inactive)
REMARK    1  A    between atoms: O_2  and  C_14
REMARK    2  A    between atoms: N_5  and  C_17
REMARK    3  A    between atoms: N_6  and  C_20
REMARK    4  A    between atoms: C_9  and  C_13
REMARK    5  A    between atoms: C_12  and  C_14
REMARK    6  A    between atoms: C_14  and  C_16
REMARK    7  A    between atoms: C_17  and  C_25
REMARK                            x       y       z     vdW  Elec       q    Type
REMARK                         _______ _______ _______ _____ _____    ______ ____
ROOT
ATOM     14  C   UNL     1      -2.743   2.339  23.872  0.00  0.00    +0.167 C 
ENDROOT
BRANCH  14  12
ATOM      1  O   UNL     1      -4.383   4.081  25.570  0.00  0.00    -0.369 OA
ATOM      4  O   UNL     1      -6.965   1.719  24.679  0.00  0.00    -0.273 OA
ATOM      5  N   UNL     1      -4.692   1.351  25.016  0.00  0.00    -0.284 N 
ATOM     12  C   UNL     1      -3.365   1.948  25.214  0.00  0.00    +0.135 C 
ATOM     15  C   UNL     1      -3.470   3.153  26.143  0.00  0.00    +0.185 C 
ATOM     18  C   UNL     1      -5.849   2.126  25.008  0.00  0.00    +0.242 C 
ATOM     19  C   UNL     1      -5.688   3.550  25.531  0.00  0.00    +0.255 C 
BRANCH   5  17
ATOM     17  C   UNL     1      -4.746  -0.056  24.642  0.00  0.00    +0.182 C 
BRANCH  17  25
ATOM      7  N   UNL     1      -2.999  -1.794  24.208  0.00  0.00    -0.347 N 
ATOM      8  N   UNL     1      -2.698  -0.552  26.024  0.00  0.00    -0.239 NA
ATOM     25  C   UNL     1      -3.476  -0.779  24.989  0.00  0.00    +0.125 A 
ATOM     26  C   UNL     1      -1.842  -2.243  24.782  0.00  0.00    +0.104 A 
ATOM     27  C   UNL     1      -1.678  -1.462  25.900  0.00  0.00    +0.130 A 
ATOM     30  H   UNL     1      -3.422  -2.151  23.361  0.00  0.00    +0.167 HD
ENDBRANCH  17  25
ENDBRANCH   5  17
ENDBRANCH  14  12
BRANCH  14  16
ATOM     16  C   UNL     1      -1.288   1.950  23.793  0.00  0.00    -0.017 A 
ATOM     20  C   UNL     1       1.404   1.232  23.649  0.00  0.00    +0.033 A 
ATOM     21  C   UNL     1      -0.314   2.782  24.345  0.00  0.00    +0.008 A 
ATOM     22  C   UNL     1      -0.916   0.759  23.171  0.00  0.00    +0.008 A 
ATOM     23  C   UNL     1       1.032   2.424  24.273  0.00  0.00    +0.023 A 
ATOM     24  C   UNL     1       0.429   0.401  23.098  0.00  0.00    +0.023 A 
BRANCH  20   6
ATOM      3  O   UNL     1       3.019   0.143  21.354  0.00  0.00    -0.275 OA
ATOM      6  N   UNL     1       2.750   0.873  23.577  0.00  0.00    -0.285 N 
ATOM     13  C   UNL     1       3.450   0.369  22.477  0.00  0.00    +0.220 C 
ATOM     28  H   UNL     1       3.277   0.991  24.440  0.00  0.00    +0.155 HD
BRANCH  13   9
ATOM      9  C   UNL     1       4.893   0.089  22.755  0.00  0.00    +0.075 C 
ATOM     10  C   UNL     1       5.254  -0.826  23.888  0.00  0.00    +0.013 C 
ATOM     11  C   UNL     1       5.518   0.646  24.000  0.00  0.00    +0.013 C 
ENDBRANCH  13   9
ENDBRANCH  20   6
ENDBRANCH  14  16
BRANCH  14   2
ATOM      2  O   UNL     1      -3.460   1.707  22.818  0.00  0.00    -0.385 OA
ATOM     29  H   UNL     1      -3.474   2.292  22.042  0.00  0.00    +0.210 HD
ENDBRANCH  14   2
TORSDOF 7
ENDMDL
MODEL 2
REMARK VINA RESULT:      -3.4      1.559      2.284
REMARK  Name = 56774833
REMARK  7 active torsions:
REMARK  status: ('A' for Active; 'I' for Inactive)
REMARK    1  A    between atoms: O_2  and  C_14
REMARK    2  A    between atoms: N_5  and  C_17
REMARK    3  A    between atoms: N_6  and  C_20
REMARK    4  A    between atoms: C_9  and  C_13
REMARK    5  A    between atoms: C_12  and  C_14
REMARK    6  A    between atoms: C_14  and  C_16
REMARK    7  A    between atoms: C_17  and  C_25
REMARK                            x       y       z     vdW  Elec       q    Type
REMARK                         _______ _______ _______ _____ _____    ______ ____
ROOT
ATOM     14  C   UNL     1      -2.814   3.574  26.282  0.00  0.00    +0.167 C 
ENDROOT
BRANCH  14  12
ATOM      1  O   UNL     1      -4.149   4.097  23.722  0.00  0.00    -0.369 OA
ATOM      4  O   UNL     1      -3.051   0.732  23.006  0.00  0.00    -0.273 OA
ATOM      5  N   UNL     1      -3.729   1.654  25.032  0.00  0.00    -0.284 N 
ATOM     12  C   UNL     1      -4.076   2.873  25.774  0.00  0.00    +0.135 C 
ATOM     15  C   UNL     1      -4.903   3.802  24.892  0.00  0.00    +0.185 C 
ATOM     18  C   UNL     1      -3.509   1.673  23.657  0.00  0.00    +0.242 C 
ATOM     19  C   UNL     1      -3.959   2.941  22.938  0.00  0.00    +0.255 C 
BRANCH   5  17
ATOM     17  C   UNL     1      -3.441   0.455  25.807  0.00  0.00    +0.182 C 
BRANCH  17  25
ATOM      7  N   UNL     1      -2.540  -1.660  24.818  0.00  0.00    -0.347 N 
ATOM      8  N   UNL     1      -4.661  -1.200  24.350  0.00  0.00    -0.239 NA
ATOM     25  C   UNL     1      -3.584  -0.793  24.985  0.00  0.00    +0.125 A 
ATOM     26  C   UNL     1      -2.980  -2.684  24.027  0.00  0.00    +0.104 A 
ATOM     27  C   UNL     1      -4.291  -2.378  23.751  0.00  0.00    +0.130 A 
ATOM     30  H   UNL     1      -1.611  -1.563  25.206  0.00  0.00    +0.167 HD
ENDBRANCH  17  25
ENDBRANCH   5  17
ENDBRANCH  14  12
BRANCH  14  16
ATOM     16  C   UNL     1      -1.572   3.055  25.602  0.00  0.00    -0.017 A 
ATOM     20  C   UNL     1       0.725   2.095  24.343  0.00  0.00    +0.033 A 
ATOM     21  C   UNL     1      -1.013   3.762  24.538  0.00  0.00    +0.008 A 
ATOM     22  C   UNL     1      -0.982   1.869  26.037  0.00  0.00    +0.008 A 
ATOM     23  C   UNL     1       0.135   3.282  23.908  0.00  0.00    +0.023 A 
ATOM     24  C   UNL     1       0.166   1.389  25.408  0.00  0.00    +0.023 A 
BRANCH  20   6
ATOM      3  O   UNL     1       1.147  -0.348  22.636  0.00  0.00    -0.275 OA
ATOM      6  N   UNL     1       1.874   1.616  23.714  0.00  0.00    -0.285 N 
ATOM     13  C   UNL     1       2.011   0.468  22.929  0.00  0.00    +0.220 C 
ATOM     28  H   UNL     1       2.712   2.176  23.855  0.00  0.00    +0.155 HD
BRANCH  13   9
ATOM      9  C   UNL     1       3.398   0.253  22.408  0.00  0.00    +0.075 C 
ATOM     10  C   UNL     1       4.361  -0.569  23.213  0.00  0.00    +0.013 C 
ATOM     11  C   UNL     1       4.550   0.916  23.104  0.00  0.00    +0.013 C 
ENDBRANCH  13   9
ENDBRANCH  20   6
ENDBRANCH  14  16
BRANCH  14   2
ATOM      2  O   UNL     1      -2.928   4.974  26.055  0.00  0.00    -0.385 OA
ATOM     29  H   UNL     1      -3.529   5.130  25.308  0.00  0.00    +0.210 HD
ENDBRANCH  14   2
TORSDOF 7
ENDMDL
MODEL 3
REMARK VINA RESULT:      -2.3     18.117     19.792
REMARK  Name = 56774833
REMARK  7 active torsions:
REMARK  status: ('A' for Active; 'I' for Inactive)
REMARK    1  A    between atoms: O_2  and  C_14
REMARK    2  A    between atoms: N_5  and  C_17
REMARK    3  A    between atoms: N_6  and  C_20
REMARK    4  A    between atoms: C_9  and  C_13
REMARK    5  A    between atoms: C_12  and  C_14
REMARK    6  A    between atoms: C_14  and  C_16
REMARK    7  A    between atoms: C_17  and  C_25
REMARK                            x       y       z     vdW  Elec       q    Type
REMARK                         _______ _______ _______ _____ _____    ______ ____
ROOT
ATOM     14  C   UNL     1      15.238  -8.773  28.544  0.00  0.00    +0.167 C 
ENDROOT
BRANCH  14  12
ATOM      1  O   UNL     1      16.850  -7.028  30.265  0.00  0.00    -0.369 OA
ATOM      4  O   UNL     1      14.911  -8.605  32.872  0.00  0.00    -0.273 OA
ATOM      5  N   UNL     1      15.670  -9.500  30.862  0.00  0.00    -0.284 N 
ATOM     12  C   UNL     1      16.288  -9.240  29.555  0.00  0.00    +0.135 C 
ATOM     15  C   UNL     1      17.404  -8.211  29.702  0.00  0.00    +0.185 C 
ATOM     18  C   UNL     1      15.565  -8.505  31.832  0.00  0.00    +0.242 C 
ATOM     19  C   UNL     1      16.403  -7.255  31.583  0.00  0.00    +0.255 C 
BRANCH   5  17
ATOM     17  C   UNL     1      15.002 -10.781  31.046  0.00  0.00    +0.182 C 
BRANCH  17  25
ATOM      7  N   UNL     1      12.922 -10.571  32.421  0.00  0.00    -0.347 N 
ATOM      8  N   UNL     1      12.636 -10.524  30.219  0.00  0.00    -0.239 NA
ATOM     25  C   UNL     1      13.516 -10.624  31.191  0.00  0.00    +0.125 A 
ATOM     26  C   UNL     1      11.578 -10.428  32.221  0.00  0.00    +0.104 A 
ATOM     27  C   UNL     1      11.426 -10.401  30.855  0.00  0.00    +0.130 A 
ATOM     30  H   UNL     1      13.389 -10.629  33.316  0.00  0.00    +0.167 HD
ENDBRANCH  17  25
ENDBRANCH   5  17
ENDBRANCH  14  12
BRANCH  14  16
ATOM     16  C   UNL     1      15.774  -7.696  27.636  0.00  0.00    -0.017 A 
ATOM     20  C   UNL     1      16.767  -5.704  25.954  0.00  0.00    +0.033 A 
ATOM     21  C   UNL     1      16.442  -8.044  26.461  0.00  0.00    +0.008 A 
ATOM     22  C   UNL     1      15.602  -6.353  27.968  0.00  0.00    +0.008 A 
ATOM     23  C   UNL     1      16.938  -7.048  25.620  0.00  0.00    +0.023 A 
ATOM     24  C   UNL     1      16.098  -5.357  27.127  0.00  0.00    +0.023 A 
BRANCH  20   6
ATOM      3  O   UNL     1      15.342  -3.503  24.474  0.00  0.00    -0.275 OA
ATOM      6  N   UNL     1      17.262  -4.707  25.113  0.00  0.00    -0.285 N 
ATOM     13  C   UNL     1      16.549  -3.706  24.449  0.00  0.00    +0.220 C 
ATOM     28  H   UNL     1      18.270  -4.725  24.967  0.00  0.00    +0.155 HD
BRANCH  13   9
ATOM      9  C   UNL     1      17.405  -2.800  23.622  0.00  0.00    +0.075 C 
ATOM     10  C   UNL     1      17.343  -1.319  23.858  0.00  0.00    +0.013 C 
ATOM     11  C   UNL     1      16.754  -1.905  22.608  0.00  0.00    +0.013 C 
ENDBRANCH  13   9
ENDBRANCH  20   6
ENDBRANCH  14  16
BRANCH  14   2
ATOM      2  O   UNL     1      14.811  -9.884  27.762  0.00  0.00    -0.385 OA
ATOM     29  H   UNL     1      15.457 -10.046  27.055  0.00  0.00    +0.210 HD
ENDBRANCH  14   2
TORSDOF 7
ENDMDL
MODEL 4
REMARK VINA RESULT:      -2.2      1.941      3.285
REMARK  Name = 56774833
REMARK  7 active torsions:
REMARK  status: ('A' for Active; 'I' for Inactive)
REMARK    1  A    between atoms: O_2  and  C_14
REMARK    2  A    between atoms: N_5  and  C_17
REMARK    3  A    between atoms: N_6  and  C_20
REMARK    4  A    between atoms: C_9  and  C_13
REMARK    5  A    between atoms: C_12  and  C_14
REMARK    6  A    between atoms: C_14  and  C_16
REMARK    7  A    between atoms: C_17  and  C_25
REMARK                            x       y       z     vdW  Elec       q    Type
REMARK                         _______ _______ _______ _____ _____    ______ ____
ROOT
ATOM     14  C   UNL     1      -3.453   0.483  24.431  0.00  0.00    +0.167 C 
ENDROOT
BRANCH  14  12
ATOM      1  O   UNL     1      -6.143   1.540  23.925  0.00  0.00    -0.369 OA
ATOM      4  O   UNL     1      -5.762   2.801  27.287  0.00  0.00    -0.273 OA
ATOM      5  N   UNL     1      -4.148   2.522  25.633  0.00  0.00    -0.284 N 
ATOM     12  C   UNL     1      -3.823   1.964  24.314  0.00  0.00    +0.135 C 
ATOM     15  C   UNL     1      -4.995   2.163  23.360  0.00  0.00    +0.185 C 
ATOM     18  C   UNL     1      -5.450   2.510  26.131  0.00  0.00    +0.242 C 
ATOM     19  C   UNL     1      -6.538   2.188  25.112  0.00  0.00    +0.255 C 
BRANCH   5  17
ATOM     17  C   UNL     1      -3.038   2.922  26.486  0.00  0.00    +0.182 C 
BRANCH  17  25
ATOM      7  N   UNL     1      -0.801   3.439  25.490  0.00  0.00    -0.347 N 
ATOM      8  N   UNL     1      -2.321   5.052  25.347  0.00  0.00    -0.239 NA
ATOM     25  C   UNL     1      -2.080   3.831  25.772  0.00  0.00    +0.125 A 
ATOM     26  C   UNL     1      -0.188   4.475  24.843  0.00  0.00    +0.104 A 
ATOM     27  C   UNL     1      -1.145   5.458  24.767  0.00  0.00    +0.130 A 
ATOM     30  H   UNL     1      -0.383   2.546  25.717  0.00  0.00    +0.167 HD
ENDBRANCH  17  25
ENDBRANCH   5  17
ENDBRANCH  14  12
BRANCH  14  16
ATOM     16  C   UNL     1      -1.993   0.245  24.139  0.00  0.00    -0.017 A 
ATOM     20  C   UNL     1       0.709  -0.193  23.598  0.00  0.00    +0.033 A 
ATOM     21  C   UNL     1      -1.280   1.158  23.361  0.00  0.00    +0.008 A 
ATOM     22  C   UNL     1      -1.354  -0.885  24.647  0.00  0.00    +0.008 A 
ATOM     23  C   UNL     1       0.070   0.938  23.090  0.00  0.00    +0.023 A 
ATOM     24  C   UNL     1      -0.004  -1.105  24.376  0.00  0.00    +0.023 A 
BRANCH  20   6
ATOM      3  O   UNL     1       2.947   1.757  23.099  0.00  0.00    -0.275 OA
ATOM      6  N   UNL     1       2.060  -0.413  23.328  0.00  0.00    -0.285 N 
ATOM     13  C   UNL     1       3.059   0.538  23.103  0.00  0.00    +0.220 C 
ATOM     28  H   UNL     1       2.340  -1.390  23.286  0.00  0.00    +0.155 HD
BRANCH  13   9
ATOM      9  C   UNL     1       4.408  -0.053  22.840  0.00  0.00    +0.075 C 
ATOM     10  C   UNL     1       4.989  -1.017  23.832  0.00  0.00    +0.013 C 
ATOM     11  C   UNL     1       5.567   0.361  23.700  0.00  0.00    +0.013 C 
ENDBRANCH  13   9
ENDBRANCH  20   6
ENDBRANCH  14  16
BRANCH  14   2
ATOM      2  O   UNL     1      -3.755   0.024  25.744  0.00  0.00    -0.385 OA
ATOM     29  H   UNL     1      -2.937  -0.272  26.177  0.00  0.00    +0.210 HD
ENDBRANCH  14   2
TORSDOF 7
ENDMDL
