MODEL 1
REMARK VINA RESULT:      -2.1      0.000      0.000
REMARK  Name = 7050187
REMARK  12 active torsions:
REMARK  status: ('A' for Active; 'I' for Inactive)
REMARK    1  A    between atoms: O_3  and  C_12
REMARK    2  A    between atoms: O_4  and  C_16
REMARK    3  A    between atoms: O_5  and  C_17
REMARK    4  A    between atoms: N_9  and  C_13
REMARK    5  A    between atoms: N_10  and  C_19
REMARK    6  A    between atoms: C_12  and  C_18
REMARK    7  A    between atoms: C_19  and  C_20
REMARK    8  A    between atoms: C_19  and  C_23
REMARK    9  A    between atoms: C_20  and  C_22
REMARK   10  A    between atoms: C_21  and  C_24
REMARK   11  A    between atoms: C_22  and  C_25
REMARK   12  A    between atoms: C_22  and  C_26
REMARK                            x       y       z     vdW  Elec       q    Type
REMARK                         _______ _______ _______ _____ _____    ______ ____
ROOT
ATOM     12  C   UNL     1      -3.673  -0.245  25.169  0.00  0.00    +0.146 C 
ATOM     13  C   UNL     1      -1.356  -1.280  25.049  0.00  0.00    +0.107 C 
ATOM     14  C   UNL     1      -2.183   0.003  24.928  0.00  0.00    +0.069 C 
ATOM     15  C   UNL     1      -4.207  -1.346  24.252  0.00  0.00    +0.078 C 
ATOM     16  C   UNL     1      -1.900  -2.398  24.148  0.00  0.00    +0.163 C 
ATOM     17  C   UNL     1      -3.395  -2.637  24.370  0.00  0.00    +0.148 C 
ENDROOT
BRANCH  12  18
ATOM      6  O   UNL     1      -5.687   1.027  24.990  0.00  0.00    -0.273 OA
ATOM     10  N   UNL     1      -3.643   2.115  24.755  0.00  0.00    -0.302 N 
ATOM     18  C   UNL     1      -4.460   1.018  24.972  0.00  0.00    +0.245 C 
ATOM     34  H   UNL     1      -2.634   2.012  24.793  0.00  0.00    +0.150 HD
BRANCH  10  19
ATOM     19  C   UNL     1      -4.154   3.446  24.516  0.00  0.00    +0.159 C 
BRANCH  19  23
ATOM      8  O   UNL     1      -4.151   4.191  26.830  0.00  0.00    -0.274 OA
ATOM     11  N   UNL     1      -6.158   4.062  25.721  0.00  0.00    -0.328 N 
ATOM     23  C   UNL     1      -4.789   3.919  25.816  0.00  0.00    +0.231 C 
ATOM     37  H   UNL     1      -6.703   4.384  26.513  0.00  0.00    +0.145 HD
ATOM     38  H   UNL     1      -6.670   3.856  24.869  0.00  0.00    +0.145 HD
ENDBRANCH  19  23
BRANCH  19  20
ATOM     20  C   UNL     1      -3.054   4.420  24.076  0.00  0.00    +0.034 C 
BRANCH  20  22
ATOM     22  C   UNL     1      -1.737   4.310  24.870  0.00  0.00    -0.015 C 
ATOM     25  C   UNL     1      -0.741   3.350  24.216  0.00  0.00    +0.007 C 
ATOM     26  C   UNL     1      -1.100   5.695  25.010  0.00  0.00    +0.007 C 
ENDBRANCH  20  22
ENDBRANCH  19  20
ENDBRANCH  10  19
ENDBRANCH  12  18
BRANCH  13   9
ATOM      7  O   UNL     1      -0.376   0.199  22.791  0.00  0.00    -0.270 OA
ATOM      9  N   UNL     1       0.028  -1.001  24.734  0.00  0.00    -0.306 N 
ATOM     21  C   UNL     1       0.402  -0.275  23.616  0.00  0.00    +0.244 C 
ATOM     32  H   UNL     1       0.730  -1.457  25.307  0.00  0.00    +0.149 HD
BRANCH  21  24
ATOM      1 CL   UNL     1       5.192  -2.251  23.955  0.00  0.00    -0.081 Cl
ATOM      2  F   UNL     1       5.925   0.406  22.862  0.00  0.00    -0.204 F 
ATOM     24  C   UNL     1       1.864  -0.098  23.420  0.00  0.00    +0.038 A 
ATOM     27  C   UNL     1       2.742  -1.134  23.742  0.00  0.00    +0.036 A 
ATOM     28  C   UNL     1       2.359   1.102  22.912  0.00  0.00    +0.016 A 
ATOM     29  C   UNL     1       4.114  -0.969  23.556  0.00  0.00    +0.077 A 
ATOM     30  C   UNL     1       3.732   1.268  22.725  0.00  0.00    +0.040 A 
ATOM     31  C   UNL     1       4.609   0.232  23.048  0.00  0.00    +0.142 A 
ENDBRANCH  21  24
ENDBRANCH  13   9
BRANCH  12   3
ATOM      3  O   UNL     1      -3.905  -0.616  26.522  0.00  0.00    -0.379 OA
ATOM     33  H   UNL     1      -3.245  -1.283  26.777  0.00  0.00    +0.211 HD
ENDBRANCH  12   3
BRANCH  16   4
ATOM      4  O   UNL     1      -1.217  -3.618  24.453  0.00  0.00    -0.387 OA
ATOM     35  H   UNL     1      -0.422  -3.397  24.968  0.00  0.00    +0.210 HD
ENDBRANCH  16   4
BRANCH  17   5
ATOM      5  O   UNL     1      -3.856  -3.562  23.385  0.00  0.00    -0.389 OA
ATOM     36  H   UNL     1      -4.281  -3.048  22.677  0.00  0.00    +0.210 HD
ENDBRANCH  17   5
TORSDOF 10
ENDMDL
MODEL 2
REMARK VINA RESULT:       0.6      1.886      4.786
REMARK  Name = 7050187
REMARK  12 active torsions:
REMARK  status: ('A' for Active; 'I' for Inactive)
REMARK    1  A    between atoms: O_3  and  C_12
REMARK    2  A    between atoms: O_4  and  C_16
REMARK    3  A    between atoms: O_5  and  C_17
REMARK    4  A    between atoms: N_9  and  C_13
REMARK    5  A    between atoms: N_10  and  C_19
REMARK    6  A    between atoms: C_12  and  C_18
REMARK    7  A    between atoms: C_19  and  C_20
REMARK    8  A    between atoms: C_19  and  C_23
REMARK    9  A    between atoms: C_20  and  C_22
REMARK   10  A    between atoms: C_21  and  C_24
REMARK   11  A    between atoms: C_22  and  C_25
REMARK   12  A    between atoms: C_22  and  C_26
REMARK                            x       y       z     vdW  Elec       q    Type
REMARK                         _______ _______ _______ _____ _____    ______ ____
ROOT
ATOM     12  C   UNL     1      -3.154   2.078  24.354  0.00  0.00    +0.146 C 
ATOM     13  C   UNL     1      -0.774   2.794  23.825  0.00  0.00    +0.107 C 
ATOM     14  C   UNL     1      -1.708   1.624  24.149  0.00  0.00    +0.069 C 
ATOM     15  C   UNL     1      -3.244   3.178  25.412  0.00  0.00    +0.078 C 
ATOM     16  C   UNL     1      -0.876   3.912  24.871  0.00  0.00    +0.163 C 
ATOM     17  C   UNL     1      -2.323   4.357  25.097  0.00  0.00    +0.148 C 
ENDROOT
BRANCH  12  18
ATOM      6  O   UNL     1      -5.219   1.058  24.987  0.00  0.00    -0.273 OA
ATOM     10  N   UNL     1      -3.318  -0.271  24.793  0.00  0.00    -0.302 N 
ATOM     18  C   UNL     1      -4.025   0.918  24.738  0.00  0.00    +0.245 C 
ATOM     34  H   UNL     1      -2.337  -0.292  24.536  0.00  0.00    +0.150 HD
BRANCH  10  19
ATOM     19  C   UNL     1      -3.922  -1.533  25.160  0.00  0.00    +0.159 C 
BRANCH  19  23
ATOM      8  O   UNL     1      -4.431  -1.671  22.787  0.00  0.00    -0.274 OA
ATOM     11  N   UNL     1      -4.403  -3.610  24.020  0.00  0.00    -0.328 N 
ATOM     23  C   UNL     1      -4.292  -2.244  23.866  0.00  0.00    +0.231 C 
ATOM     37  H   UNL     1      -4.633  -4.204  23.231  0.00  0.00    +0.145 HD
ATOM     38  H   UNL     1      -4.263  -4.071  24.913  0.00  0.00    +0.145 HD
ENDBRANCH  19  23
BRANCH  19  20
ATOM     20  C   UNL     1      -2.978  -2.406  25.996  0.00  0.00    +0.034 C 
BRANCH  20  22
ATOM     22  C   UNL     1      -1.483  -2.260  25.648  0.00  0.00    -0.015 C 
ATOM     25  C   UNL     1      -1.210  -2.456  24.156  0.00  0.00    +0.007 C 
ATOM     26  C   UNL     1      -0.983  -0.880  26.085  0.00  0.00    +0.007 C 
ENDBRANCH  20  22
ENDBRANCH  19  20
ENDBRANCH  10  19
ENDBRANCH  12  18
BRANCH  13   9
ATOM      7  O   UNL     1       0.075   0.229  22.853  0.00  0.00    -0.270 OA
ATOM      9  N   UNL     1       0.588   2.318  23.720  0.00  0.00    -0.306 N 
ATOM     21  C   UNL     1       0.897   1.058  23.236  0.00  0.00    +0.244 C 
ATOM     32  H   UNL     1       1.311   2.904  24.123  0.00  0.00    +0.149 HD
BRANCH  21  24
ATOM      1 CL   UNL     1       4.612  -2.494  23.971  0.00  0.00    -0.081 Cl
ATOM      2  F   UNL     1       6.360  -0.243  23.151  0.00  0.00    -0.204 F 
ATOM     24  C   UNL     1       2.341   0.710  23.216  0.00  0.00    +0.038 A 
ATOM     27  C   UNL     1       2.754  -0.578  23.563  0.00  0.00    +0.036 A 
ATOM     28  C   UNL     1       3.284   1.669  22.850  0.00  0.00    +0.016 A 
ATOM     29  C   UNL     1       4.110  -0.904  23.543  0.00  0.00    +0.077 A 
ATOM     30  C   UNL     1       4.641   1.342  22.830  0.00  0.00    +0.040 A 
ATOM     31  C   UNL     1       5.053   0.056  23.177  0.00  0.00    +0.142 A 
ENDBRANCH  21  24
ENDBRANCH  13   9
BRANCH  12   3
ATOM      3  O   UNL     1      -3.703   2.562  23.134  0.00  0.00    -0.379 OA
ATOM     33  H   UNL     1      -4.668   2.621  23.232  0.00  0.00    +0.211 HD
ENDBRANCH  12   3
BRANCH  16   4
ATOM      4  O   UNL     1      -0.140   5.050  24.412  0.00  0.00    -0.387 OA
ATOM     35  H   UNL     1      -0.064   4.989  23.444  0.00  0.00    +0.210 HD
ENDBRANCH  16   4
BRANCH  17   5
ATOM      5  O   UNL     1      -2.350   5.269  26.195  0.00  0.00    -0.389 OA
ATOM     36  H   UNL     1      -1.970   4.812  26.964  0.00  0.00    +0.210 HD
ENDBRANCH  17   5
TORSDOF 10
ENDMDL
MODEL 3
REMARK VINA RESULT:       1.8      1.461      2.044
REMARK  Name = 7050187
REMARK  12 active torsions:
REMARK  status: ('A' for Active; 'I' for Inactive)
REMARK    1  A    between atoms: O_3  and  C_12
REMARK    2  A    between atoms: O_4  and  C_16
REMARK    3  A    between atoms: O_5  and  C_17
REMARK    4  A    between atoms: N_9  and  C_13
REMARK    5  A    between atoms: N_10  and  C_19
REMARK    6  A    between atoms: C_12  and  C_18
REMARK    7  A    between atoms: C_19  and  C_20
REMARK    8  A    between atoms: C_19  and  C_23
REMARK    9  A    between atoms: C_20  and  C_22
REMARK   10  A    between atoms: C_21  and  C_24
REMARK   11  A    between atoms: C_22  and  C_25
REMARK   12  A    between atoms: C_22  and  C_26
REMARK                            x       y       z     vdW  Elec       q    Type
REMARK                         _______ _______ _______ _____ _____    ______ ____
ROOT
ATOM     12  C   UNL     1      -3.636  -0.209  25.329  0.00  0.00    +0.146 C 
ATOM     13  C   UNL     1      -1.408  -1.402  25.066  0.00  0.00    +0.107 C 
ATOM     14  C   UNL     1      -2.131  -0.052  25.106  0.00  0.00    +0.069 C 
ATOM     15  C   UNL     1      -4.255  -1.146  24.293  0.00  0.00    +0.078 C 
ATOM     16  C   UNL     1      -2.038  -2.358  24.044  0.00  0.00    +0.163 C 
ATOM     17  C   UNL     1      -3.548  -2.502  24.249  0.00  0.00    +0.148 C 
ENDROOT
BRANCH  12  18
ATOM      6  O   UNL     1      -5.538   1.235  25.399  0.00  0.00    -0.273 OA
ATOM     10  N   UNL     1      -3.426   2.167  25.101  0.00  0.00    -0.302 N 
ATOM     18  C   UNL     1      -4.320   1.127  25.291  0.00  0.00    +0.245 C 
ATOM     34  H   UNL     1      -2.430   1.980  25.057  0.00  0.00    +0.150 HD
BRANCH  10  19
ATOM     19  C   UNL     1      -3.833   3.551  25.006  0.00  0.00    +0.159 C 
BRANCH  19  23
ATOM      8  O   UNL     1      -3.225   4.410  27.198  0.00  0.00    -0.274 OA
ATOM     11  N   UNL     1      -1.874   4.911  25.408  0.00  0.00    -0.328 N 
ATOM     23  C   UNL     1      -2.981   4.335  25.995  0.00  0.00    +0.231 C 
ATOM     37  H   UNL     1      -1.216   5.451  25.959  0.00  0.00    +0.145 HD
ATOM     38  H   UNL     1      -1.674   4.822  24.417  0.00  0.00    +0.145 HD
ENDBRANCH  19  23
BRANCH  19  20
ATOM     20  C   UNL     1      -3.655   4.113  23.590  0.00  0.00    +0.034 C 
BRANCH  20  22
ATOM     22  C   UNL     1      -3.827   3.079  22.458  0.00  0.00    -0.015 C 
ATOM     25  C   UNL     1      -4.259   3.725  21.141  0.00  0.00    +0.007 C 
ATOM     26  C   UNL     1      -2.516   2.317  22.252  0.00  0.00    +0.007 C 
ENDBRANCH  20  22
ENDBRANCH  19  20
ENDBRANCH  10  19
ENDBRANCH  12  18
BRANCH  13   9
ATOM      7  O   UNL     1      -0.314   0.096  22.875  0.00  0.00    -0.270 OA
ATOM      9  N   UNL     1      -0.006  -1.197  24.775  0.00  0.00    -0.306 N 
ATOM     21  C   UNL     1       0.424  -0.455  23.688  0.00  0.00    +0.244 C 
ATOM     32  H   UNL     1       0.660  -1.716  25.338  0.00  0.00    +0.149 HD
BRANCH  21  24
ATOM      1 CL   UNL     1       4.547   2.343  22.225  0.00  0.00    -0.081 Cl
ATOM      2  F   UNL     1       5.992  -0.116  23.036  0.00  0.00    -0.204 F 
ATOM     24  C   UNL     1       1.896  -0.362  23.512  0.00  0.00    +0.038 A 
ATOM     27  C   UNL     1       2.467   0.809  23.009  0.00  0.00    +0.036 A 
ATOM     28  C   UNL     1       2.709  -1.442  23.852  0.00  0.00    +0.016 A 
ATOM     29  C   UNL     1       3.849   0.896  22.846  0.00  0.00    +0.077 A 
ATOM     30  C   UNL     1       4.092  -1.354  23.690  0.00  0.00    +0.040 A 
ATOM     31  C   UNL     1       4.662  -0.185  23.186  0.00  0.00    +0.142 A 
ENDBRANCH  21  24
ENDBRANCH  13   9
BRANCH  12   3
ATOM      3  O   UNL     1      -3.897  -0.719  26.631  0.00  0.00    -0.379 OA
ATOM     33  H   UNL     1      -4.298  -0.012  27.165  0.00  0.00    +0.211 HD
ENDBRANCH  12   3
BRANCH  16   4
ATOM      4  O   UNL     1      -1.455  -3.655  24.196  0.00  0.00    -0.387 OA
ATOM     35  H   UNL     1      -2.175  -4.296  24.324  0.00  0.00    +0.210 HD
ENDBRANCH  16   4
BRANCH  17   5
ATOM      5  O   UNL     1      -4.081  -3.264  23.165  0.00  0.00    -0.389 OA
ATOM     36  H   UNL     1      -3.449  -3.207  22.429  0.00  0.00    +0.210 HD
ENDBRANCH  17   5
TORSDOF 10
ENDMDL
