MODEL 1
REMARK VINA RESULT:      -5.3      0.000      0.000
REMARK  Name = 40777818
REMARK  10 active torsions:
REMARK  status: ('A' for Active; 'I' for Inactive)
REMARK    1  A    between atoms: O_3  and  C_9
REMARK    2  A    between atoms: O_4  and  C_10
REMARK    3  A    between atoms: N_7  and  C_14
REMARK    4  A    between atoms: N_8  and  C_16
REMARK    5  A    between atoms: C_11  and  C_13
REMARK    6  A    between atoms: C_12  and  C_14
REMARK    7  A    between atoms: C_13  and  C_15
REMARK    8  A    between atoms: C_16  and  C_18
REMARK    9  A    between atoms: C_16  and  C_19
REMARK   10  A    between atoms: C_17  and  C_20
REMARK                            x       y       z     vdW  Elec       q    Type
REMARK                         _______ _______ _______ _____ _____    ______ ____
ROOT
ATOM      2  O   UNL     1      -2.637   2.695  23.911  0.00  0.00    -0.366 OA
ATOM      9  C   UNL     1      -1.943   4.146  25.665  0.00  0.00    +0.175 C 
ATOM     10  C   UNL     1      -0.980   2.981  25.564  0.00  0.00    +0.176 C 
ATOM     11  C   UNL     1      -3.151   3.626  24.891  0.00  0.00    +0.158 C 
ATOM     12  C   UNL     1      -1.231   2.499  24.145  0.00  0.00    +0.167 C 
ENDROOT
BRANCH   9   3
ATOM      3  O   UNL     1      -1.426   5.279  24.967  0.00  0.00    -0.387 OA
ATOM     26  H   UNL     1      -0.786   4.950  24.313  0.00  0.00    +0.210 HD
ENDBRANCH   9   3
BRANCH  10   4
ATOM      4  O   UNL     1       0.367   3.351  25.768  0.00  0.00    -0.387 OA
ATOM     27  H   UNL     1       0.499   4.217  25.348  0.00  0.00    +0.210 HD
ENDBRANCH  10   4
BRANCH  11  13
ATOM     13  C   UNL     1      -4.144   2.876  25.769  0.00  0.00    +0.130 C 
BRANCH  13  15
ATOM      5  O   UNL     1      -5.684   1.618  24.394  0.00  0.00    -0.276 OA
ATOM      8  N   UNL     1      -3.903   0.515  25.399  0.00  0.00    -0.313 N 
ATOM     15  C   UNL     1      -4.682   1.624  25.103  0.00  0.00    +0.216 C 
ATOM     29  H   UNL     1      -3.067   0.633  25.964  0.00  0.00    +0.149 HD
BRANCH   8  16
ATOM     16  C   UNL     1      -4.190  -0.809  24.895  0.00  0.00    +0.067 C 
ATOM     18  C   UNL     1      -3.382  -1.851  25.657  0.00  0.00    +0.027 C 
ATOM     19  C   UNL     1      -3.916  -0.882  23.398  0.00  0.00    +0.027 C 
ENDBRANCH   8  16
ENDBRANCH  13  15
ENDBRANCH  11  13
BRANCH  12  14
ATOM     14  C   UNL     1      -0.877   1.039  23.934  0.00  0.00    +0.138 C 
BRANCH  14   7
ATOM      6  O   UNL     1       0.699  -0.293  21.936  0.00  0.00    -0.270 OA
ATOM      7  N   UNL     1       0.542   0.841  23.955  0.00  0.00    -0.309 N 
ATOM     17  C   UNL     1       1.228   0.181  22.939  0.00  0.00    +0.244 C 
ATOM     28  H   UNL     1       1.050   1.256  24.730  0.00  0.00    +0.149 HD
BRANCH  17  20
ATOM      1  F   UNL     1       5.115  -2.483  24.139  0.00  0.00    -0.205 F 
ATOM     20  C   UNL     1       2.696   0.035  23.122  0.00  0.00    +0.039 A 
ATOM     21  C   UNL     1       3.228  -1.180  23.553  0.00  0.00    +0.051 A 
ATOM     22  C   UNL     1       3.540   1.114  22.863  0.00  0.00    +0.013 A 
ATOM     23  C   UNL     1       4.604  -1.317  23.725  0.00  0.00    +0.124 A 
ATOM     24  C   UNL     1       4.919   0.978  23.035  0.00  0.00    +0.004 A 
ATOM     25  C   UNL     1       5.450  -0.238  23.466  0.00  0.00    +0.038 A 
ENDBRANCH  17  20
ENDBRANCH  14   7
ENDBRANCH  12  14
TORSDOF 8
ENDMDL
MODEL 2
REMARK VINA RESULT:      -4.4      2.127      4.246
REMARK  Name = 40777818
REMARK  10 active torsions:
REMARK  status: ('A' for Active; 'I' for Inactive)
REMARK    1  A    between atoms: O_3  and  C_9
REMARK    2  A    between atoms: O_4  and  C_10
REMARK    3  A    between atoms: N_7  and  C_14
REMARK    4  A    between atoms: N_8  and  C_16
REMARK    5  A    between atoms: C_11  and  C_13
REMARK    6  A    between atoms: C_12  and  C_14
REMARK    7  A    between atoms: C_13  and  C_15
REMARK    8  A    between atoms: C_16  and  C_18
REMARK    9  A    between atoms: C_16  and  C_19
REMARK   10  A    between atoms: C_17  and  C_20
REMARK                            x       y       z     vdW  Elec       q    Type
REMARK                         _______ _______ _______ _____ _____    ______ ____
ROOT
ATOM      2  O   UNL     1      -3.513   0.017  25.585  0.00  0.00    -0.366 OA
ATOM      9  C   UNL     1      -3.856  -1.361  23.675  0.00  0.00    +0.175 C 
ATOM     10  C   UNL     1      -2.442  -1.551  24.186  0.00  0.00    +0.176 C 
ATOM     11  C   UNL     1      -4.264  -0.055  24.351  0.00  0.00    +0.158 C 
ATOM     12  C   UNL     1      -2.569  -1.068  25.621  0.00  0.00    +0.167 C 
ENDROOT
BRANCH   9   3
ATOM      3  O   UNL     1      -4.705  -2.397  24.167  0.00  0.00    -0.387 OA
ATOM     26  H   UNL     1      -5.314  -1.994  24.809  0.00  0.00    +0.210 HD
ENDBRANCH   9   3
BRANCH  10   4
ATOM      4  O   UNL     1      -1.998  -2.889  24.114  0.00  0.00    -0.387 OA
ATOM     27  H   UNL     1      -1.081  -2.875  23.793  0.00  0.00    +0.210 HD
ENDBRANCH  10   4
BRANCH  11  13
ATOM     13  C   UNL     1      -3.920   1.177  23.524  0.00  0.00    +0.130 C 
BRANCH  13  15
ATOM      5  O   UNL     1      -5.197   2.868  24.689  0.00  0.00    -0.276 OA
ATOM      8  N   UNL     1      -2.895   3.119  24.498  0.00  0.00    -0.313 N 
ATOM     15  C   UNL     1      -4.104   2.469  24.299  0.00  0.00    +0.216 C 
ATOM     29  H   UNL     1      -2.037   2.684  24.169  0.00  0.00    +0.149 HD
BRANCH   8  16
ATOM     16  C   UNL     1      -2.780   4.373  25.206  0.00  0.00    +0.067 C 
ATOM     18  C   UNL     1      -1.380   4.948  25.039  0.00  0.00    +0.027 C 
ATOM     19  C   UNL     1      -3.131   4.191  26.677  0.00  0.00    +0.027 C 
ENDBRANCH   8  16
ENDBRANCH  13  15
ENDBRANCH  11  13
BRANCH  12  14
ATOM     14  C   UNL     1      -1.257  -0.585  26.212  0.00  0.00    +0.138 C 
BRANCH  14   7
ATOM      6  O   UNL     1      -0.547   1.615  24.508  0.00  0.00    -0.270 OA
ATOM      7  N   UNL     1      -0.219  -0.568  25.224  0.00  0.00    -0.309 N 
ATOM     17  C   UNL     1       0.057   0.548  24.438  0.00  0.00    +0.244 C 
ATOM     28  H   UNL     1       0.357  -1.401  25.152  0.00  0.00    +0.149 HD
BRANCH  17  20
ATOM      1  F   UNL     1       4.610   1.404  22.960  0.00  0.00    -0.205 F 
ATOM     20  C   UNL     1       1.148   0.396  23.441  0.00  0.00    +0.039 A 
ATOM     21  C   UNL     1       2.392   0.983  23.673  0.00  0.00    +0.051 A 
ATOM     22  C   UNL     1       0.928  -0.335  22.274  0.00  0.00    +0.013 A 
ATOM     23  C   UNL     1       3.416   0.840  22.737  0.00  0.00    +0.124 A 
ATOM     24  C   UNL     1       1.953  -0.478  21.337  0.00  0.00    +0.004 A 
ATOM     25  C   UNL     1       3.197   0.109  21.570  0.00  0.00    +0.038 A 
ENDBRANCH  17  20
ENDBRANCH  14   7
ENDBRANCH  12  14
TORSDOF 8
ENDMDL
MODEL 3
REMARK VINA RESULT:      -4.3      2.145      3.142
REMARK  Name = 40777818
REMARK  10 active torsions:
REMARK  status: ('A' for Active; 'I' for Inactive)
REMARK    1  A    between atoms: O_3  and  C_9
REMARK    2  A    between atoms: O_4  and  C_10
REMARK    3  A    between atoms: N_7  and  C_14
REMARK    4  A    between atoms: N_8  and  C_16
REMARK    5  A    between atoms: C_11  and  C_13
REMARK    6  A    between atoms: C_12  and  C_14
REMARK    7  A    between atoms: C_13  and  C_15
REMARK    8  A    between atoms: C_16  and  C_18
REMARK    9  A    between atoms: C_16  and  C_19
REMARK   10  A    between atoms: C_17  and  C_20
REMARK                            x       y       z     vdW  Elec       q    Type
REMARK                         _______ _______ _______ _____ _____    ______ ____
ROOT
ATOM      2  O   UNL     1      -3.238   4.227  23.864  0.00  0.00    -0.366 OA
ATOM      9  C   UNL     1      -4.649   3.308  25.546  0.00  0.00    +0.175 C 
ATOM     10  C   UNL     1      -3.310   3.670  26.155  0.00  0.00    +0.176 C 
ATOM     11  C   UNL     1      -4.325   3.293  24.055  0.00  0.00    +0.158 C 
ATOM     12  C   UNL     1      -2.781   4.681  25.151  0.00  0.00    +0.167 C 
ENDROOT
BRANCH   9   3
ATOM      3  O   UNL     1      -5.598   4.348  25.781  0.00  0.00    -0.387 OA
ATOM     26  H   UNL     1      -5.112   5.109  26.144  0.00  0.00    +0.210 HD
ENDBRANCH   9   3
BRANCH  10   4
ATOM      4  O   UNL     1      -3.415   4.216  27.452  0.00  0.00    -0.387 OA
ATOM     27  H   UNL     1      -3.246   5.170  27.382  0.00  0.00    +0.210 HD
ENDBRANCH  10   4
BRANCH  11  13
ATOM     13  C   UNL     1      -3.860   1.930  23.560  0.00  0.00    +0.130 C 
BRANCH  13  15
ATOM      5  O   UNL     1      -5.504   0.834  24.954  0.00  0.00    -0.276 OA
ATOM      8  N   UNL     1      -3.539  -0.288  24.425  0.00  0.00    -0.313 N 
ATOM     15  C   UNL     1      -4.415   0.788  24.391  0.00  0.00    +0.216 C 
ATOM     29  H   UNL     1      -2.676  -0.243  23.891  0.00  0.00    +0.149 HD
BRANCH   8  16
ATOM     16  C   UNL     1      -3.817  -1.508  25.147  0.00  0.00    +0.067 C 
ATOM     18  C   UNL     1      -2.962  -1.585  26.405  0.00  0.00    +0.027 C 
ATOM     19  C   UNL     1      -3.594  -2.721  24.253  0.00  0.00    +0.027 C 
ENDBRANCH   8  16
ENDBRANCH  13  15
ENDBRANCH  11  13
BRANCH  12  14
ATOM     14  C   UNL     1      -1.267   4.790  25.146  0.00  0.00    +0.138 C 
BRANCH  14   7
ATOM      6  O   UNL     1      -0.152   2.422  26.326  0.00  0.00    -0.270 OA
ATOM      7  N   UNL     1      -0.671   3.688  24.452  0.00  0.00    -0.309 N 
ATOM     17  C   UNL     1      -0.152   2.574  25.107  0.00  0.00    +0.244 C 
ATOM     28  H   UNL     1      -0.687   3.724  23.438  0.00  0.00    +0.149 HD
BRANCH  17  20
ATOM      1  F   UNL     1       3.528   0.920  22.394  0.00  0.00    -0.205 F 
ATOM     20  C   UNL     1       0.457   1.528  24.245  0.00  0.00    +0.039 A 
ATOM     21  C   UNL     1       1.732   1.718  23.713  0.00  0.00    +0.051 A 
ATOM     22  C   UNL     1      -0.247   0.357  23.969  0.00  0.00    +0.013 A 
ATOM     23  C   UNL     1       2.304   0.737  22.905  0.00  0.00    +0.124 A 
ATOM     24  C   UNL     1       0.325  -0.626  23.160  0.00  0.00    +0.004 A 
ATOM     25  C   UNL     1       1.601  -0.435  22.628  0.00  0.00    +0.038 A 
ENDBRANCH  17  20
ENDBRANCH  14   7
ENDBRANCH  12  14
TORSDOF 8
ENDMDL
MODEL 4
REMARK VINA RESULT:      -4.2      3.637      7.137
REMARK  Name = 40777818
REMARK  10 active torsions:
REMARK  status: ('A' for Active; 'I' for Inactive)
REMARK    1  A    between atoms: O_3  and  C_9
REMARK    2  A    between atoms: O_4  and  C_10
REMARK    3  A    between atoms: N_7  and  C_14
REMARK    4  A    between atoms: N_8  and  C_16
REMARK    5  A    between atoms: C_11  and  C_13
REMARK    6  A    between atoms: C_12  and  C_14
REMARK    7  A    between atoms: C_13  and  C_15
REMARK    8  A    between atoms: C_16  and  C_18
REMARK    9  A    between atoms: C_16  and  C_19
REMARK   10  A    between atoms: C_17  and  C_20
REMARK                            x       y       z     vdW  Elec       q    Type
REMARK                         _______ _______ _______ _____ _____    ______ ____
ROOT
ATOM      2  O   UNL     1      -1.326  -2.017  23.537  0.00  0.00    -0.366 OA
ATOM      9  C   UNL     1      -0.191  -1.029  25.380  0.00  0.00    +0.175 C 
ATOM     10  C   UNL     1      -1.680  -1.043  25.655  0.00  0.00    +0.176 C 
ATOM     11  C   UNL     1      -0.145  -1.253  23.872  0.00  0.00    +0.158 C 
ATOM     12  C   UNL     1      -2.156  -2.130  24.707  0.00  0.00    +0.167 C 
ENDROOT
BRANCH   9   3
ATOM      3  O   UNL     1       0.440  -2.143  26.012  0.00  0.00    -0.387 OA
ATOM     26  H   UNL     1      -0.257  -2.666  26.443  0.00  0.00    +0.210 HD
ENDBRANCH   9   3
BRANCH  10   4
ATOM      4  O   UNL     1      -1.997  -1.334  26.999  0.00  0.00    -0.387 OA
ATOM     27  H   UNL     1      -1.822  -2.279  27.143  0.00  0.00    +0.210 HD
ENDBRANCH  10   4
BRANCH  11  13
ATOM     13  C   UNL     1      -0.188   0.045  23.075  0.00  0.00    +0.130 C 
BRANCH  13  15
ATOM      5  O   UNL     1       1.518   1.486  24.003  0.00  0.00    -0.276 OA
ATOM      8  N   UNL     1      -0.719   1.973  24.406  0.00  0.00    -0.313 N 
ATOM     15  C   UNL     1       0.324   1.233  23.868  0.00  0.00    +0.216 C 
ATOM     29  H   UNL     1      -1.676   1.702  24.202  0.00  0.00    +0.149 HD
BRANCH   8  16
ATOM     16  C   UNL     1      -0.514   3.157  25.208  0.00  0.00    +0.067 C 
ATOM     18  C   UNL     1      -1.542   3.220  26.331  0.00  0.00    +0.027 C 
ATOM     19  C   UNL     1      -0.567   4.407  24.339  0.00  0.00    +0.027 C 
ENDBRANCH   8  16
ENDBRANCH  13  15
ENDBRANCH  11  13
BRANCH  12  14
ATOM     14  C   UNL     1      -3.615  -1.991  24.314  0.00  0.00    +0.138 C 
BRANCH  14   7
ATOM      6  O   UNL     1      -3.225   0.477  22.898  0.00  0.00    -0.270 OA
ATOM      7  N   UNL     1      -4.129  -0.704  24.679  0.00  0.00    -0.309 N 
ATOM     17  C   UNL     1      -3.889   0.445  23.930  0.00  0.00    +0.244 C 
ATOM     28  H   UNL     1      -4.734  -0.667  25.494  0.00  0.00    +0.149 HD
BRANCH  17  20
ATOM      1  F   UNL     1      -4.177   5.299  23.968  0.00  0.00    -0.205 F 
ATOM     20  C   UNL     1      -4.471   1.707  24.457  0.00  0.00    +0.039 A 
ATOM     21  C   UNL     1      -4.043   2.936  23.955  0.00  0.00    +0.051 A 
ATOM     22  C   UNL     1      -5.446   1.662  25.454  0.00  0.00    +0.013 A 
ATOM     23  C   UNL     1      -4.589   4.119  24.450  0.00  0.00    +0.124 A 
ATOM     24  C   UNL     1      -5.993   2.846  25.948  0.00  0.00    +0.004 A 
ATOM     25  C   UNL     1      -5.564   4.075  25.446  0.00  0.00    +0.038 A 
ENDBRANCH  17  20
ENDBRANCH  14   7
ENDBRANCH  12  14
TORSDOF 8
ENDMDL
MODEL 5
REMARK VINA RESULT:      -4.0      3.853      5.723
REMARK  Name = 40777818
REMARK  10 active torsions:
REMARK  status: ('A' for Active; 'I' for Inactive)
REMARK    1  A    between atoms: O_3  and  C_9
REMARK    2  A    between atoms: O_4  and  C_10
REMARK    3  A    between atoms: N_7  and  C_14
REMARK    4  A    between atoms: N_8  and  C_16
REMARK    5  A    between atoms: C_11  and  C_13
REMARK    6  A    between atoms: C_12  and  C_14
REMARK    7  A    between atoms: C_13  and  C_15
REMARK    8  A    between atoms: C_16  and  C_18
REMARK    9  A    between atoms: C_16  and  C_19
REMARK   10  A    between atoms: C_17  and  C_20
REMARK                            x       y       z     vdW  Elec       q    Type
REMARK                         _______ _______ _______ _____ _____    ______ ____
ROOT
ATOM      2  O   UNL     1      -3.151  -0.607  25.604  0.00  0.00    -0.366 OA
ATOM      9  C   UNL     1      -3.263  -2.222  23.861  0.00  0.00    +0.175 C 
ATOM     10  C   UNL     1      -1.837  -2.118  24.359  0.00  0.00    +0.176 C 
ATOM     11  C   UNL     1      -3.883  -0.937  24.402  0.00  0.00    +0.158 C 
ATOM     12  C   UNL     1      -2.038  -1.509  25.736  0.00  0.00    +0.167 C 
ENDROOT
BRANCH   9   3
ATOM      3  O   UNL     1      -3.924  -3.326  24.479  0.00  0.00    -0.387 OA
ATOM     26  H   UNL     1      -3.997  -4.031  23.813  0.00  0.00    +0.210 HD
ENDBRANCH   9   3
BRANCH  10   4
ATOM      4  O   UNL     1      -1.174  -3.362  24.420  0.00  0.00    -0.387 OA
ATOM     27  H   UNL     1      -0.286  -3.203  24.781  0.00  0.00    +0.210 HD
ENDBRANCH  10   4
BRANCH  11  13
ATOM     13  C   UNL     1      -3.755   0.237  23.441  0.00  0.00    +0.130 C 
BRANCH  13  15
ATOM      5  O   UNL     1      -4.164   2.618  23.554  0.00  0.00    -0.276 OA
ATOM      8  N   UNL     1      -5.377   1.194  24.932  0.00  0.00    -0.313 N 
ATOM     15  C   UNL     1      -4.434   1.491  23.959  0.00  0.00    +0.216 C 
ATOM     29  H   UNL     1      -5.556   0.222  25.170  0.00  0.00    +0.149 HD
BRANCH   8  16
ATOM     16  C   UNL     1      -6.171   2.202  25.596  0.00  0.00    +0.067 C 
ATOM     18  C   UNL     1      -5.399   3.513  25.678  0.00  0.00    +0.027 C 
ATOM     19  C   UNL     1      -6.595   1.723  26.979  0.00  0.00    +0.027 C 
ENDBRANCH   8  16
ENDBRANCH  13  15
ENDBRANCH  11  13
BRANCH  12  14
ATOM     14  C   UNL     1      -0.824  -0.752  26.244  0.00  0.00    +0.138 C 
BRANCH  14   7
ATOM      6  O   UNL     1      -0.123   0.810  23.939  0.00  0.00    -0.270 OA
ATOM      7  N   UNL     1      -0.992   0.662  26.085  0.00  0.00    -0.309 N 
ATOM     17  C   UNL     1      -0.622   1.341  24.927  0.00  0.00    +0.244 C 
ATOM     28  H   UNL     1      -1.450   1.156  26.845  0.00  0.00    +0.149 HD
BRANCH  17  20
ATOM      1  F   UNL     1      -2.960   5.288  26.541  0.00  0.00    -0.205 F 
ATOM     20  C   UNL     1      -0.838   2.812  24.931  0.00  0.00    +0.039 A 
ATOM     21  C   UNL     1      -1.817   3.372  25.750  0.00  0.00    +0.051 A 
ATOM     22  C   UNL     1      -0.059   3.631  24.114  0.00  0.00    +0.013 A 
ATOM     23  C   UNL     1      -2.019   4.751  25.754  0.00  0.00    +0.124 A 
ATOM     24  C   UNL     1      -0.260   5.012  24.117  0.00  0.00    +0.004 A 
ATOM     25  C   UNL     1      -1.241   5.571  24.938  0.00  0.00    +0.038 A 
ENDBRANCH  17  20
ENDBRANCH  14   7
ENDBRANCH  12  14
TORSDOF 8
ENDMDL
MODEL 6
REMARK VINA RESULT:      -4.0      2.048      5.481
REMARK  Name = 40777818
REMARK  10 active torsions:
REMARK  status: ('A' for Active; 'I' for Inactive)
REMARK    1  A    between atoms: O_3  and  C_9
REMARK    2  A    between atoms: O_4  and  C_10
REMARK    3  A    between atoms: N_7  and  C_14
REMARK    4  A    between atoms: N_8  and  C_16
REMARK    5  A    between atoms: C_11  and  C_13
REMARK    6  A    between atoms: C_12  and  C_14
REMARK    7  A    between atoms: C_13  and  C_15
REMARK    8  A    between atoms: C_16  and  C_18
REMARK    9  A    between atoms: C_16  and  C_19
REMARK   10  A    between atoms: C_17  and  C_20
REMARK                            x       y       z     vdW  Elec       q    Type
REMARK                         _______ _______ _______ _____ _____    ______ ____
ROOT
ATOM      2  O   UNL     1      -2.808   3.274  26.567  0.00  0.00    -0.366 OA
ATOM      9  C   UNL     1      -1.660   4.428  24.831  0.00  0.00    +0.175 C 
ATOM     10  C   UNL     1      -3.015   3.978  24.325  0.00  0.00    +0.176 C 
ATOM     11  C   UNL     1      -1.479   3.558  26.071  0.00  0.00    +0.158 C 
ATOM     12  C   UNL     1      -3.774   3.776  25.626  0.00  0.00    +0.167 C 
ENDROOT
BRANCH   9   3
ATOM      3  O   UNL     1      -1.715   5.791  25.251  0.00  0.00    -0.387 OA
ATOM     26  H   UNL     1      -1.556   6.344  24.467  0.00  0.00    +0.210 HD
ENDBRANCH   9   3
BRANCH  10   4
ATOM      4  O   UNL     1      -3.641   4.925  23.487  0.00  0.00    -0.387 OA
ATOM     27  H   UNL     1      -3.465   4.663  22.568  0.00  0.00    +0.210 HD
ENDBRANCH  10   4
BRANCH  11  13
ATOM     13  C   UNL     1      -0.799   2.229  25.773  0.00  0.00    +0.130 C 
BRANCH  13  15
ATOM      5  O   UNL     1       0.252   3.301  23.877  0.00  0.00    -0.276 OA
ATOM      8  N   UNL     1       0.457   1.000  24.134  0.00  0.00    -0.313 N 
ATOM     15  C   UNL     1       0.020   2.267  24.496  0.00  0.00    +0.216 C 
ATOM     29  H   UNL     1       0.244   0.211  24.737  0.00  0.00    +0.149 HD
BRANCH   8  16
ATOM     16  C   UNL     1       1.256   0.748  22.957  0.00  0.00    +0.067 C 
ATOM     18  C   UNL     1       0.876  -0.590  22.337  0.00  0.00    +0.027 C 
ATOM     19  C   UNL     1       2.740   0.798  23.297  0.00  0.00    +0.027 C 
ENDBRANCH   8  16
ENDBRANCH  13  15
ENDBRANCH  11  13
BRANCH  12  14
ATOM     14  C   UNL     1      -4.926   2.795  25.505  0.00  0.00    +0.138 C 
BRANCH  14   7
ATOM      6  O   UNL     1      -3.719   1.521  23.231  0.00  0.00    -0.270 OA
ATOM      7  N   UNL     1      -4.451   1.445  25.432  0.00  0.00    -0.309 N 
ATOM     17  C   UNL     1      -3.877   0.907  24.283  0.00  0.00    +0.244 C 
ATOM     28  H   UNL     1      -4.501   0.896  26.284  0.00  0.00    +0.149 HD
BRANCH  17  20
ATOM      1  F   UNL     1      -0.555  -2.494  25.304  0.00  0.00    -0.205 F 
ATOM     20  C   UNL     1      -3.459  -0.517  24.361  0.00  0.00    +0.039 A 
ATOM     21  C   UNL     1      -2.177  -0.844  24.805  0.00  0.00    +0.051 A 
ATOM     22  C   UNL     1      -4.348  -1.525  23.992  0.00  0.00    +0.013 A 
ATOM     23  C   UNL     1      -1.786  -2.180  24.879  0.00  0.00    +0.124 A 
ATOM     24  C   UNL     1      -3.956  -2.863  24.066  0.00  0.00    +0.004 A 
ATOM     25  C   UNL     1      -2.674  -3.189  24.510  0.00  0.00    +0.038 A 
ENDBRANCH  17  20
ENDBRANCH  14   7
ENDBRANCH  12  14
TORSDOF 8
ENDMDL
MODEL 7
REMARK VINA RESULT:      -3.9      1.739      3.596
REMARK  Name = 40777818
REMARK  10 active torsions:
REMARK  status: ('A' for Active; 'I' for Inactive)
REMARK    1  A    between atoms: O_3  and  C_9
REMARK    2  A    between atoms: O_4  and  C_10
REMARK    3  A    between atoms: N_7  and  C_14
REMARK    4  A    between atoms: N_8  and  C_16
REMARK    5  A    between atoms: C_11  and  C_13
REMARK    6  A    between atoms: C_12  and  C_14
REMARK    7  A    between atoms: C_13  and  C_15
REMARK    8  A    between atoms: C_16  and  C_18
REMARK    9  A    between atoms: C_16  and  C_19
REMARK   10  A    between atoms: C_17  and  C_20
REMARK                            x       y       z     vdW  Elec       q    Type
REMARK                         _______ _______ _______ _____ _____    ______ ____
ROOT
ATOM      2  O   UNL     1      -2.569   0.262  25.374  0.00  0.00    -0.366 OA
ATOM      9  C   UNL     1      -3.338  -1.970  25.076  0.00  0.00    +0.175 C 
ATOM     10  C   UNL     1      -2.288  -1.655  24.030  0.00  0.00    +0.176 C 
ATOM     11  C   UNL     1      -3.732  -0.577  25.558  0.00  0.00    +0.158 C 
ATOM     12  C   UNL     1      -1.560  -0.485  24.670  0.00  0.00    +0.167 C 
ENDROOT
BRANCH   9   3
ATOM      3  O   UNL     1      -2.751  -2.668  26.174  0.00  0.00    -0.387 OA
ATOM     26  H   UNL     1      -2.184  -3.366  25.804  0.00  0.00    +0.210 HD
ENDBRANCH   9   3
BRANCH  10   4
ATOM      4  O   UNL     1      -1.422  -2.738  23.765  0.00  0.00    -0.387 OA
ATOM     27  H   UNL     1      -1.421  -2.883  22.805  0.00  0.00    +0.210 HD
ENDBRANCH  10   4
BRANCH  11  13
ATOM     13  C   UNL     1      -4.876   0.030  24.756  0.00  0.00    +0.130 C 
BRANCH  13  15
ATOM      5  O   UNL     1      -6.184   1.929  25.486  0.00  0.00    -0.276 OA
ATOM      8  N   UNL     1      -3.963   2.249  24.881  0.00  0.00    -0.313 N 
ATOM     15  C   UNL     1      -5.108   1.492  25.088  0.00  0.00    +0.216 C 
ATOM     29  H   UNL     1      -3.108   1.785  24.587  0.00  0.00    +0.149 HD
BRANCH   8  16
ATOM     16  C   UNL     1      -3.905   3.673  25.117  0.00  0.00    +0.067 C 
ATOM     18  C   UNL     1      -3.802   4.424  23.796  0.00  0.00    +0.027 C 
ATOM     19  C   UNL     1      -2.742   4.015  26.040  0.00  0.00    +0.027 C 
ENDBRANCH   8  16
ENDBRANCH  13  15
ENDBRANCH  11  13
BRANCH  12  14
ATOM     14  C   UNL     1      -0.865   0.415  23.665  0.00  0.00    +0.138 C 
BRANCH  14   7
ATOM      6  O   UNL     1       1.010  -0.309  21.614  0.00  0.00    -0.270 OA
ATOM      7  N   UNL     1       0.559   0.336  23.798  0.00  0.00    -0.309 N 
ATOM     17  C   UNL     1       1.396  -0.025  22.745  0.00  0.00    +0.244 C 
ATOM     28  H   UNL     1       0.951   0.612  24.692  0.00  0.00    +0.149 HD
BRANCH  17  20
ATOM      1  F   UNL     1       5.314  -2.456  24.290  0.00  0.00    -0.205 F 
ATOM     20  C   UNL     1       2.849  -0.085  23.052  0.00  0.00    +0.039 A 
ATOM     21  C   UNL     1       3.412  -1.266  23.537  0.00  0.00    +0.051 A 
ATOM     22  C   UNL     1       3.650   1.039  22.854  0.00  0.00    +0.013 A 
ATOM     23  C   UNL     1       4.775  -1.323  23.824  0.00  0.00    +0.124 A 
ATOM     24  C   UNL     1       5.015   0.983  23.141  0.00  0.00    +0.004 A 
ATOM     25  C   UNL     1       5.576  -0.199  23.626  0.00  0.00    +0.038 A 
ENDBRANCH  17  20
ENDBRANCH  14   7
ENDBRANCH  12  14
TORSDOF 8
ENDMDL
MODEL 8
REMARK VINA RESULT:      -3.5      2.223      3.823
REMARK  Name = 40777818
REMARK  10 active torsions:
REMARK  status: ('A' for Active; 'I' for Inactive)
REMARK    1  A    between atoms: O_3  and  C_9
REMARK    2  A    between atoms: O_4  and  C_10
REMARK    3  A    between atoms: N_7  and  C_14
REMARK    4  A    between atoms: N_8  and  C_16
REMARK    5  A    between atoms: C_11  and  C_13
REMARK    6  A    between atoms: C_12  and  C_14
REMARK    7  A    between atoms: C_13  and  C_15
REMARK    8  A    between atoms: C_16  and  C_18
REMARK    9  A    between atoms: C_16  and  C_19
REMARK   10  A    between atoms: C_17  and  C_20
REMARK                            x       y       z     vdW  Elec       q    Type
REMARK                         _______ _______ _______ _____ _____    ______ ____
ROOT
ATOM      2  O   UNL     1      -4.027   1.507  24.095  0.00  0.00    -0.366 OA
ATOM      9  C   UNL     1      -5.926   1.758  25.507  0.00  0.00    +0.175 C 
ATOM     10  C   UNL     1      -5.014   2.956  25.672  0.00  0.00    +0.176 C 
ATOM     11  C   UNL     1      -4.999   0.743  24.845  0.00  0.00    +0.158 C 
ATOM     12  C   UNL     1      -4.206   2.905  24.386  0.00  0.00    +0.167 C 
ENDROOT
BRANCH   9   3
ATOM      3  O   UNL     1      -6.978   2.059  24.590  0.00  0.00    -0.387 OA
ATOM     26  H   UNL     1      -6.566   2.319  23.749  0.00  0.00    +0.210 HD
ENDBRANCH   9   3
BRANCH  10   4
ATOM      4  O   UNL     1      -5.713   4.175  25.811  0.00  0.00    -0.387 OA
ATOM     27  H   UNL     1      -6.655   3.990  25.661  0.00  0.00    +0.210 HD
ENDBRANCH  10   4
BRANCH  11  13
ATOM     13  C   UNL     1      -4.242  -0.116  25.849  0.00  0.00    +0.130 C 
BRANCH  13  15
ATOM      5  O   UNL     1      -4.162  -2.054  24.405  0.00  0.00    -0.276 OA
ATOM      8  N   UNL     1      -2.277  -1.482  25.637  0.00  0.00    -0.313 N 
ATOM     15  C   UNL     1      -3.586  -1.323  25.205  0.00  0.00    +0.216 C 
ATOM     29  H   UNL     1      -1.877  -0.797  26.273  0.00  0.00    +0.149 HD
BRANCH   8  16
ATOM     16  C   UNL     1      -1.420  -2.554  25.184  0.00  0.00    +0.067 C 
ATOM     18  C   UNL     1       0.041  -2.208  25.442  0.00  0.00    +0.027 C 
ATOM     19  C   UNL     1      -1.667  -2.847  23.709  0.00  0.00    +0.027 C 
ENDBRANCH   8  16
ENDBRANCH  13  15
ENDBRANCH  11  13
BRANCH  12  14
ATOM     14  C   UNL     1      -2.852   3.581  24.498  0.00  0.00    +0.138 C 
BRANCH  14   7
ATOM      6  O   UNL     1      -0.799   2.101  25.854  0.00  0.00    -0.270 OA
ATOM      7  N   UNL     1      -1.825   2.788  23.889  0.00  0.00    -0.309 N 
ATOM     17  C   UNL     1      -0.866   2.100  24.628  0.00  0.00    +0.244 C 
ATOM     28  H   UNL     1      -1.854   2.699  22.879  0.00  0.00    +0.149 HD
BRANCH  17  20
ATOM      1  F   UNL     1       3.723   1.394  23.182  0.00  0.00    -0.205 F 
ATOM     20  C   UNL     1       0.147   1.344  23.846  0.00  0.00    +0.039 A 
ATOM     21  C   UNL     1       1.487   1.732  23.881  0.00  0.00    +0.051 A 
ATOM     22  C   UNL     1      -0.242   0.246  23.079  0.00  0.00    +0.013 A 
ATOM     23  C   UNL     1       2.437   1.022  23.149  0.00  0.00    +0.124 A 
ATOM     24  C   UNL     1       0.709  -0.464  22.346  0.00  0.00    +0.004 A 
ATOM     25  C   UNL     1       2.049  -0.076  22.381  0.00  0.00    +0.038 A 
ENDBRANCH  17  20
ENDBRANCH  14   7
ENDBRANCH  12  14
TORSDOF 8
ENDMDL
MODEL 9
REMARK VINA RESULT:      -3.4      3.666      4.971
REMARK  Name = 40777818
REMARK  10 active torsions:
REMARK  status: ('A' for Active; 'I' for Inactive)
REMARK    1  A    between atoms: O_3  and  C_9
REMARK    2  A    between atoms: O_4  and  C_10
REMARK    3  A    between atoms: N_7  and  C_14
REMARK    4  A    between atoms: N_8  and  C_16
REMARK    5  A    between atoms: C_11  and  C_13
REMARK    6  A    between atoms: C_12  and  C_14
REMARK    7  A    between atoms: C_13  and  C_15
REMARK    8  A    between atoms: C_16  and  C_18
REMARK    9  A    between atoms: C_16  and  C_19
REMARK   10  A    between atoms: C_17  and  C_20
REMARK                            x       y       z     vdW  Elec       q    Type
REMARK                         _______ _______ _______ _____ _____    ______ ____
ROOT
ATOM      2  O   UNL     1      -0.184   2.882  24.335  0.00  0.00    -0.366 OA
ATOM      9  C   UNL     1      -2.004   4.321  24.863  0.00  0.00    +0.175 C 
ATOM     10  C   UNL     1      -1.751   3.381  26.025  0.00  0.00    +0.176 C 
ATOM     11  C   UNL     1      -1.265   3.624  23.725  0.00  0.00    +0.158 C 
ATOM     12  C   UNL     1      -0.316   2.955  25.766  0.00  0.00    +0.167 C 
ENDROOT
BRANCH   9   3
ATOM      3  O   UNL     1      -1.370   5.578  25.096  0.00  0.00    -0.387 OA
ATOM     26  H   UNL     1      -1.142   5.954  24.229  0.00  0.00    +0.210 HD
ENDBRANCH   9   3
BRANCH  10   4
ATOM      4  O   UNL     1      -1.902   3.998  27.285  0.00  0.00    -0.387 OA
ATOM     27  H   UNL     1      -1.877   4.959  27.145  0.00  0.00    +0.210 HD
ENDBRANCH  10   4
BRANCH  11  13
ATOM     13  C   UNL     1      -2.139   2.634  22.966  0.00  0.00    +0.130 C 
BRANCH  13  15
ATOM      5  O   UNL     1      -4.311   3.482  22.327  0.00  0.00    -0.276 OA
ATOM      8  N   UNL     1      -4.073   2.401  24.371  0.00  0.00    -0.313 N 
ATOM     15  C   UNL     1      -3.620   2.898  23.157  0.00  0.00    +0.216 C 
ATOM     29  H   UNL     1      -3.429   1.896  24.972  0.00  0.00    +0.149 HD
BRANCH   8  16
ATOM     16  C   UNL     1      -5.446   2.518  24.808  0.00  0.00    +0.067 C 
ATOM     18  C   UNL     1      -5.652   3.828  25.556  0.00  0.00    +0.027 C 
ATOM     19  C   UNL     1      -5.835   1.322  25.669  0.00  0.00    +0.027 C 
ENDBRANCH   8  16
ENDBRANCH  13  15
ENDBRANCH  11  13
BRANCH  12  14
ATOM     14  C   UNL     1       0.034   1.612  26.380  0.00  0.00    +0.138 C 
BRANCH  14   7
ATOM      6  O   UNL     1       0.211  -0.155  24.123  0.00  0.00    -0.270 OA
ATOM      7  N   UNL     1      -0.916   0.607  26.004  0.00  0.00    -0.309 N 
ATOM     17  C   UNL     1      -0.749  -0.209  24.888  0.00  0.00    +0.244 C 
ATOM     28  H   UNL     1      -1.708   0.471  26.624  0.00  0.00    +0.149 HD
BRANCH  17  20
ATOM      1  F   UNL     1      -5.409  -1.217  23.931  0.00  0.00    -0.205 F 
ATOM     20  C   UNL     1      -1.837  -1.184  24.619  0.00  0.00    +0.039 A 
ATOM     21  C   UNL     1      -3.139  -0.734  24.397  0.00  0.00    +0.051 A 
ATOM     22  C   UNL     1      -1.557  -2.550  24.588  0.00  0.00    +0.013 A 
ATOM     23  C   UNL     1      -4.160  -1.649  24.144  0.00  0.00    +0.124 A 
ATOM     24  C   UNL     1      -2.578  -3.466  24.334  0.00  0.00    +0.004 A 
ATOM     25  C   UNL     1      -3.880  -3.015  24.112  0.00  0.00    +0.038 A 
ENDBRANCH  17  20
ENDBRANCH  14   7
ENDBRANCH  12  14
TORSDOF 8
ENDMDL
MODEL 10
REMARK VINA RESULT:      -3.4      2.685      5.752
REMARK  Name = 40777818
REMARK  10 active torsions:
REMARK  status: ('A' for Active; 'I' for Inactive)
REMARK    1  A    between atoms: O_3  and  C_9
REMARK    2  A    between atoms: O_4  and  C_10
REMARK    3  A    between atoms: N_7  and  C_14
REMARK    4  A    between atoms: N_8  and  C_16
REMARK    5  A    between atoms: C_11  and  C_13
REMARK    6  A    between atoms: C_12  and  C_14
REMARK    7  A    between atoms: C_13  and  C_15
REMARK    8  A    between atoms: C_16  and  C_18
REMARK    9  A    between atoms: C_16  and  C_19
REMARK   10  A    between atoms: C_17  and  C_20
REMARK                            x       y       z     vdW  Elec       q    Type
REMARK                         _______ _______ _______ _____ _____    ______ ____
ROOT
ATOM      2  O   UNL     1      -2.893   3.715  26.779  0.00  0.00    -0.366 OA
ATOM      9  C   UNL     1      -1.690   4.445  24.860  0.00  0.00    +0.175 C 
ATOM     10  C   UNL     1      -3.086   4.023  24.449  0.00  0.00    +0.176 C 
ATOM     11  C   UNL     1      -1.555   3.798  26.235  0.00  0.00    +0.158 C 
ATOM     12  C   UNL     1      -3.834   4.118  25.768  0.00  0.00    +0.167 C 
ENDROOT
BRANCH   9   3
ATOM      3  O   UNL     1      -1.630   5.861  25.030  0.00  0.00    -0.387 OA
ATOM     26  H   UNL     1      -0.759   6.155  24.712  0.00  0.00    +0.210 HD
ENDBRANCH   9   3
BRANCH  10   4
ATOM      4  O   UNL     1      -3.650   4.853  23.457  0.00  0.00    -0.387 OA
ATOM     27  H   UNL     1      -3.732   5.745  23.835  0.00  0.00    +0.210 HD
ENDBRANCH  10   4
BRANCH  11  13
ATOM     13  C   UNL     1      -0.988   2.386  26.177  0.00  0.00    +0.130 C 
BRANCH  13  15
ATOM      5  O   UNL     1      -0.006   2.898  24.027  0.00  0.00    -0.276 OA
ATOM      8  N   UNL     1      -0.389   0.678  24.596  0.00  0.00    -0.313 N 
ATOM     15  C   UNL     1      -0.406   2.048  24.817  0.00  0.00    +0.216 C 
ATOM     29  H   UNL     1      -0.707   0.053  25.332  0.00  0.00    +0.149 HD
BRANCH   8  16
ATOM     16  C   UNL     1       0.112   0.080  23.380  0.00  0.00    +0.067 C 
ATOM     18  C   UNL     1      -0.387  -1.353  23.251  0.00  0.00    +0.027 C 
ATOM     19  C   UNL     1       1.634   0.142  23.343  0.00  0.00    +0.027 C 
ENDBRANCH   8  16
ENDBRANCH  13  15
ENDBRANCH  11  13
BRANCH  12  14
ATOM     14  C   UNL     1      -5.061   3.227  25.829  0.00  0.00    +0.138 C 
BRANCH  14   7
ATOM      6  O   UNL     1      -4.166   1.736  23.544  0.00  0.00    -0.270 OA
ATOM      7  N   UNL     1      -4.698   1.842  25.801  0.00  0.00    -0.309 N 
ATOM     17  C   UNL     1      -4.273   1.196  24.642  0.00  0.00    +0.244 C 
ATOM     28  H   UNL     1      -4.711   1.347  26.687  0.00  0.00    +0.149 HD
BRANCH  17  20
ATOM      1  F   UNL     1      -4.542  -3.374  23.005  0.00  0.00    -0.205 F 
ATOM     20  C   UNL     1      -3.958  -0.250  24.774  0.00  0.00    +0.039 A 
ATOM     21  C   UNL     1      -4.407  -1.152  23.809  0.00  0.00    +0.051 A 
ATOM     22  C   UNL     1      -3.213  -0.705  25.861  0.00  0.00    +0.013 A 
ATOM     23  C   UNL     1      -4.111  -2.509  23.931  0.00  0.00    +0.124 A 
ATOM     24  C   UNL     1      -2.917  -2.063  25.985  0.00  0.00    +0.004 A 
ATOM     25  C   UNL     1      -3.366  -2.965  25.019  0.00  0.00    +0.038 A 
ENDBRANCH  17  20
ENDBRANCH  14   7
ENDBRANCH  12  14
TORSDOF 8
ENDMDL
