MODEL 1
REMARK VINA RESULT:      -4.9      0.000      0.000
REMARK  Name = 26744962
REMARK  6 active torsions:
REMARK  status: ('A' for Active; 'I' for Inactive)
REMARK    1  A    between atoms: N_3  and  C_13
REMARK    2  A    between atoms: C_8  and  C_14
REMARK    3  A    between atoms: C_13  and  C_15
REMARK    4  A    between atoms: C_17  and  C_18
REMARK    5  A    between atoms: C_18  and  C_21
REMARK    6  A    between atoms: C_18  and  C_22
REMARK                            x       y       z     vdW  Elec       q    Type
REMARK                         _______ _______ _______ _____ _____    ______ ____
ROOT
ATOM      3  N   UNL     1      -0.508   0.995  25.398  0.00  0.00    -0.281 NA
ATOM      4  N   UNL     1      -2.657   3.976  26.149  0.00  0.00    -0.347 N 
ATOM      5  N   UNL     1      -1.380   5.022  24.640  0.00  0.00    -0.240 NA
ATOM      8  C   UNL     1      -0.189   1.450  24.000  0.00  0.00    +0.152 C 
ATOM      9  C   UNL     1      -0.027   3.008  23.899  0.00  0.00    +0.086 C 
ATOM     10  C   UNL     1      -1.781   1.584  25.907  0.00  0.00    +0.140 C 
ATOM     11  C   UNL     1      -1.835   3.031  25.614  0.00  0.00    +0.053 A 
ATOM     12  C   UNL     1      -1.071   3.693  24.689  0.00  0.00    +0.065 A 
ATOM     16  C   UNL     1      -2.343   5.161  25.530  0.00  0.00    +0.197 A 
ATOM     26  H   UNL     1      -3.362   3.838  26.859  0.00  0.00    +0.167 HD
ENDROOT
BRANCH   8  14
ATOM      2  O   UNL     1       0.896   0.069  22.287  0.00  0.00    -0.336 OA
ATOM      6  N   UNL     1       2.301   0.867  23.838  0.00  0.00    -0.194 NA
ATOM      7  N   UNL     1       2.168  -0.409  21.944  0.00  0.00    -0.061 NA
ATOM     14  C   UNL     1       1.065   0.810  23.413  0.00  0.00    +0.245 A 
ATOM     17  C   UNL     1       2.942   0.104  22.905  0.00  0.00    +0.174 A 
BRANCH  17  18
ATOM     18  C   UNL     1       4.388  -0.140  22.951  0.00  0.00    +0.054 C 
ATOM     21  C   UNL     1       4.767  -1.417  23.743  0.00  0.00    +0.015 C 
ATOM     22  C   UNL     1       5.193   1.057  23.515  0.00  0.00    +0.015 C 
ENDBRANCH  17  18
ENDBRANCH   8  14
BRANCH   3  13
ATOM     13  C   UNL     1      -0.608  -0.467  25.500  0.00  0.00    +0.120 C 
BRANCH  13  15
ATOM      1  F   UNL     1      -5.481  -2.390  23.427  0.00  0.00    -0.205 F 
ATOM     15  C   UNL     1      -1.910  -0.981  24.946  0.00  0.00    -0.033 A 
ATOM     19  C   UNL     1      -2.181  -2.349  24.956  0.00  0.00    +0.008 A 
ATOM     20  C   UNL     1      -2.847  -0.089  24.423  0.00  0.00    +0.008 A 
ATOM     23  C   UNL     1      -3.387  -2.825  24.443  0.00  0.00    +0.038 A 
ATOM     24  C   UNL     1      -4.052  -0.565  23.909  0.00  0.00    +0.038 A 
ATOM     25  C   UNL     1      -4.323  -1.934  23.920  0.00  0.00    +0.123 A 
ENDBRANCH  13  15
ENDBRANCH   3  13
TORSDOF 4
ENDMDL
MODEL 2
REMARK VINA RESULT:      -4.6      1.845      5.408
REMARK  Name = 26744962
REMARK  6 active torsions:
REMARK  status: ('A' for Active; 'I' for Inactive)
REMARK    1  A    between atoms: N_3  and  C_13
REMARK    2  A    between atoms: C_8  and  C_14
REMARK    3  A    between atoms: C_13  and  C_15
REMARK    4  A    between atoms: C_17  and  C_18
REMARK    5  A    between atoms: C_18  and  C_21
REMARK    6  A    between atoms: C_18  and  C_22
REMARK                            x       y       z     vdW  Elec       q    Type
REMARK                         _______ _______ _______ _____ _____    ______ ____
ROOT
ATOM      3  N   UNL     1      -0.253  -0.013  24.585  0.00  0.00    -0.281 NA
ATOM      4  N   UNL     1       3.052  -0.732  22.963  0.00  0.00    -0.347 N 
ATOM      5  N   UNL     1       3.114   1.470  22.581  0.00  0.00    -0.240 NA
ATOM      8  C   UNL     1       0.119   1.398  24.949  0.00  0.00    +0.152 C 
ATOM      9  C   UNL     1       1.007   2.086  23.854  0.00  0.00    +0.086 C 
ATOM     10  C   UNL     1       0.946  -0.885  24.407  0.00  0.00    +0.140 C 
ATOM     11  C   UNL     1       1.969  -0.199  23.592  0.00  0.00    +0.053 A 
ATOM     12  C   UNL     1       2.033   1.149  23.350  0.00  0.00    +0.065 A 
ATOM     16  C   UNL     1       3.712   0.315  22.366  0.00  0.00    +0.197 A 
ATOM     26  H   UNL     1       3.325  -1.705  22.939  0.00  0.00    +0.167 HD
ENDROOT
BRANCH   8  14
ATOM      2  O   UNL     1      -1.012   3.088  26.321  0.00  0.00    -0.336 OA
ATOM      6  N   UNL     1      -2.185   2.439  24.527  0.00  0.00    -0.194 NA
ATOM      7  N   UNL     1      -2.209   3.816  26.354  0.00  0.00    -0.061 NA
ATOM     14  C   UNL     1      -1.080   2.303  25.215  0.00  0.00    +0.245 A 
ATOM     17  C   UNL     1      -2.847   3.378  25.264  0.00  0.00    +0.174 A 
BRANCH  17  18
ATOM     18  C   UNL     1      -4.175   3.876  24.888  0.00  0.00    +0.054 C 
ATOM     21  C   UNL     1      -5.329   3.176  25.648  0.00  0.00    +0.015 C 
ATOM     22  C   UNL     1      -4.452   3.790  23.366  0.00  0.00    +0.015 C 
ENDBRANCH  17  18
ENDBRANCH   8  14
BRANCH   3  13
ATOM     13  C   UNL     1      -1.127  -0.638  25.587  0.00  0.00    +0.120 C 
BRANCH  13  15
ATOM      1  F   UNL     1      -5.625  -3.075  23.227  0.00  0.00    -0.205 F 
ATOM     15  C   UNL     1      -2.329  -1.289  24.956  0.00  0.00    -0.033 A 
ATOM     19  C   UNL     1      -2.351  -2.670  24.760  0.00  0.00    +0.008 A 
ATOM     20  C   UNL     1      -3.421  -0.512  24.569  0.00  0.00    +0.008 A 
ATOM     23  C   UNL     1      -3.465  -3.273  24.176  0.00  0.00    +0.038 A 
ATOM     24  C   UNL     1      -4.533  -1.115  23.984  0.00  0.00    +0.038 A 
ATOM     25  C   UNL     1      -4.556  -2.496  23.788  0.00  0.00    +0.123 A 
ENDBRANCH  13  15
ENDBRANCH   3  13
TORSDOF 4
ENDMDL
MODEL 3
REMARK VINA RESULT:      -3.8      2.570      4.740
REMARK  Name = 26744962
REMARK  6 active torsions:
REMARK  status: ('A' for Active; 'I' for Inactive)
REMARK    1  A    between atoms: N_3  and  C_13
REMARK    2  A    between atoms: C_8  and  C_14
REMARK    3  A    between atoms: C_13  and  C_15
REMARK    4  A    between atoms: C_17  and  C_18
REMARK    5  A    between atoms: C_18  and  C_21
REMARK    6  A    between atoms: C_18  and  C_22
REMARK                            x       y       z     vdW  Elec       q    Type
REMARK                         _______ _______ _______ _____ _____    ______ ____
ROOT
ATOM      3  N   UNL     1      -1.814   0.543  23.077  0.00  0.00    -0.281 NA
ATOM      4  N   UNL     1      -4.595  -1.784  24.037  0.00  0.00    -0.347 N 
ATOM      5  N   UNL     1      -2.951  -3.168  24.653  0.00  0.00    -0.240 NA
ATOM      8  C   UNL     1      -0.852  -0.029  24.082  0.00  0.00    +0.152 C 
ATOM      9  C   UNL     1      -1.013  -1.581  24.250  0.00  0.00    +0.086 C 
ATOM     10  C   UNL     1      -3.237   0.306  23.458  0.00  0.00    +0.140 C 
ATOM     11  C   UNL     1      -3.431  -1.092  23.894  0.00  0.00    +0.053 A 
ATOM     12  C   UNL     1      -2.442  -1.956  24.284  0.00  0.00    +0.065 A 
ATOM     16  C   UNL     1      -4.253  -3.032  24.496  0.00  0.00    +0.197 A 
ATOM     26  H   UNL     1      -5.530  -1.449  23.847  0.00  0.00    +0.167 HD
ENDROOT
BRANCH   8  14
ATOM      2  O   UNL     1       0.988   1.563  23.773  0.00  0.00    -0.336 OA
ATOM      6  N   UNL     1       1.580  -0.578  23.489  0.00  0.00    -0.194 NA
ATOM      7  N   UNL     1       2.354   1.574  23.461  0.00  0.00    -0.061 NA
ATOM     14  C   UNL     1       0.613   0.258  23.769  0.00  0.00    +0.245 A 
ATOM     17  C   UNL     1       2.629   0.275  23.308  0.00  0.00    +0.174 A 
BRANCH  17  18
ATOM     18  C   UNL     1       3.975  -0.199  22.965  0.00  0.00    +0.054 C 
ATOM     21  C   UNL     1       4.373  -1.499  23.709  0.00  0.00    +0.015 C 
ATOM     22  C   UNL     1       5.076   0.866  23.194  0.00  0.00    +0.015 C 
ENDBRANCH  17  18
ENDBRANCH   8  14
BRANCH   3  13
ATOM     13  C   UNL     1      -1.627   1.987  22.883  0.00  0.00    +0.120 C 
BRANCH  13  15
ATOM      1  F   UNL     1      -3.742   4.970  27.169  0.00  0.00    -0.205 F 
ATOM     15  C   UNL     1      -2.192   2.785  24.028  0.00  0.00    -0.033 A 
ATOM     19  C   UNL     1      -3.553   3.089  24.061  0.00  0.00    +0.008 A 
ATOM     20  C   UNL     1      -1.356   3.218  25.057  0.00  0.00    +0.008 A 
ATOM     23  C   UNL     1      -4.077   3.828  25.122  0.00  0.00    +0.038 A 
ATOM     24  C   UNL     1      -1.879   3.956  26.117  0.00  0.00    +0.038 A 
ATOM     25  C   UNL     1      -3.240   4.261  26.150  0.00  0.00    +0.123 A 
ENDBRANCH  13  15
ENDBRANCH   3  13
TORSDOF 4
ENDMDL
MODEL 4
REMARK VINA RESULT:      -2.9      2.600      6.228
REMARK  Name = 26744962
REMARK  6 active torsions:
REMARK  status: ('A' for Active; 'I' for Inactive)
REMARK    1  A    between atoms: N_3  and  C_13
REMARK    2  A    between atoms: C_8  and  C_14
REMARK    3  A    between atoms: C_13  and  C_15
REMARK    4  A    between atoms: C_17  and  C_18
REMARK    5  A    between atoms: C_18  and  C_21
REMARK    6  A    between atoms: C_18  and  C_22
REMARK                            x       y       z     vdW  Elec       q    Type
REMARK                         _______ _______ _______ _____ _____    ______ ____
ROOT
ATOM      3  N   UNL     1       1.086   0.994  23.535  0.00  0.00    -0.281 NA
ATOM      4  N   UNL     1       4.778   0.775  22.911  0.00  0.00    -0.347 N 
ATOM      5  N   UNL     1       4.609  -1.251  23.840  0.00  0.00    -0.240 NA
ATOM      8  C   UNL     1       0.884  -0.495  23.470  0.00  0.00    +0.152 C 
ATOM      9  C   UNL     1       2.085  -1.290  24.093  0.00  0.00    +0.086 C 
ATOM     10  C   UNL     1       2.308   1.432  22.797  0.00  0.00    +0.140 C 
ATOM     11  C   UNL     1       3.452   0.556  23.126  0.00  0.00    +0.053 A 
ATOM     12  C   UNL     1       3.373  -0.691  23.687  0.00  0.00    +0.065 A 
ATOM     16  C   UNL     1       5.436  -0.344  23.359  0.00  0.00    +0.197 A 
ATOM     26  H   UNL     1       5.201   1.596  22.499  0.00  0.00    +0.167 HD
ENDROOT
BRANCH   8  14
ATOM      2  O   UNL     1      -0.242  -1.727  25.267  0.00  0.00    -0.336 OA
ATOM      6  N   UNL     1      -1.642  -0.770  23.805  0.00  0.00    -0.194 NA
ATOM      7  N   UNL     1      -1.535  -2.046  25.700  0.00  0.00    -0.061 NA
ATOM     14  C   UNL     1      -0.396  -0.975  24.147  0.00  0.00    +0.245 A 
ATOM     17  C   UNL     1      -2.305  -1.446  24.787  0.00  0.00    +0.174 A 
BRANCH  17  18
ATOM     18  C   UNL     1      -3.770  -1.514  24.841  0.00  0.00    +0.054 C 
ATOM     21  C   UNL     1      -4.380  -2.443  23.760  0.00  0.00    +0.015 C 
ATOM     22  C   UNL     1      -4.451  -0.125  24.749  0.00  0.00    +0.015 C 
ENDBRANCH  17  18
ENDBRANCH   8  14
BRANCH   3  13
ATOM     13  C   UNL     1      -0.062   1.738  22.998  0.00  0.00    +0.120 C 
BRANCH  13  15
ATOM      1  F   UNL     1      -3.072   4.190  27.080  0.00  0.00    -0.205 F 
ATOM     15  C   UNL     1      -0.866   2.393  24.089  0.00  0.00    -0.033 A 
ATOM     19  C   UNL     1      -0.288   2.627  25.336  0.00  0.00    +0.008 A 
ATOM     20  C   UNL     1      -2.189   2.767  23.852  0.00  0.00    +0.008 A 
ATOM     23  C   UNL     1      -1.033   3.234  26.347  0.00  0.00    +0.038 A 
ATOM     24  C   UNL     1      -2.934   3.374  24.862  0.00  0.00    +0.038 A 
ATOM     25  C   UNL     1      -2.356   3.607  26.110  0.00  0.00    +0.123 A 
ENDBRANCH  13  15
ENDBRANCH   3  13
TORSDOF 4
ENDMDL
MODEL 5
REMARK VINA RESULT:      -1.1      3.536      5.611
REMARK  Name = 26744962
REMARK  6 active torsions:
REMARK  status: ('A' for Active; 'I' for Inactive)
REMARK    1  A    between atoms: N_3  and  C_13
REMARK    2  A    between atoms: C_8  and  C_14
REMARK    3  A    between atoms: C_13  and  C_15
REMARK    4  A    between atoms: C_17  and  C_18
REMARK    5  A    between atoms: C_18  and  C_21
REMARK    6  A    between atoms: C_18  and  C_22
REMARK                            x       y       z     vdW  Elec       q    Type
REMARK                         _______ _______ _______ _____ _____    ______ ____
ROOT
ATOM      3  N   UNL     1      -1.977   0.880  24.030  0.00  0.00    -0.281 NA
ATOM      4  N   UNL     1      -3.959  -2.277  23.616  0.00  0.00    -0.347 N 
ATOM      5  N   UNL     1      -2.899  -2.945  25.468  0.00  0.00    -0.240 NA
ATOM      8  C   UNL     1      -1.857   0.729  25.522  0.00  0.00    +0.152 C 
ATOM      9  C   UNL     1      -1.691  -0.769  25.961  0.00  0.00    +0.086 C 
ATOM     10  C   UNL     1      -3.157   0.149  23.481  0.00  0.00    +0.140 C 
ATOM     11  C   UNL     1      -3.235  -1.211  24.054  0.00  0.00    +0.053 A 
ATOM     12  C   UNL     1      -2.603  -1.641  25.191  0.00  0.00    +0.065 A 
ATOM     16  C   UNL     1      -3.723  -3.300  24.501  0.00  0.00    +0.197 A 
ATOM     26  H   UNL     1      -4.558  -2.314  22.802  0.00  0.00    +0.167 HD
ENDROOT
BRANCH   8  14
ATOM      2  O   UNL     1       0.146   2.121  25.261  0.00  0.00    -0.336 OA
ATOM      6  N   UNL     1      -0.412   1.720  27.393  0.00  0.00    -0.194 NA
ATOM      7  N   UNL     1       1.103   2.779  26.045  0.00  0.00    -0.061 NA
ATOM     14  C   UNL     1      -0.708   1.524  26.133  0.00  0.00    +0.245 A 
ATOM     17  C   UNL     1       0.706   2.496  27.289  0.00  0.00    +0.174 A 
BRANCH  17  18
ATOM     18  C   UNL     1       1.429   2.988  28.467  0.00  0.00    +0.054 C 
ATOM     21  C   UNL     1       2.962   2.778  28.376  0.00  0.00    +0.015 C 
ATOM     22  C   UNL     1       0.918   2.381  29.798  0.00  0.00    +0.015 C 
ENDBRANCH  17  18
ENDBRANCH   8  14
BRANCH   3  13
ATOM     13  C   UNL     1      -2.080   2.287  23.618  0.00  0.00    +0.120 C 
BRANCH  13  15
ATOM      1  F   UNL     1      -6.503   4.850  25.986  0.00  0.00    -0.205 F 
ATOM     15  C   UNL     1      -3.262   2.972  24.250  0.00  0.00    -0.033 A 
ATOM     19  C   UNL     1      -4.510   2.348  24.254  0.00  0.00    +0.008 A 
ATOM     20  C   UNL     1      -3.110   4.230  24.834  0.00  0.00    +0.008 A 
ATOM     23  C   UNL     1      -5.605   2.982  24.840  0.00  0.00    +0.038 A 
ATOM     24  C   UNL     1      -4.205   4.864  25.419  0.00  0.00    +0.038 A 
ATOM     25  C   UNL     1      -5.452   4.240  25.423  0.00  0.00    +0.123 A 
ENDBRANCH  13  15
ENDBRANCH   3  13
TORSDOF 4
ENDMDL
