MODEL 1
REMARK VINA RESULT:       0.6      0.000      0.000
REMARK  Name = 11882563
REMARK  16 active torsions:
REMARK  status: ('A' for Active; 'I' for Inactive)
REMARK    1  A    between atoms: O_1  and  C_12
REMARK    2  A    between atoms: O_2  and  C_15
REMARK    3  A    between atoms: O_3  and  C_17
REMARK    4  A    between atoms: N_7  and  C_13
REMARK    5  A    between atoms: N_8  and  C_21
REMARK    6  A    between atoms: N_9  and  C_20
REMARK    7  A    between atoms: N_9  and  C_29
REMARK    8  A    between atoms: C_12  and  C_18
REMARK    9  A    between atoms: C_19  and  C_20
REMARK   10  A    between atoms: C_20  and  C_22
REMARK   11  A    between atoms: C_21  and  C_23
REMARK   12  A    between atoms: C_21  and  C_25
REMARK   13  A    between atoms: C_22  and  C_24
REMARK   14  A    between atoms: C_23  and  C_26
REMARK   15  A    between atoms: C_24  and  C_27
REMARK   16  A    between atoms: C_24  and  C_28
REMARK                            x       y       z     vdW  Elec       q    Type
REMARK                         _______ _______ _______ _____ _____    ______ ____
ROOT
ATOM     12  C   UNL     1      -2.995   0.471  24.564  0.00  0.00    +0.146 C 
ATOM     13  C   UNL     1      -0.880  -0.932  24.469  0.00  0.00    +0.107 C 
ATOM     14  C   UNL     1      -1.566   0.365  24.030  0.00  0.00    +0.069 C 
ATOM     15  C   UNL     1      -1.715  -2.169  24.112  0.00  0.00    +0.163 C 
ATOM     16  C   UNL     1      -3.822  -0.756  24.185  0.00  0.00    +0.078 C 
ATOM     17  C   UNL     1      -3.153  -2.060  24.625  0.00  0.00    +0.148 C 
ENDROOT
BRANCH  12  18
ATOM      4  O   UNL     1      -3.754   1.959  22.857  0.00  0.00    -0.273 OA
ATOM      8  N   UNL     1      -4.105   2.530  25.086  0.00  0.00    -0.301 N 
ATOM     18  C   UNL     1      -3.659   1.718  24.057  0.00  0.00    +0.246 C 
ATOM     41  H   UNL     1      -4.075   2.177  26.038  0.00  0.00    +0.150 HD
BRANCH   8  21
ATOM     21  C   UNL     1      -4.759   3.799  24.865  0.00  0.00    +0.163 C 
BRANCH  21  25
ATOM      6  O   UNL     1      -6.682   4.837  25.926  0.00  0.00    -0.274 OA
ATOM     10  N   UNL     1      -6.221   2.636  26.397  0.00  0.00    -0.328 N 
ATOM     25  C   UNL     1      -5.971   3.845  25.782  0.00  0.00    +0.231 C 
ATOM     43  H   UNL     1      -5.639   1.818  26.249  0.00  0.00    +0.145 HD
ATOM     44  H   UNL     1      -7.009   2.526  27.026  0.00  0.00    +0.145 HD
ENDBRANCH  21  25
BRANCH  21  23
ATOM     23  C   UNL     1      -3.829   4.987  25.143  0.00  0.00    +0.069 C 
BRANCH  23  26
ATOM     11  N   UNL     1      -0.366   4.620  23.965  0.00  0.00    -0.360 N 
ATOM     26  C   UNL     1      -2.381   4.673  24.895  0.00  0.00    -0.020 A 
ATOM     30  C   UNL     1      -1.539   3.859  25.704  0.00  0.00    +0.003 A 
ATOM     31  C   UNL     1      -1.632   5.126  23.834  0.00  0.00    +0.087 A 
ATOM     32  C   UNL     1      -0.281   3.844  25.099  0.00  0.00    +0.047 A 
ATOM     33  C   UNL     1      -1.727   3.134  26.896  0.00  0.00    +0.010 A 
ATOM     34  C   UNL     1       0.803   3.135  25.629  0.00  0.00    +0.026 A 
ATOM     35  C   UNL     1      -0.652   2.421  27.439  0.00  0.00    +0.001 A 
ATOM     36  C   UNL     1       0.593   2.422  26.813  0.00  0.00    +0.002 A 
ATOM     45  H   UNL     1       0.396   4.793  23.324  0.00  0.00    +0.165 HD
ENDBRANCH  23  26
ENDBRANCH  21  23
ENDBRANCH   8  21
ENDBRANCH  12  18
BRANCH  13   7
ATOM      5  O   UNL     1       0.683   1.242  23.390  0.00  0.00    -0.274 OA
ATOM      7  N   UNL     1       0.436  -1.016  23.872  0.00  0.00    -0.309 N 
ATOM     19  C   UNL     1       1.112   0.089  23.378  0.00  0.00    +0.230 C 
ATOM     37  H   UNL     1       0.840  -1.940  23.755  0.00  0.00    +0.149 HD
BRANCH  19  20
ATOM     20  C   UNL     1       2.463  -0.275  22.771  0.00  0.00    +0.140 C 
BRANCH  20   9
ATOM      9  N   UNL     1       2.271  -0.221  21.320  0.00  0.00    -0.309 NA
ATOM     29  C   UNL     1       0.938  -0.679  20.962  0.00  0.00    +0.101 C 
ATOM     42  H   UNL     1       2.443   0.717  20.962  0.00  0.00    +0.122 HD
ENDBRANCH  20   9
BRANCH  20  22
ATOM     22  C   UNL     1       3.575   0.699  23.193  0.00  0.00    +0.031 C 
BRANCH  22  24
ATOM     24  C   UNL     1       4.971   0.054  23.331  0.00  0.00    -0.015 C 
ATOM     27  C   UNL     1       5.883   0.832  24.282  0.00  0.00    +0.007 C 
ATOM     28  C   UNL     1       4.826  -1.389  23.821  0.00  0.00    +0.007 C 
ENDBRANCH  22  24
ENDBRANCH  20  22
ENDBRANCH  19  20
ENDBRANCH  13   7
BRANCH  12   1
ATOM      1  O   UNL     1      -2.989   0.607  25.981  0.00  0.00    -0.379 OA
ATOM     38  H   UNL     1      -3.889   0.834  26.272  0.00  0.00    +0.211 HD
ENDBRANCH  12   1
BRANCH  15   2
ATOM      2  O   UNL     1      -1.126  -3.323  24.719  0.00  0.00    -0.387 OA
ATOM     39  H   UNL     1      -1.262  -3.259  25.680  0.00  0.00    +0.210 HD
ENDBRANCH  15   2
BRANCH  17   3
ATOM      3  O   UNL     1      -3.902  -3.160  24.109  0.00  0.00    -0.389 OA
ATOM     40  H   UNL     1      -3.282  -3.895  23.966  0.00  0.00    +0.210 HD
ENDBRANCH  17   3
TORSDOF 13
ENDMDL
MODEL 2
REMARK VINA RESULT:       1.1      1.543      1.814
REMARK  Name = 11882563
REMARK  16 active torsions:
REMARK  status: ('A' for Active; 'I' for Inactive)
REMARK    1  A    between atoms: O_1  and  C_12
REMARK    2  A    between atoms: O_2  and  C_15
REMARK    3  A    between atoms: O_3  and  C_17
REMARK    4  A    between atoms: N_7  and  C_13
REMARK    5  A    between atoms: N_8  and  C_21
REMARK    6  A    between atoms: N_9  and  C_20
REMARK    7  A    between atoms: N_9  and  C_29
REMARK    8  A    between atoms: C_12  and  C_18
REMARK    9  A    between atoms: C_19  and  C_20
REMARK   10  A    between atoms: C_20  and  C_22
REMARK   11  A    between atoms: C_21  and  C_23
REMARK   12  A    between atoms: C_21  and  C_25
REMARK   13  A    between atoms: C_22  and  C_24
REMARK   14  A    between atoms: C_23  and  C_26
REMARK   15  A    between atoms: C_24  and  C_27
REMARK   16  A    between atoms: C_24  and  C_28
REMARK                            x       y       z     vdW  Elec       q    Type
REMARK                         _______ _______ _______ _____ _____    ______ ____
ROOT
ATOM     12  C   UNL     1      -3.005  -0.392  25.442  0.00  0.00    +0.146 C 
ATOM     13  C   UNL     1      -0.938  -1.613  24.609  0.00  0.00    +0.107 C 
ATOM     14  C   UNL     1      -1.654  -0.264  24.734  0.00  0.00    +0.069 C 
ATOM     15  C   UNL     1      -1.830  -2.673  23.949  0.00  0.00    +0.163 C 
ATOM     16  C   UNL     1      -3.890  -1.436  24.763  0.00  0.00    +0.078 C 
ATOM     17  C   UNL     1      -3.191  -2.791  24.639  0.00  0.00    +0.148 C 
ENDROOT
BRANCH  12  18
ATOM      4  O   UNL     1      -3.269   1.879  26.133  0.00  0.00    -0.273 OA
ATOM      8  N   UNL     1      -4.876   0.931  24.741  0.00  0.00    -0.301 N 
ATOM     18  C   UNL     1      -3.707   0.934  25.484  0.00  0.00    +0.246 C 
ATOM     41  H   UNL     1      -5.082   0.129  24.152  0.00  0.00    +0.150 HD
BRANCH   8  21
ATOM     21  C   UNL     1      -5.748   2.078  24.636  0.00  0.00    +0.163 C 
BRANCH  21  25
ATOM      6  O   UNL     1      -5.482   3.793  26.336  0.00  0.00    -0.274 OA
ATOM     10  N   UNL     1      -6.541   1.835  26.905  0.00  0.00    -0.328 N 
ATOM     25  C   UNL     1      -5.879   2.671  26.030  0.00  0.00    +0.231 C 
ATOM     43  H   UNL     1      -6.886   0.920  26.631  0.00  0.00    +0.145 HD
ATOM     44  H   UNL     1      -6.708   2.115  27.866  0.00  0.00    +0.145 HD
ENDBRANCH  21  25
BRANCH  21  23
ATOM     23  C   UNL     1      -5.210   3.128  23.654  0.00  0.00    +0.069 C 
BRANCH  23  26
ATOM     11  N   UNL     1      -1.795   2.293  22.580  0.00  0.00    -0.360 N 
ATOM     26  C   UNL     1      -3.736   2.994  23.397  0.00  0.00    -0.020 A 
ATOM     30  C   UNL     1      -2.697   3.757  24.002  0.00  0.00    +0.003 A 
ATOM     31  C   UNL     1      -3.150   2.102  22.528  0.00  0.00    +0.087 A 
ATOM     32  C   UNL     1      -1.490   3.297  23.471  0.00  0.00    +0.047 A 
ATOM     33  C   UNL     1      -2.669   4.797  24.951  0.00  0.00    +0.010 A 
ATOM     34  C   UNL     1      -0.250   3.827  23.845  0.00  0.00    +0.026 A 
ATOM     35  C   UNL     1      -1.436   5.338  25.334  0.00  0.00    +0.001 A 
ATOM     36  C   UNL     1      -0.246   4.859  24.789  0.00  0.00    +0.002 A 
ATOM     45  H   UNL     1      -1.117   1.772  22.041  0.00  0.00    +0.165 HD
ENDBRANCH  23  26
ENDBRANCH  21  23
ENDBRANCH   8  21
ENDBRANCH  12  18
BRANCH  13   7
ATOM      5  O   UNL     1       0.455   0.859  24.081  0.00  0.00    -0.274 OA
ATOM      7  N   UNL     1       0.291  -1.447  23.864  0.00  0.00    -0.309 N 
ATOM     19  C   UNL     1       0.889  -0.212  23.661  0.00  0.00    +0.230 C 
ATOM     37  H   UNL     1       0.685  -2.269  23.418  0.00  0.00    +0.149 HD
BRANCH  19  20
ATOM     20  C   UNL     1       2.155  -0.307  22.816  0.00  0.00    +0.140 C 
BRANCH  20   9
ATOM      9  N   UNL     1       1.758   0.093  21.464  0.00  0.00    -0.309 NA
ATOM     29  C   UNL     1       0.792  -0.846  20.916  0.00  0.00    +0.101 C 
ATOM     42  H   UNL     1       1.390   1.042  21.456  0.00  0.00    +0.122 HD
ENDBRANCH  20   9
BRANCH  20  22
ATOM     22  C   UNL     1       3.273   0.614  23.332  0.00  0.00    +0.031 C 
BRANCH  22  24
ATOM     24  C   UNL     1       4.680  -0.023  23.328  0.00  0.00    -0.015 C 
ATOM     27  C   UNL     1       5.676   0.754  24.190  0.00  0.00    +0.007 C 
ATOM     28  C   UNL     1       4.591  -1.470  23.819  0.00  0.00    +0.007 C 
ENDBRANCH  22  24
ENDBRANCH  20  22
ENDBRANCH  19  20
ENDBRANCH  13   7
BRANCH  12   1
ATOM      1  O   UNL     1      -2.820  -0.755  26.806  0.00  0.00    -0.379 OA
ATOM     38  H   UNL     1      -3.558  -0.390  27.323  0.00  0.00    +0.211 HD
ENDBRANCH  12   1
BRANCH  15   2
ATOM      2  O   UNL     1      -1.188  -3.948  24.041  0.00  0.00    -0.387 OA
ATOM     39  H   UNL     1      -1.632  -4.459  24.739  0.00  0.00    +0.210 HD
ENDBRANCH  15   2
BRANCH  17   3
ATOM      3  O   UNL     1      -4.015  -3.666  23.869  0.00  0.00    -0.389 OA
ATOM     40  H   UNL     1      -4.639  -4.094  24.480  0.00  0.00    +0.210 HD
ENDBRANCH  17   3
TORSDOF 13
ENDMDL
MODEL 3
REMARK VINA RESULT:       1.4      1.903      4.297
REMARK  Name = 11882563
REMARK  16 active torsions:
REMARK  status: ('A' for Active; 'I' for Inactive)
REMARK    1  A    between atoms: O_1  and  C_12
REMARK    2  A    between atoms: O_2  and  C_15
REMARK    3  A    between atoms: O_3  and  C_17
REMARK    4  A    between atoms: N_7  and  C_13
REMARK    5  A    between atoms: N_8  and  C_21
REMARK    6  A    between atoms: N_9  and  C_20
REMARK    7  A    between atoms: N_9  and  C_29
REMARK    8  A    between atoms: C_12  and  C_18
REMARK    9  A    between atoms: C_19  and  C_20
REMARK   10  A    between atoms: C_20  and  C_22
REMARK   11  A    between atoms: C_21  and  C_23
REMARK   12  A    between atoms: C_21  and  C_25
REMARK   13  A    between atoms: C_22  and  C_24
REMARK   14  A    between atoms: C_23  and  C_26
REMARK   15  A    between atoms: C_24  and  C_27
REMARK   16  A    between atoms: C_24  and  C_28
REMARK                            x       y       z     vdW  Elec       q    Type
REMARK                         _______ _______ _______ _____ _____    ______ ____
ROOT
ATOM     12  C   UNL     1      -2.015   2.887  25.049  0.00  0.00    +0.146 C 
ATOM     13  C   UNL     1       0.475   2.574  24.655  0.00  0.00    +0.107 C 
ATOM     14  C   UNL     1      -0.941   2.194  24.209  0.00  0.00    +0.069 C 
ATOM     15  C   UNL     1       0.683   2.336  26.157  0.00  0.00    +0.163 C 
ATOM     16  C   UNL     1      -1.808   2.626  26.539  0.00  0.00    +0.078 C 
ATOM     17  C   UNL     1      -0.401   3.009  27.002  0.00  0.00    +0.148 C 
ENDROOT
BRANCH  12  18
ATOM      4  O   UNL     1      -3.963   2.932  23.667  0.00  0.00    -0.273 OA
ATOM      8  N   UNL     1      -3.888   1.450  25.460  0.00  0.00    -0.301 N 
ATOM     18  C   UNL     1      -3.385   2.437  24.630  0.00  0.00    +0.246 C 
ATOM     41  H   UNL     1      -3.277   1.036  26.158  0.00  0.00    +0.150 HD
BRANCH   8  21
ATOM     21  C   UNL     1      -5.197   0.862  25.286  0.00  0.00    +0.163 C 
BRANCH  21  25
ATOM      6  O   UNL     1      -7.140   2.036  24.419  0.00  0.00    -0.274 OA
ATOM     10  N   UNL     1      -5.959   2.989  26.145  0.00  0.00    -0.328 N 
ATOM     25  C   UNL     1      -6.195   2.007  25.205  0.00  0.00    +0.231 C 
ATOM     43  H   UNL     1      -5.190   2.939  26.804  0.00  0.00    +0.145 HD
ATOM     44  H   UNL     1      -6.561   3.803  26.208  0.00  0.00    +0.145 HD
ENDBRANCH  21  25
BRANCH  21  23
ATOM     23  C   UNL     1      -5.277  -0.011  24.027  0.00  0.00    +0.069 C 
BRANCH  23  26
ATOM     11  N   UNL     1      -3.579  -3.262  23.782  0.00  0.00    -0.360 N 
ATOM     26  C   UNL     1      -4.380  -1.215  24.087  0.00  0.00    -0.020 A 
ATOM     30  C   UNL     1      -3.128  -1.307  24.758  0.00  0.00    +0.003 A 
ATOM     31  C   UNL     1      -4.630  -2.432  23.496  0.00  0.00    +0.087 A 
ATOM     32  C   UNL     1      -2.647  -2.601  24.550  0.00  0.00    +0.047 A 
ATOM     33  C   UNL     1      -2.357  -0.411  25.523  0.00  0.00    +0.010 A 
ATOM     34  C   UNL     1      -1.427  -3.046  25.073  0.00  0.00    +0.026 A 
ATOM     35  C   UNL     1      -1.135  -0.841  26.052  0.00  0.00    +0.001 A 
ATOM     36  C   UNL     1      -0.679  -2.139  25.829  0.00  0.00    +0.002 A 
ATOM     45  H   UNL     1      -3.498  -4.220  23.472  0.00  0.00    +0.165 HD
ENDBRANCH  23  26
ENDBRANCH  21  23
ENDBRANCH   8  21
ENDBRANCH  12  18
BRANCH  13   7
ATOM      5  O   UNL     1       0.171  -0.085  23.572  0.00  0.00    -0.274 OA
ATOM      7  N   UNL     1       1.447   1.830  23.882  0.00  0.00    -0.309 N 
ATOM     19  C   UNL     1       1.210   0.551  23.401  0.00  0.00    +0.230 C 
ATOM     37  H   UNL     1       2.363   2.249  23.752  0.00  0.00    +0.149 HD
BRANCH  19  20
ATOM     20  C   UNL     1       2.406  -0.021  22.648  0.00  0.00    +0.140 C 
BRANCH  20   9
ATOM      9  N   UNL     1       2.032   0.008  21.232  0.00  0.00    -0.309 NA
ATOM     29  C   UNL     1       0.861  -0.820  20.995  0.00  0.00    +0.101 C 
ATOM     42  H   UNL     1       1.874   0.963  20.914  0.00  0.00    +0.122 HD
ENDBRANCH  20   9
BRANCH  20  22
ATOM     22  C   UNL     1       3.686   0.802  22.873  0.00  0.00    +0.031 C 
BRANCH  22  24
ATOM     24  C   UNL     1       4.935  -0.039  23.213  0.00  0.00    -0.015 C 
ATOM     27  C   UNL     1       5.870   0.673  24.192  0.00  0.00    +0.007 C 
ATOM     28  C   UNL     1       4.505  -1.387  23.798  0.00  0.00    +0.007 C 
ENDBRANCH  22  24
ENDBRANCH  20  22
ENDBRANCH  19  20
ENDBRANCH  13   7
BRANCH  12   1
ATOM      1  O   UNL     1      -2.001   4.291  24.816  0.00  0.00    -0.379 OA
ATOM     38  H   UNL     1      -1.583   4.455  23.954  0.00  0.00    +0.211 HD
ENDBRANCH  12   1
BRANCH  15   2
ATOM      2  O   UNL     1       1.942   2.892  26.548  0.00  0.00    -0.387 OA
ATOM     39  H   UNL     1       2.446   2.199  27.009  0.00  0.00    +0.210 HD
ENDBRANCH  15   2
BRANCH  17   3
ATOM      3  O   UNL     1      -0.235   2.602  28.359  0.00  0.00    -0.389 OA
ATOM     40  H   UNL     1      -1.016   2.078  28.606  0.00  0.00    +0.210 HD
ENDBRANCH  17   3
TORSDOF 13
ENDMDL
MODEL 4
REMARK VINA RESULT:       2.0      1.303      1.878
REMARK  Name = 11882563
REMARK  16 active torsions:
REMARK  status: ('A' for Active; 'I' for Inactive)
REMARK    1  A    between atoms: O_1  and  C_12
REMARK    2  A    between atoms: O_2  and  C_15
REMARK    3  A    between atoms: O_3  and  C_17
REMARK    4  A    between atoms: N_7  and  C_13
REMARK    5  A    between atoms: N_8  and  C_21
REMARK    6  A    between atoms: N_9  and  C_20
REMARK    7  A    between atoms: N_9  and  C_29
REMARK    8  A    between atoms: C_12  and  C_18
REMARK    9  A    between atoms: C_19  and  C_20
REMARK   10  A    between atoms: C_20  and  C_22
REMARK   11  A    between atoms: C_21  and  C_23
REMARK   12  A    between atoms: C_21  and  C_25
REMARK   13  A    between atoms: C_22  and  C_24
REMARK   14  A    between atoms: C_23  and  C_26
REMARK   15  A    between atoms: C_24  and  C_27
REMARK   16  A    between atoms: C_24  and  C_28
REMARK                            x       y       z     vdW  Elec       q    Type
REMARK                         _______ _______ _______ _____ _____    ______ ____
ROOT
ATOM     12  C   UNL     1      -2.687   0.021  24.608  0.00  0.00    +0.146 C 
ATOM     13  C   UNL     1      -0.380  -1.039  24.502  0.00  0.00    +0.107 C 
ATOM     14  C   UNL     1      -1.324   0.014  23.912  0.00  0.00    +0.069 C 
ATOM     15  C   UNL     1      -1.020  -2.433  24.519  0.00  0.00    +0.163 C 
ATOM     16  C   UNL     1      -3.321  -1.368  24.600  0.00  0.00    +0.078 C 
ATOM     17  C   UNL     1      -2.394  -2.428  25.194  0.00  0.00    +0.148 C 
ENDROOT
BRANCH  12  18
ATOM      4  O   UNL     1      -3.479   1.343  22.783  0.00  0.00    -0.273 OA
ATOM      8  N   UNL     1      -4.558   1.501  24.839  0.00  0.00    -0.301 N 
ATOM     18  C   UNL     1      -3.607   1.014  23.959  0.00  0.00    +0.246 C 
ATOM     41  H   UNL     1      -4.642   1.074  25.757  0.00  0.00    +0.150 HD
BRANCH   8  21
ATOM     21  C   UNL     1      -5.549   2.485  24.468  0.00  0.00    +0.163 C 
BRANCH  21  25
ATOM      6  O   UNL     1      -7.841   1.710  24.244  0.00  0.00    -0.274 OA
ATOM     10  N   UNL     1      -6.915   1.811  26.344  0.00  0.00    -0.328 N 
ATOM     25  C   UNL     1      -6.892   1.982  24.976  0.00  0.00    +0.231 C 
ATOM     43  H   UNL     1      -6.114   2.016  26.933  0.00  0.00    +0.145 HD
ATOM     44  H   UNL     1      -7.748   1.467  26.811  0.00  0.00    +0.145 HD
ENDBRANCH  21  25
BRANCH  21  23
ATOM     23  C   UNL     1      -5.238   3.869  25.051  0.00  0.00    +0.069 C 
BRANCH  23  26
ATOM     11  N   UNL     1      -2.277   4.099  27.216  0.00  0.00    -0.360 N 
ATOM     26  C   UNL     1      -3.881   3.949  25.690  0.00  0.00    -0.020 A 
ATOM     30  C   UNL     1      -2.626   3.935  25.019  0.00  0.00    +0.003 A 
ATOM     31  C   UNL     1      -3.634   4.051  27.039  0.00  0.00    +0.087 A 
ATOM     32  C   UNL     1      -1.637   4.029  26.000  0.00  0.00    +0.047 A 
ATOM     33  C   UNL     1      -2.236   3.849  23.668  0.00  0.00    +0.010 A 
ATOM     34  C   UNL     1      -0.270   4.043  25.696  0.00  0.00    +0.026 A 
ATOM     35  C   UNL     1      -0.873   3.862  23.348  0.00  0.00    +0.001 A 
ATOM     36  C   UNL     1       0.093   3.958  24.348  0.00  0.00    +0.002 A 
ATOM     45  H   UNL     1      -1.812   4.173  28.111  0.00  0.00    +0.165 HD
ENDBRANCH  23  26
ENDBRANCH  21  23
ENDBRANCH   8  21
ENDBRANCH  12  18
BRANCH  13   7
ATOM      5  O   UNL     1       1.254   1.232  23.789  0.00  0.00    -0.274 OA
ATOM      7  N   UNL     1       0.859  -1.057  23.756  0.00  0.00    -0.309 N 
ATOM     19  C   UNL     1       1.579   0.092  23.461  0.00  0.00    +0.230 C 
ATOM     37  H   UNL     1       1.170  -1.948  23.382  0.00  0.00    +0.149 HD
BRANCH  19  20
ATOM     20  C   UNL     1       2.829  -0.197  22.636  0.00  0.00    +0.140 C 
BRANCH  20   9
ATOM      9  N   UNL     1       2.452   0.060  21.244  0.00  0.00    -0.309 NA
ATOM     29  C   UNL     1       1.187  -0.585  20.929  0.00  0.00    +0.101 C 
ATOM     42  H   UNL     1       2.410   1.059  21.054  0.00  0.00    +0.122 HD
ENDBRANCH  20   9
BRANCH  20  22
ATOM     22  C   UNL     1       4.013   0.698  23.036  0.00  0.00    +0.031 C 
BRANCH  22  24
ATOM     24  C   UNL     1       5.113  -0.020  23.848  0.00  0.00    -0.015 C 
ATOM     27  C   UNL     1       4.795  -1.497  24.083  0.00  0.00    +0.007 C 
ATOM     28  C   UNL     1       6.455   0.111  23.124  0.00  0.00    +0.007 C 
ENDBRANCH  22  24
ENDBRANCH  20  22
ENDBRANCH  19  20
ENDBRANCH  13   7
BRANCH  12   1
ATOM      1  O   UNL     1      -2.556   0.465  25.954  0.00  0.00    -0.379 OA
ATOM     38  H   UNL     1      -3.003  -0.175  26.534  0.00  0.00    +0.211 HD
ENDBRANCH  12   1
BRANCH  15   2
ATOM      2  O   UNL     1      -0.179  -3.325  25.256  0.00  0.00    -0.387 OA
ATOM     39  H   UNL     1      -0.636  -3.554  26.084  0.00  0.00    +0.210 HD
ENDBRANCH  15   2
BRANCH  17   3
ATOM      3  O   UNL     1      -2.990  -3.713  25.019  0.00  0.00    -0.389 OA
ATOM     40  H   UNL     1      -3.788  -3.744  25.573  0.00  0.00    +0.210 HD
ENDBRANCH  17   3
TORSDOF 13
ENDMDL
MODEL 5
REMARK VINA RESULT:       3.9      2.363      5.867
REMARK  Name = 11882563
REMARK  16 active torsions:
REMARK  status: ('A' for Active; 'I' for Inactive)
REMARK    1  A    between atoms: O_1  and  C_12
REMARK    2  A    between atoms: O_2  and  C_15
REMARK    3  A    between atoms: O_3  and  C_17
REMARK    4  A    between atoms: N_7  and  C_13
REMARK    5  A    between atoms: N_8  and  C_21
REMARK    6  A    between atoms: N_9  and  C_20
REMARK    7  A    between atoms: N_9  and  C_29
REMARK    8  A    between atoms: C_12  and  C_18
REMARK    9  A    between atoms: C_19  and  C_20
REMARK   10  A    between atoms: C_20  and  C_22
REMARK   11  A    between atoms: C_21  and  C_23
REMARK   12  A    between atoms: C_21  and  C_25
REMARK   13  A    between atoms: C_22  and  C_24
REMARK   14  A    between atoms: C_23  and  C_26
REMARK   15  A    between atoms: C_24  and  C_27
REMARK   16  A    between atoms: C_24  and  C_28
REMARK                            x       y       z     vdW  Elec       q    Type
REMARK                         _______ _______ _______ _____ _____    ______ ____
ROOT
ATOM     12  C   UNL     1       0.033  -1.071  23.945  0.00  0.00    +0.146 C 
ATOM     13  C   UNL     1       0.999   1.216  24.486  0.00  0.00    +0.107 C 
ATOM     14  C   UNL     1      -0.257   0.338  24.464  0.00  0.00    +0.069 C 
ATOM     15  C   UNL     1       1.699   1.244  23.121  0.00  0.00    +0.163 C 
ATOM     16  C   UNL     1       0.712  -1.029  22.577  0.00  0.00    +0.078 C 
ATOM     17  C   UNL     1       1.973  -0.164  22.586  0.00  0.00    +0.148 C 
ENDROOT
BRANCH  12  18
ATOM      4  O   UNL     1      -1.215  -3.089  23.667  0.00  0.00    -0.273 OA
ATOM      8  N   UNL     1      -2.361  -1.096  24.033  0.00  0.00    -0.301 N 
ATOM     18  C   UNL     1      -1.230  -1.878  23.871  0.00  0.00    +0.246 C 
ATOM     41  H   UNL     1      -2.252  -0.125  24.309  0.00  0.00    +0.150 HD
BRANCH   8  21
ATOM     21  C   UNL     1      -3.704  -1.628  23.983  0.00  0.00    +0.163 C 
BRANCH  21  25
ATOM      6  O   UNL     1      -4.034  -4.006  24.356  0.00  0.00    -0.274 OA
ATOM     10  N   UNL     1      -3.260  -2.717  26.093  0.00  0.00    -0.328 N 
ATOM     25  C   UNL     1      -3.710  -2.908  24.804  0.00  0.00    +0.231 C 
ATOM     43  H   UNL     1      -2.971  -1.809  26.442  0.00  0.00    +0.145 HD
ATOM     44  H   UNL     1      -3.201  -3.494  26.744  0.00  0.00    +0.145 HD
ENDBRANCH  21  25
BRANCH  21  23
ATOM     23  C   UNL     1      -4.742  -0.636  24.525  0.00  0.00    +0.069 C 
BRANCH  23  26
ATOM     11  N   UNL     1      -3.573   2.567  23.153  0.00  0.00    -0.360 N 
ATOM     26  C   UNL     1      -4.446   0.789  24.153  0.00  0.00    -0.020 A 
ATOM     30  C   UNL     1      -5.029   1.953  24.728  0.00  0.00    +0.003 A 
ATOM     31  C   UNL     1      -3.556   1.199  23.188  0.00  0.00    +0.087 A 
ATOM     32  C   UNL     1      -4.464   3.055  24.082  0.00  0.00    +0.047 A 
ATOM     33  C   UNL     1      -5.985   2.176  25.738  0.00  0.00    +0.010 A 
ATOM     34  C   UNL     1      -4.809   4.374  24.397  0.00  0.00    +0.026 A 
ATOM     35  C   UNL     1      -6.340   3.490  26.064  0.00  0.00    +0.001 A 
ATOM     36  C   UNL     1      -5.760   4.571  25.403  0.00  0.00    +0.002 A 
ATOM     45  H   UNL     1      -3.014   3.137  22.533  0.00  0.00    +0.165 HD
ENDBRANCH  23  26
ENDBRANCH  21  23
ENDBRANCH   8  21
ENDBRANCH  12  18
BRANCH  13   7
ATOM      5  O   UNL     1      -0.954   2.968  23.281  0.00  0.00    -0.274 OA
ATOM      7  N   UNL     1       0.652   2.556  24.908  0.00  0.00    -0.309 N 
ATOM     19  C   UNL     1      -0.305   3.326  24.263  0.00  0.00    +0.230 C 
ATOM     37  H   UNL     1       1.187   2.962  25.669  0.00  0.00    +0.149 HD
BRANCH  19  20
ATOM     20  C   UNL     1      -0.457   4.710  24.884  0.00  0.00    +0.140 C 
BRANCH  20   9
ATOM      9  N   UNL     1      -0.517   5.644  23.757  0.00  0.00    -0.309 NA
ATOM     29  C   UNL     1      -1.788   6.351  23.746  0.00  0.00    +0.101 C 
ATOM     42  H   UNL     1       0.264   6.297  23.780  0.00  0.00    +0.122 HD
ENDBRANCH  20   9
BRANCH  20  22
ATOM     22  C   UNL     1      -1.729   4.831  25.739  0.00  0.00    +0.031 C 
BRANCH  22  24
ATOM     24  C   UNL     1      -2.124   3.538  26.485  0.00  0.00    -0.015 C 
ATOM     27  C   UNL     1      -0.925   2.851  27.140  0.00  0.00    +0.007 C 
ATOM     28  C   UNL     1      -3.180   3.858  27.547  0.00  0.00    +0.007 C 
ENDBRANCH  22  24
ENDBRANCH  20  22
ENDBRANCH  19  20
ENDBRANCH  13   7
BRANCH  12   1
ATOM      1  O   UNL     1       0.868  -1.776  24.857  0.00  0.00    -0.379 OA
ATOM     38  H   UNL     1       1.201  -1.147  25.518  0.00  0.00    +0.211 HD
ENDBRANCH  12   1
BRANCH  15   2
ATOM      2  O   UNL     1       2.960   1.907  23.256  0.00  0.00    -0.387 OA
ATOM     39  H   UNL     1       3.172   2.324  22.403  0.00  0.00    +0.210 HD
ENDBRANCH  15   2
BRANCH  17   3
ATOM      3  O   UNL     1       2.466  -0.053  21.251  0.00  0.00    -0.389 OA
ATOM     40  H   UNL     1       3.427   0.086  21.304  0.00  0.00    +0.210 HD
ENDBRANCH  17   3
TORSDOF 13
ENDMDL
MODEL 6
REMARK VINA RESULT:       4.2      2.028      6.393
REMARK  Name = 11882563
REMARK  16 active torsions:
REMARK  status: ('A' for Active; 'I' for Inactive)
REMARK    1  A    between atoms: O_1  and  C_12
REMARK    2  A    between atoms: O_2  and  C_15
REMARK    3  A    between atoms: O_3  and  C_17
REMARK    4  A    between atoms: N_7  and  C_13
REMARK    5  A    between atoms: N_8  and  C_21
REMARK    6  A    between atoms: N_9  and  C_20
REMARK    7  A    between atoms: N_9  and  C_29
REMARK    8  A    between atoms: C_12  and  C_18
REMARK    9  A    between atoms: C_19  and  C_20
REMARK   10  A    between atoms: C_20  and  C_22
REMARK   11  A    between atoms: C_21  and  C_23
REMARK   12  A    between atoms: C_21  and  C_25
REMARK   13  A    between atoms: C_22  and  C_24
REMARK   14  A    between atoms: C_23  and  C_26
REMARK   15  A    between atoms: C_24  and  C_27
REMARK   16  A    between atoms: C_24  and  C_28
REMARK                            x       y       z     vdW  Elec       q    Type
REMARK                         _______ _______ _______ _____ _____    ______ ____
ROOT
ATOM     12  C   UNL     1      -1.239  -1.832  23.916  0.00  0.00    +0.146 C 
ATOM     13  C   UNL     1      -3.660  -1.134  23.592  0.00  0.00    +0.107 C 
ATOM     14  C   UNL     1      -2.228  -0.666  23.873  0.00  0.00    +0.069 C 
ATOM     15  C   UNL     1      -4.106  -2.225  24.575  0.00  0.00    +0.163 C 
ATOM     16  C   UNL     1      -1.684  -2.901  24.912  0.00  0.00    +0.078 C 
ATOM     17  C   UNL     1      -3.109  -3.385  24.639  0.00  0.00    +0.148 C 
ENDROOT
BRANCH  12  18
ATOM      4  O   UNL     1       0.826  -1.898  25.115  0.00  0.00    -0.273 OA
ATOM      8  N   UNL     1       0.494  -0.221  23.534  0.00  0.00    -0.301 N 
ATOM     18  C   UNL     1       0.138  -1.344  24.262  0.00  0.00    +0.246 C 
ATOM     41  H   UNL     1      -0.108   0.083  22.775  0.00  0.00    +0.150 HD
BRANCH   8  21
ATOM     21  C   UNL     1       1.760   0.456  23.695  0.00  0.00    +0.163 C 
BRANCH  21  25
ATOM      6  O   UNL     1       2.062  -0.255  21.392  0.00  0.00    -0.274 OA
ATOM     10  N   UNL     1       3.765   0.894  22.419  0.00  0.00    -0.328 N 
ATOM     25  C   UNL     1       2.521   0.299  22.388  0.00  0.00    +0.231 C 
ATOM     43  H   UNL     1       4.122   1.370  23.242  0.00  0.00    +0.145 HD
ATOM     44  H   UNL     1       4.372   0.874  21.606  0.00  0.00    +0.145 HD
ENDBRANCH  21  25
BRANCH  21  23
ATOM     23  C   UNL     1       1.585   1.940  24.040  0.00  0.00    +0.069 C 
BRANCH  23  26
ATOM     11  N   UNL     1      -1.308   1.932  26.309  0.00  0.00    -0.360 N 
ATOM     26  C   UNL     1       0.372   2.210  24.885  0.00  0.00    -0.020 A 
ATOM     30  C   UNL     1      -0.350   3.434  24.966  0.00  0.00    +0.003 A 
ATOM     31  C   UNL     1      -0.241   1.306  25.721  0.00  0.00    +0.087 A 
ATOM     32  C   UNL     1      -1.397   3.232  25.867  0.00  0.00    +0.047 A 
ATOM     33  C   UNL     1      -0.210   4.698  24.359  0.00  0.00    +0.010 A 
ATOM     34  C   UNL     1      -2.318   4.236  26.192  0.00  0.00    +0.026 A 
ATOM     35  C   UNL     1      -1.123   5.711  24.675  0.00  0.00    +0.001 A 
ATOM     36  C   UNL     1      -2.160   5.482  25.577  0.00  0.00    +0.002 A 
ATOM     45  H   UNL     1      -1.937   1.502  26.973  0.00  0.00    +0.165 HD
ENDBRANCH  23  26
ENDBRANCH  21  23
ENDBRANCH   8  21
ENDBRANCH  12  18
BRANCH  13   7
ATOM      5  O   UNL     1      -4.058   0.678  25.804  0.00  0.00    -0.274 OA
ATOM      7  N   UNL     1      -4.562  -0.004  23.642  0.00  0.00    -0.309 N 
ATOM     19  C   UNL     1      -4.686   0.814  24.755  0.00  0.00    +0.230 C 
ATOM     37  H   UNL     1      -5.174   0.144  22.846  0.00  0.00    +0.149 HD
BRANCH  19  20
ATOM     20  C   UNL     1      -5.728   1.911  24.561  0.00  0.00    +0.140 C 
BRANCH  20   9
ATOM      9  N   UNL     1      -6.618   1.819  25.722  0.00  0.00    -0.309 NA
ATOM     29  C   UNL     1      -6.133   2.658  26.806  0.00  0.00    +0.101 C 
ATOM     42  H   UNL     1      -7.574   2.063  25.471  0.00  0.00    +0.122 HD
ENDBRANCH  20   9
BRANCH  20  22
ATOM     22  C   UNL     1      -5.097   3.311  24.490  0.00  0.00    +0.031 C 
BRANCH  22  24
ATOM     24  C   UNL     1      -4.418   3.639  23.142  0.00  0.00    -0.015 C 
ATOM     27  C   UNL     1      -4.055   5.119  23.015  0.00  0.00    +0.007 C 
ATOM     28  C   UNL     1      -3.159   2.783  22.978  0.00  0.00    +0.007 C 
ENDBRANCH  22  24
ENDBRANCH  20  22
ENDBRANCH  19  20
ENDBRANCH  13   7
BRANCH  12   1
ATOM      1  O   UNL     1      -1.108  -2.423  22.628  0.00  0.00    -0.379 OA
ATOM     38  H   UNL     1      -1.454  -1.799  21.967  0.00  0.00    +0.211 HD
ENDBRANCH  12   1
BRANCH  15   2
ATOM      2  O   UNL     1      -5.362  -2.759  24.143  0.00  0.00    -0.387 OA
ATOM     39  H   UNL     1      -5.769  -2.116  23.538  0.00  0.00    +0.210 HD
ENDBRANCH  15   2
BRANCH  17   3
ATOM      3  O   UNL     1      -3.506  -4.266  25.689  0.00  0.00    -0.389 OA
ATOM     40  H   UNL     1      -4.406  -4.576  25.487  0.00  0.00    +0.210 HD
ENDBRANCH  17   3
TORSDOF 13
ENDMDL
