MODEL 1
REMARK VINA RESULT:      -0.1      0.000      0.000
REMARK  Name = 25389544
REMARK  11 active torsions:
REMARK  status: ('A' for Active; 'I' for Inactive)
REMARK    1  A    between atoms: O_1  and  C_17
REMARK    2  A    between atoms: O_1  and  C_22
REMARK    3  A    between atoms: O_3  and  C_25
REMARK    4  A    between atoms: O_3  and  C_33
REMARK    5  A    between atoms: O_4  and  C_28
REMARK    6  A    between atoms: O_4  and  C_34
REMARK    7  A    between atoms: N_6  and  C_20
REMARK    8  A    between atoms: N_8  and  C_27
REMARK    9  A    between atoms: C_10  and  C_16
REMARK   10  A    between atoms: C_11  and  C_17
REMARK   11  A    between atoms: C_19  and  C_21
REMARK                            x       y       z     vdW  Elec       q    Type
REMARK                         _______ _______ _______ _____ _____    ______ ____
ROOT
ATOM      5  N   UNL     1      16.300  -5.775  27.043  0.00  0.00    -0.296 NA
ATOM      9  C   UNL     1      16.683  -7.881  28.525  0.00  0.00    +0.002 C 
ATOM     10  C   UNL     1      15.171  -7.695  28.225  0.00  0.00    +0.055 C 
ATOM     11  C   UNL     1      17.162  -5.429  28.203  0.00  0.00    +0.095 C 
ATOM     12  C   UNL     1      17.230  -6.606  29.200  0.00  0.00    +0.026 C 
ATOM     13  C   UNL     1      17.394  -8.013  27.161  0.00  0.00    +0.019 C 
ATOM     14  C   UNL     1      15.003  -6.321  27.516  0.00  0.00    +0.094 C 
ATOM     15  C   UNL     1      16.990  -6.830  26.263  0.00  0.00    +0.085 C 
ENDROOT
BRANCH  10  16
ATOM      6  N   UNL     1      14.569  -8.061  30.664  0.00  0.00    -0.270 N 
ATOM      7  N   UNL     1      13.545  -8.202  31.521  0.00  0.00    -0.171 NA
ATOM     16  C   UNL     1      14.183  -7.877  29.370  0.00  0.00    +0.044 A 
ATOM     18  C   UNL     1      12.810  -7.901  29.380  0.00  0.00    +0.053 A 
ATOM     19  C   UNL     1      12.473  -8.104  30.732  0.00  0.00    +0.093 A 
ATOM     20  C   UNL     1      15.923  -8.116  31.166  0.00  0.00    +0.172 C 
BRANCH  19  21
ATOM     21  C   UNL     1      11.145  -8.206  31.282  0.00  0.00    +0.006 A 
ATOM     23  C   UNL     1      10.404  -9.374  31.104  0.00  0.00    +0.059 A 
ATOM     24  C   UNL     1      10.602  -7.137  31.994  0.00  0.00    +0.014 A 
ATOM     25  C   UNL     1       9.118  -9.472  31.636  0.00  0.00    +0.162 A 
ATOM     26  C   UNL     1       9.316  -7.235  32.526  0.00  0.00    +0.050 A 
ATOM     28  C   UNL     1       8.574  -8.403  32.347  0.00  0.00    +0.162 A 
BRANCH  25   3
ATOM      3  O   UNL     1       8.404 -10.618  31.454  0.00  0.00    -0.491 OA
ATOM     33  C   UNL     1       7.462 -10.631  30.383  0.00  0.00    +0.277 C 
ENDBRANCH  25   3
BRANCH  28   4
ATOM      4  O   UNL     1       7.319  -8.486  32.870  0.00  0.00    -0.491 OA
ATOM     34  C   UNL     1       6.489  -7.333  32.749  0.00  0.00    +0.277 C 
ENDBRANCH  28   4
ENDBRANCH  19  21
ENDBRANCH  10  16
BRANCH  11  17
ATOM     17  C   UNL     1      16.728  -4.129  28.885  0.00  0.00    +0.252 C 
BRANCH  17   1
ATOM      1  O   UNL     1      17.403  -3.053  28.264  0.00  0.00    -0.449 OA
BRANCH   1  22
ATOM      2  O   UNL     1      15.861  -1.557  27.478  0.00  0.00    -0.226 OA
ATOM      8  N   UNL     1      17.184  -2.840  26.034  0.00  0.00    -0.251 N 
ATOM     22  C   UNL     1      16.726  -2.396  27.260  0.00  0.00    +0.405 C 
ATOM     36  H   UNL     1      17.914  -3.548  26.056  0.00  0.00    +0.158 HD
BRANCH   8  27
ATOM     27  C   UNL     1      16.762  -2.432  24.748  0.00  0.00    +0.036 A 
ATOM     29  C   UNL     1      15.938  -3.262  23.989  0.00  0.00    +0.023 A 
ATOM     30  C   UNL     1      17.173  -1.201  24.237  0.00  0.00    +0.023 A 
ATOM     31  C   UNL     1      15.523  -2.861  22.719  0.00  0.00    +0.002 A 
ATOM     32  C   UNL     1      16.758  -0.798  22.968  0.00  0.00    +0.002 A 
ATOM     35  C   UNL     1      15.933  -1.629  22.208  0.00  0.00    +0.000 A 
ENDBRANCH   8  27
ENDBRANCH   1  22
ENDBRANCH  17   1
ENDBRANCH  11  17
TORSDOF 8
ENDMDL
