MODEL 1
REMARK VINA RESULT:       2.9      0.000      0.000
REMARK  Name = 51138172
REMARK  9 active torsions:
REMARK  status: ('A' for Active; 'I' for Inactive)
REMARK    1  A    between atoms: O_2  and  C_20
REMARK    2  A    between atoms: N_5  and  C_27
REMARK    3  A    between atoms: C_6  and  C_12
REMARK    4  A    between atoms: C_7  and  C_13
REMARK    5  A    between atoms: C_12  and  C_17
REMARK    6  A    between atoms: C_17  and  C_25
REMARK    7  A    between atoms: C_17  and  C_26
REMARK    8  A    between atoms: C_27  and  C_28
REMARK    9  A    between atoms: C_29  and  C_30
REMARK                            x       y       z     vdW  Elec       q    Type
REMARK                         _______ _______ _______ _____ _____    ______ ____
ROOT
ATOM      3  N   UNL     1      -2.489   1.080  25.205  0.00  0.00    -0.299 NA
ATOM      5  N   UNL     1       1.885   0.314  22.800  0.00  0.00    -0.335 N 
ATOM      6  C   UNL     1      -1.900  -0.115  25.822  0.00  0.00    +0.085 C 
ATOM      7  C   UNL     1      -1.640   2.262  25.237  0.00  0.00    +0.145 C 
ATOM      8  C   UNL     1      -0.879   2.440  23.924  0.00  0.00    +0.065 C 
ATOM      9  C   UNL     1      -0.644  -0.669  25.143  0.00  0.00    -0.021 A 
ATOM     10  C   UNL     1       0.167   0.042  24.212  0.00  0.00    +0.008 A 
ATOM     11  C   UNL     1       0.120   1.367  23.653  0.00  0.00    -0.020 A 
ATOM     14  C   UNL     1       1.301  -0.575  23.671  0.00  0.00    +0.050 A 
ATOM     21  C   UNL     1       1.188   1.486  22.786  0.00  0.00    +0.091 A 
ATOM     22  C   UNL     1      -0.187  -1.961  25.510  0.00  0.00    +0.006 A 
ATOM     23  C   UNL     1       1.708  -1.867  24.010  0.00  0.00    +0.026 A 
ATOM     24  C   UNL     1       0.948  -2.547  24.954  0.00  0.00    +0.002 A 
ATOM     31  H   UNL     1      -2.809   0.881  24.258  0.00  0.00    +0.123 HD
ENDROOT
BRANCH   7  13
ATOM      1  O   UNL     1      -2.126   4.511  25.760  0.00  0.00    -0.274 OA
ATOM      4  N   UNL     1      -3.931   3.163  25.191  0.00  0.00    -0.300 N 
ATOM     13  C   UNL     1      -2.579   3.415  25.420  0.00  0.00    +0.233 C 
ATOM     15  C   UNL     1      -4.498   1.870  24.786  0.00  0.00    +0.110 C 
ATOM     16  C   UNL     1      -4.905   4.252  25.304  0.00  0.00    +0.110 C 
ATOM     18  C   UNL     1      -5.620   1.452  25.731  0.00  0.00    +0.050 C 
ATOM     19  C   UNL     1      -6.032   3.876  26.259  0.00  0.00    +0.050 C 
ATOM     20  C   UNL     1      -6.676   2.548  25.859  0.00  0.00    +0.118 C 
BRANCH  20   2
ATOM      2  O   UNL     1      -7.627   2.157  26.841  0.00  0.00    -0.392 OA
ATOM     32  H   UNL     1      -8.047   1.336  26.532  0.00  0.00    +0.210 HD
ENDBRANCH  20   2
ENDBRANCH   7  13
BRANCH   6  12
ATOM     12  C   UNL     1      -3.049  -1.139  25.863  0.00  0.00    +0.026 C 
BRANCH  12  17
ATOM     17  C   UNL     1      -3.199  -1.923  24.556  0.00  0.00    -0.015 C 
ATOM     25  C   UNL     1      -4.449  -1.438  23.817  0.00  0.00    +0.007 C 
ATOM     26  C   UNL     1      -3.284  -3.433  24.779  0.00  0.00    +0.007 C 
ENDBRANCH  12  17
ENDBRANCH   6  12
BRANCH   5  27
ATOM     27  C   UNL     1       3.079   0.068  22.020  0.00  0.00    +0.210 C 
BRANCH  27  28
ATOM     28  C   UNL     1       4.292   0.088  22.847  0.00  0.00    -0.081 C 
ATOM     29  C   UNL     1       5.285   0.102  23.523  0.00  0.00    -0.104 C 
ATOM     30  C   UNL     1       6.493   0.121  24.346  0.00  0.00    +0.106 C 
ENDBRANCH  27  28
ENDBRANCH   5  27
TORSDOF 6
ENDMDL
MODEL 2
REMARK VINA RESULT:       4.2      2.724      7.280
REMARK  Name = 51138172
REMARK  9 active torsions:
REMARK  status: ('A' for Active; 'I' for Inactive)
REMARK    1  A    between atoms: O_2  and  C_20
REMARK    2  A    between atoms: N_5  and  C_27
REMARK    3  A    between atoms: C_6  and  C_12
REMARK    4  A    between atoms: C_7  and  C_13
REMARK    5  A    between atoms: C_12  and  C_17
REMARK    6  A    between atoms: C_17  and  C_25
REMARK    7  A    between atoms: C_17  and  C_26
REMARK    8  A    between atoms: C_27  and  C_28
REMARK    9  A    between atoms: C_29  and  C_30
REMARK                            x       y       z     vdW  Elec       q    Type
REMARK                         _______ _______ _______ _____ _____    ______ ____
ROOT
ATOM      3  N   UNL     1      -1.221  -0.849  25.124  0.00  0.00    -0.299 NA
ATOM      5  N   UNL     1      -1.717   4.176  25.192  0.00  0.00    -0.335 N 
ATOM      6  C   UNL     1      -2.587  -0.578  24.658  0.00  0.00    +0.085 C 
ATOM      7  C   UNL     1      -0.175  -0.192  24.354  0.00  0.00    +0.145 C 
ATOM      8  C   UNL     1       0.278   1.107  25.019  0.00  0.00    +0.065 C 
ATOM      9  C   UNL     1      -3.053   0.878  24.762  0.00  0.00    -0.021 A 
ATOM     10  C   UNL     1      -2.196   2.003  24.938  0.00  0.00    +0.008 A 
ATOM     11  C   UNL     1      -0.772   2.167  25.054  0.00  0.00    -0.020 A 
ATOM     14  C   UNL     1      -2.748   3.287  25.004  0.00  0.00    +0.050 A 
ATOM     21  C   UNL     1      -0.525   3.515  25.217  0.00  0.00    +0.091 A 
ATOM     22  C   UNL     1      -4.432   1.163  24.595  0.00  0.00    +0.006 A 
ATOM     23  C   UNL     1      -4.116   3.543  24.884  0.00  0.00    +0.026 A 
ATOM     24  C   UNL     1      -4.951   2.454  24.664  0.00  0.00    +0.002 A 
ATOM     31  H   UNL     1      -1.128  -0.648  26.119  0.00  0.00    +0.123 HD
ENDROOT
BRANCH   7  13
ATOM      1  O   UNL     1       0.890  -2.196  25.002  0.00  0.00    -0.274 OA
ATOM      4  N   UNL     1       2.071  -0.812  23.557  0.00  0.00    -0.300 N 
ATOM     13  C   UNL     1       0.969  -1.159  24.339  0.00  0.00    +0.233 C 
ATOM     15  C   UNL     1       2.192   0.414  22.757  0.00  0.00    +0.110 C 
ATOM     16  C   UNL     1       3.209  -1.728  23.454  0.00  0.00    +0.110 C 
ATOM     18  C   UNL     1       3.478   1.160  23.101  0.00  0.00    +0.050 C 
ATOM     19  C   UNL     1       4.512  -1.020  23.812  0.00  0.00    +0.050 C 
ATOM     20  C   UNL     1       4.699   0.248  22.980  0.00  0.00    +0.118 C 
BRANCH  20   2
ATOM      2  O   UNL     1       5.847   0.957  23.430  0.00  0.00    -0.392 OA
ATOM     32  H   UNL     1       6.629   0.428  23.193  0.00  0.00    +0.210 HD
ENDBRANCH  20   2
ENDBRANCH   7  13
BRANCH   6  12
ATOM     12  C   UNL     1      -3.473  -1.540  25.470  0.00  0.00    +0.026 C 
BRANCH  12  17
ATOM     17  C   UNL     1      -3.869  -2.794  24.687  0.00  0.00    -0.015 C 
ATOM     25  C   UNL     1      -2.604  -3.508  24.204  0.00  0.00    +0.007 C 
ATOM     26  C   UNL     1      -4.774  -2.485  23.494  0.00  0.00    +0.007 C 
ENDBRANCH  12  17
ENDBRANCH   6  12
BRANCH   5  27
ATOM     27  C   UNL     1      -1.854   5.611  25.323  0.00  0.00    +0.210 C 
BRANCH  27  28
ATOM     28  C   UNL     1      -2.600   6.198  24.203  0.00  0.00    -0.081 C 
ATOM     29  C   UNL     1      -3.210   6.678  23.286  0.00  0.00    -0.104 C 
ATOM     30  C   UNL     1      -3.953   7.263  22.171  0.00  0.00    +0.106 C 
ENDBRANCH  27  28
ENDBRANCH   5  27
TORSDOF 6
ENDMDL
MODEL 3
REMARK VINA RESULT:       6.7      1.440      2.535
REMARK  Name = 51138172
REMARK  9 active torsions:
REMARK  status: ('A' for Active; 'I' for Inactive)
REMARK    1  A    between atoms: O_2  and  C_20
REMARK    2  A    between atoms: N_5  and  C_27
REMARK    3  A    between atoms: C_6  and  C_12
REMARK    4  A    between atoms: C_7  and  C_13
REMARK    5  A    between atoms: C_12  and  C_17
REMARK    6  A    between atoms: C_17  and  C_25
REMARK    7  A    between atoms: C_17  and  C_26
REMARK    8  A    between atoms: C_27  and  C_28
REMARK    9  A    between atoms: C_29  and  C_30
REMARK                            x       y       z     vdW  Elec       q    Type
REMARK                         _______ _______ _______ _____ _____    ______ ____
ROOT
ATOM      3  N   UNL     1      -3.177   0.035  25.077  0.00  0.00    -0.299 NA
ATOM      5  N   UNL     1       1.325  -0.088  22.794  0.00  0.00    -0.335 N 
ATOM      6  C   UNL     1      -2.364  -0.910  25.853  0.00  0.00    +0.085 C 
ATOM      7  C   UNL     1      -2.602   1.365  24.943  0.00  0.00    +0.145 C 
ATOM      8  C   UNL     1      -1.860   1.524  23.617  0.00  0.00    +0.065 C 
ATOM      9  C   UNL     1      -0.999  -1.267  25.255  0.00  0.00    -0.021 A 
ATOM     10  C   UNL     1      -0.333  -0.530  24.232  0.00  0.00    +0.008 A 
ATOM     11  C   UNL     1      -0.647   0.665  23.496  0.00  0.00    -0.020 A 
ATOM     14  C   UNL     1       0.921  -0.956  23.781  0.00  0.00    +0.050 A 
ATOM     21  C   UNL     1       0.394   0.892  22.618  0.00  0.00    +0.091 A 
ATOM     22  C   UNL     1      -0.287  -2.367  25.797  0.00  0.00    +0.006 A 
ATOM     23  C   UNL     1       1.586  -2.071  24.295  0.00  0.00    +0.026 A 
ATOM     24  C   UNL     1       0.962  -2.765  25.325  0.00  0.00    +0.002 A 
ATOM     31  H   UNL     1      -3.420  -0.356  24.167  0.00  0.00    +0.123 HD
ENDROOT
BRANCH   7  13
ATOM      1  O   UNL     1      -4.911   1.846  24.861  0.00  0.00    -0.274 OA
ATOM      4  N   UNL     1      -3.480   3.659  25.109  0.00  0.00    -0.300 N 
ATOM     13  C   UNL     1      -3.771   2.303  24.967  0.00  0.00    +0.233 C 
ATOM     15  C   UNL     1      -2.132   4.231  25.237  0.00  0.00    +0.110 C 
ATOM     16  C   UNL     1      -4.571   4.634  25.187  0.00  0.00    +0.110 C 
ATOM     18  C   UNL     1      -1.910   5.328  24.201  0.00  0.00    +0.050 C 
ATOM     19  C   UNL     1      -4.391   5.737  24.149  0.00  0.00    +0.050 C 
ATOM     20  C   UNL     1      -3.012   6.385  24.265  0.00  0.00    +0.118 C 
BRANCH  20   2
ATOM      2  O   UNL     1      -2.823   7.310  23.201  0.00  0.00    -0.392 OA
ATOM     32  H   UNL     1      -3.672   7.759  23.049  0.00  0.00    +0.210 HD
ENDBRANCH  20   2
ENDBRANCH   7  13
BRANCH   6  12
ATOM     12  C   UNL     1      -3.267  -2.143  26.038  0.00  0.00    +0.026 C 
BRANCH  12  17
ATOM     17  C   UNL     1      -3.851  -2.660  24.720  0.00  0.00    -0.015 C 
ATOM     25  C   UNL     1      -2.768  -3.425  23.954  0.00  0.00    +0.007 C 
ATOM     26  C   UNL     1      -4.410  -1.540  23.842  0.00  0.00    +0.007 C 
ENDBRANCH  12  17
ENDBRANCH   6  12
BRANCH   5  27
ATOM     27  C   UNL     1       2.566  -0.174  22.053  0.00  0.00    +0.210 C 
BRANCH  27  28
ATOM     28  C   UNL     1       3.735   0.076  22.905  0.00  0.00    -0.081 C 
ATOM     29  C   UNL     1       4.693   0.281  23.600  0.00  0.00    -0.104 C 
ATOM     30  C   UNL     1       5.858   0.530  24.448  0.00  0.00    +0.106 C 
ENDBRANCH  27  28
ENDBRANCH   5  27
TORSDOF 6
ENDMDL
