MODEL 1
REMARK VINA RESULT:      -3.9      0.000      0.000
REMARK  Name = 45361153
REMARK  7 active torsions:
REMARK  status: ('A' for Active; 'I' for Inactive)
REMARK    1  A    between atoms: N_4  and  C_20
REMARK    2  A    between atoms: N_5  and  C_19
REMARK    3  A    between atoms: N_8  and  C_29
REMARK    4  A    between atoms: C_14  and  C_18
REMARK    5  A    between atoms: C_18  and  C_21
REMARK    6  A    between atoms: C_19  and  C_22
REMARK    7  A    between atoms: C_21  and  C_23
REMARK                            x       y       z     vdW  Elec       q    Type
REMARK                         _______ _______ _______ _____ _____    ______ ____
ROOT
ATOM      2  O   UNL     1      -6.018  -7.679  11.491  0.00  0.00    -0.274 OA
ATOM      4  N   UNL     1      -3.928 -10.039  13.739  0.00  0.00    -0.296 NA
ATOM      5  N   UNL     1      -4.286  -9.280  10.177  0.00  0.00    -0.284 NA
ATOM      6  N   UNL     1      -6.614  -9.255  13.040  0.00  0.00    -0.312 N 
ATOM     11  C   UNL     1      -3.833 -10.368  12.300  0.00  0.00    +0.084 C 
ATOM     12  C   UNL     1      -4.961  -9.867  11.349  0.00  0.00    +0.161 C 
ATOM     13  C   UNL     1      -2.569  -9.818  11.614  0.00  0.00    +0.036 C 
ATOM     14  C   UNL     1      -5.102 -10.637  14.433  0.00  0.00    +0.074 C 
ATOM     15  C   UNL     1      -2.932  -9.826  10.144  0.00  0.00    +0.087 C 
ATOM     16  C   UNL     1      -6.427 -10.557  13.650  0.00  0.00    +0.123 C 
ATOM     17  C   UNL     1      -5.890  -8.814  11.948  0.00  0.00    +0.232 C 
ATOM     20  C   UNL     1      -2.683 -10.399  14.440  0.00  0.00    +0.105 C 
ATOM     30  H   UNL     1      -7.308  -8.629  13.436  0.00  0.00    +0.149 HD
ENDROOT
BRANCH  14  18
ATOM     18  C   UNL     1      -5.328  -9.954  15.798  0.00  0.00    +0.029 C 
BRANCH  18  21
ATOM     21  C   UNL     1      -6.214 -10.781  16.708  0.00  0.00    +0.097 C 
BRANCH  21  23
ATOM      3  O   UNL     1      -6.702  -9.646  18.729  0.00  0.00    -0.276 OA
ATOM      7  N   UNL     1      -8.254  -9.424  17.015  0.00  0.00    -0.299 N 
ATOM      8  N   UNL     1     -10.233  -7.810  15.716  0.00  0.00    -0.302 NA
ATOM     23  C   UNL     1      -7.073  -9.902  17.581  0.00  0.00    +0.216 C 
ATOM     24  C   UNL     1      -9.139  -8.561  17.797  0.00  0.00    +0.123 C 
ATOM     25  C   UNL     1      -8.787  -9.815  15.707  0.00  0.00    +0.123 C 
ATOM     26  C   UNL     1      -9.615  -7.365  16.974  0.00  0.00    +0.103 C 
ATOM     27  C   UNL     1      -9.276  -8.596  14.924  0.00  0.00    +0.103 C 
ATOM     29  C   UNL     1     -10.718  -6.664  14.949  0.00  0.00    +0.105 C 
ENDBRANCH  21  23
ENDBRANCH  18  21
ENDBRANCH  14  18
BRANCH   5  19
ATOM     19  C   UNL     1      -4.999  -9.506   8.926  0.00  0.00    +0.143 C 
BRANCH  19  22
ATOM      1  S   UNL     1      -8.945  -9.322   9.379  0.00  0.00    +0.028 S 
ATOM      9  N   UNL     1      -6.918  -7.926   8.913  0.00  0.00    -0.145 NA
ATOM     10  N   UNL     1      -8.230  -7.841   9.060  0.00  0.00    -0.110 NA
ATOM     22  C   UNL     1      -6.473  -9.230   9.063  0.00  0.00    +0.086 A 
ATOM     28  C   UNL     1      -7.452 -10.166   9.329  0.00  0.00    +0.093 A 
ENDBRANCH  19  22
ENDBRANCH   5  19
TORSDOF 5
ENDMDL
MODEL 2
REMARK VINA RESULT:      -0.3     15.131     16.812
REMARK  Name = 45361153
REMARK  7 active torsions:
REMARK  status: ('A' for Active; 'I' for Inactive)
REMARK    1  A    between atoms: N_4  and  C_20
REMARK    2  A    between atoms: N_5  and  C_19
REMARK    3  A    between atoms: N_8  and  C_29
REMARK    4  A    between atoms: C_14  and  C_18
REMARK    5  A    between atoms: C_18  and  C_21
REMARK    6  A    between atoms: C_19  and  C_22
REMARK    7  A    between atoms: C_21  and  C_23
REMARK                            x       y       z     vdW  Elec       q    Type
REMARK                         _______ _______ _______ _____ _____    ______ ____
ROOT
ATOM      2  O   UNL     1      -0.544   1.867  24.220  0.00  0.00    -0.274 OA
ATOM      4  N   UNL     1      -2.751  -1.146  25.243  0.00  0.00    -0.296 NA
ATOM      5  N   UNL     1       0.586  -0.558  23.860  0.00  0.00    -0.284 NA
ATOM      6  N   UNL     1      -2.641   1.209  23.580  0.00  0.00    -0.312 N 
ATOM     11  C   UNL     1      -1.550  -1.536  24.471  0.00  0.00    +0.084 C 
ATOM     12  C   UNL     1      -0.859  -0.461  23.581  0.00  0.00    +0.161 C 
ATOM     13  C   UNL     1      -0.380  -2.032  25.341  0.00  0.00    +0.036 C 
ATOM     14  C   UNL     1      -3.917  -0.746  24.408  0.00  0.00    +0.074 C 
ATOM     15  C   UNL     1       0.824  -1.878  24.436  0.00  0.00    +0.087 C 
ATOM     16  C   UNL     1      -3.577   0.166  23.213  0.00  0.00    +0.123 C 
ATOM     17  C   UNL     1      -1.303   0.976  23.842  0.00  0.00    +0.232 C 
ATOM     20  C   UNL     1      -3.137  -2.212  26.183  0.00  0.00    +0.105 C 
ATOM     30  H   UNL     1      -2.982   2.162  23.658  0.00  0.00    +0.149 HD
ENDROOT
BRANCH  14  18
ATOM     18  C   UNL     1      -4.968  -0.011  25.267  0.00  0.00    +0.029 C 
BRANCH  18  21
ATOM     21  C   UNL     1      -5.401   1.298  24.638  0.00  0.00    +0.097 C 
BRANCH  21  23
ATOM      3  O   UNL     1      -5.879   2.396  26.683  0.00  0.00    -0.276 OA
ATOM      7  N   UNL     1      -4.442   3.497  25.227  0.00  0.00    -0.299 N 
ATOM      8  N   UNL     1      -2.221   5.273  24.876  0.00  0.00    -0.302 NA
ATOM     23  C   UNL     1      -5.268   2.442  25.612  0.00  0.00    +0.216 C 
ATOM     24  C   UNL     1      -4.258   4.641  26.118  0.00  0.00    +0.123 C 
ATOM     25  C   UNL     1      -3.811   3.643  23.912  0.00  0.00    +0.123 C 
ATOM     26  C   UNL     1      -2.786   5.039  26.213  0.00  0.00    +0.103 C 
ATOM     27  C   UNL     1      -2.347   4.065  24.046  0.00  0.00    +0.103 C 
ATOM     29  C   UNL     1      -0.822   5.686  24.974  0.00  0.00    +0.105 C 
ENDBRANCH  21  23
ENDBRANCH  18  21
ENDBRANCH  14  18
BRANCH   5  19
ATOM     19  C   UNL     1       1.418  -0.315  22.688  0.00  0.00    +0.143 C 
BRANCH  19  22
ATOM      1  S   UNL     1       5.243  -0.367  23.774  0.00  0.00    +0.028 S 
ATOM      9  N   UNL     1       3.417   1.139  22.955  0.00  0.00    -0.145 NA
ATOM     10  N   UNL     1       4.691   1.146  23.312  0.00  0.00    -0.110 NA
ATOM     22  C   UNL     1       2.867  -0.128  23.057  0.00  0.00    +0.086 A 
ATOM     28  C   UNL     1       3.724  -1.115  23.499  0.00  0.00    +0.093 A 
ENDBRANCH  19  22
ENDBRANCH   5  19
TORSDOF 5
ENDMDL
