MODEL 1
REMARK VINA RESULT:      -5.2      0.000      0.000
REMARK  Name = 75536198
REMARK  3 active torsions:
REMARK  status: ('A' for Active; 'I' for Inactive)
REMARK    1  A    between atoms: N_2  and  C_11
REMARK    2  A    between atoms: C_6  and  C_9
REMARK    3  A    between atoms: C_12  and  C_14
REMARK                            x       y       z     vdW  Elec       q    Type
REMARK                         _______ _______ _______ _____ _____    ______ ____
ROOT
ATOM      3  N   UNL     1      -5.259 -10.615  14.995  0.00  0.00    -0.341 N 
ATOM      4  N   UNL     1      -3.042 -10.717  14.892  0.00  0.00    -0.238 NA
ATOM      9  C   UNL     1      -4.152 -10.635  14.192  0.00  0.00    +0.127 A 
ATOM     12  C   UNL     1      -4.827 -10.689  16.289  0.00  0.00    +0.066 A 
ATOM     13  C   UNL     1      -3.456 -10.751  16.201  0.00  0.00    +0.139 A 
ATOM     19  H   UNL     1      -6.218 -10.564  14.680  0.00  0.00    +0.167 HD
ENDROOT
BRANCH   9   6
ATOM      1  O   UNL     1      -2.922 -10.408  10.644  0.00  0.00    -0.377 OA
ATOM      2  N   UNL     1      -5.128  -9.451  12.198  0.00  0.00    -0.292 NA
ATOM      6  C   UNL     1      -4.272 -10.566  12.677  0.00  0.00    +0.149 C 
ATOM      7  C   UNL     1      -2.860 -10.445  12.069  0.00  0.00    +0.186 C 
ATOM      8  C   UNL     1      -5.109  -9.389  10.726  0.00  0.00    +0.113 C 
ATOM     10  C   UNL     1      -3.680  -9.281  10.209  0.00  0.00    +0.175 C 
ATOM     11  C   UNL     1      -6.517  -9.586  12.654  0.00  0.00    +0.105 C 
ENDBRANCH   9   6
BRANCH  12  14
ATOM      5  N   UNL     1      -7.440 -10.701  19.622  0.00  0.00    -0.263 NA
ATOM     14  C   UNL     1      -5.715 -10.692  17.422  0.00  0.00    +0.003 A 
ATOM     15  C   UNL     1      -7.090 -10.608  17.231  0.00  0.00    +0.029 A 
ATOM     16  C   UNL     1      -5.202 -10.781  18.711  0.00  0.00    +0.029 A 
ATOM     17  C   UNL     1      -7.902 -10.616  18.354  0.00  0.00    +0.111 A 
ATOM     18  C   UNL     1      -6.099 -10.781  19.767  0.00  0.00    +0.111 A 
ENDBRANCH  12  14
TORSDOF 2
ENDMDL
MODEL 2
REMARK VINA RESULT:      -4.3      3.071      6.668
REMARK  Name = 75536198
REMARK  3 active torsions:
REMARK  status: ('A' for Active; 'I' for Inactive)
REMARK    1  A    between atoms: N_2  and  C_11
REMARK    2  A    between atoms: C_6  and  C_9
REMARK    3  A    between atoms: C_12  and  C_14
REMARK                            x       y       z     vdW  Elec       q    Type
REMARK                         _______ _______ _______ _____ _____    ______ ____
ROOT
ATOM      3  N   UNL     1      -6.262  -9.891  13.964  0.00  0.00    -0.341 N 
ATOM      4  N   UNL     1      -8.076 -10.123  12.703  0.00  0.00    -0.238 NA
ATOM      9  C   UNL     1      -7.627  -9.932  13.925  0.00  0.00    +0.127 A 
ATOM     12  C   UNL     1      -5.810 -10.067  12.686  0.00  0.00    +0.066 A 
ATOM     13  C   UNL     1      -6.947 -10.208  11.927  0.00  0.00    +0.139 A 
ATOM     19  H   UNL     1      -5.696  -9.763  14.793  0.00  0.00    +0.167 HD
ENDROOT
BRANCH   9   6
ATOM      1  O   UNL     1     -10.445  -8.627  16.049  0.00  0.00    -0.377 OA
ATOM      2  N   UNL     1      -7.680  -9.301  16.360  0.00  0.00    -0.292 NA
ATOM      6  C   UNL     1      -8.462  -9.767  15.187  0.00  0.00    +0.149 C 
ATOM      7  C   UNL     1      -9.616  -8.788  14.898  0.00  0.00    +0.186 C 
ATOM      8  C   UNL     1      -8.573  -9.066  17.508  0.00  0.00    +0.113 C 
ATOM     10  C   UNL     1      -9.688  -8.098  17.136  0.00  0.00    +0.175 C 
ATOM     11  C   UNL     1      -6.640 -10.261  16.749  0.00  0.00    +0.105 C 
ENDBRANCH   9   6
BRANCH  12  14
ATOM      5  N   UNL     1      -1.703 -10.107  11.652  0.00  0.00    -0.263 NA
ATOM     14  C   UNL     1      -4.414 -10.081  12.334  0.00  0.00    +0.003 A 
ATOM     15  C   UNL     1      -4.008  -9.655  11.074  0.00  0.00    +0.029 A 
ATOM     16  C   UNL     1      -3.467 -10.520  13.253  0.00  0.00    +0.029 A 
ATOM     17  C   UNL     1      -2.652  -9.687  10.785  0.00  0.00    +0.111 A 
ATOM     18  C   UNL     1      -2.137 -10.513  12.866  0.00  0.00    +0.111 A 
ENDBRANCH  12  14
TORSDOF 2
ENDMDL
MODEL 3
REMARK VINA RESULT:      -4.0     14.776     16.724
REMARK  Name = 75536198
REMARK  3 active torsions:
REMARK  status: ('A' for Active; 'I' for Inactive)
REMARK    1  A    between atoms: N_2  and  C_11
REMARK    2  A    between atoms: C_6  and  C_9
REMARK    3  A    between atoms: C_12  and  C_14
REMARK                            x       y       z     vdW  Elec       q    Type
REMARK                         _______ _______ _______ _____ _____    ______ ____
ROOT
ATOM      3  N   UNL     1      -1.258   1.635  23.844  0.00  0.00    -0.341 N 
ATOM      4  N   UNL     1      -1.209   2.553  25.867  0.00  0.00    -0.238 NA
ATOM      9  C   UNL     1      -1.974   2.226  24.848  0.00  0.00    +0.127 A 
ATOM     12  C   UNL     1       0.046   1.582  24.248  0.00  0.00    +0.066 A 
ATOM     13  C   UNL     1       0.052   2.154  25.498  0.00  0.00    +0.139 A 
ATOM     19  H   UNL     1      -1.632   1.309  22.963  0.00  0.00    +0.167 HD
ENDROOT
BRANCH   9   6
ATOM      1  O   UNL     1      -5.272   3.924  25.475  0.00  0.00    -0.377 OA
ATOM      2  N   UNL     1      -4.281   1.261  25.123  0.00  0.00    -0.292 NA
ATOM      6  C   UNL     1      -3.476   2.444  24.728  0.00  0.00    +0.149 C 
ATOM      7  C   UNL     1      -3.873   3.663  25.582  0.00  0.00    +0.186 C 
ATOM      8  C   UNL     1      -5.718   1.585  25.080  0.00  0.00    +0.113 C 
ATOM     10  C   UNL     1      -6.023   2.805  25.939  0.00  0.00    +0.175 C 
ATOM     11  C   UNL     1      -4.024   0.102  24.259  0.00  0.00    +0.105 C 
ENDBRANCH   9   6
BRANCH  12  14
ATOM      5  N   UNL     1       3.151  -0.066  21.887  0.00  0.00    -0.263 NA
ATOM     14  C   UNL     1       1.102   1.021  23.446  0.00  0.00    +0.003 A 
ATOM     15  C   UNL     1       0.832  -0.025  22.571  0.00  0.00    +0.029 A 
ATOM     16  C   UNL     1       2.394   1.525  23.542  0.00  0.00    +0.029 A 
ATOM     17  C   UNL     1       1.883  -0.530  21.820  0.00  0.00    +0.111 A 
ATOM     18  C   UNL     1       3.374   0.951  22.748  0.00  0.00    +0.111 A 
ENDBRANCH  12  14
TORSDOF 2
ENDMDL
MODEL 4
REMARK VINA RESULT:      -3.6      2.948      6.619
REMARK  Name = 75536198
REMARK  3 active torsions:
REMARK  status: ('A' for Active; 'I' for Inactive)
REMARK    1  A    between atoms: N_2  and  C_11
REMARK    2  A    between atoms: C_6  and  C_9
REMARK    3  A    between atoms: C_12  and  C_14
REMARK                            x       y       z     vdW  Elec       q    Type
REMARK                         _______ _______ _______ _____ _____    ______ ____
ROOT
ATOM      3  N   UNL     1      -5.581  -9.770  12.135  0.00  0.00    -0.341 N 
ATOM      4  N   UNL     1      -6.819 -10.577  13.793  0.00  0.00    -0.238 NA
ATOM      9  C   UNL     1      -5.594 -10.389  13.354  0.00  0.00    +0.127 A 
ATOM     12  C   UNL     1      -6.881  -9.550  11.774  0.00  0.00    +0.066 A 
ATOM     13  C   UNL     1      -7.626 -10.056  12.812  0.00  0.00    +0.139 A 
ATOM     19  H   UNL     1      -4.757  -9.531  11.600  0.00  0.00    +0.167 HD
ENDROOT
BRANCH   9   6
ATOM      1  O   UNL     1      -3.183 -10.676  16.228  0.00  0.00    -0.377 OA
ATOM      2  N   UNL     1      -3.082 -10.249  13.399  0.00  0.00    -0.292 NA
ATOM      6  C   UNL     1      -4.302 -10.781  14.057  0.00  0.00    +0.149 C 
ATOM      7  C   UNL     1      -4.365 -10.302  15.520  0.00  0.00    +0.186 C 
ATOM      8  C   UNL     1      -1.887 -10.583  14.194  0.00  0.00    +0.113 C 
ATOM     10  C   UNL     1      -2.034 -10.084  15.625  0.00  0.00    +0.175 C 
ATOM     11  C   UNL     1      -2.914 -10.773  12.038  0.00  0.00    +0.105 C 
ENDBRANCH   9   6
BRANCH  12  14
ATOM      5  N   UNL     1      -8.008  -7.676   8.147  0.00  0.00    -0.263 NA
ATOM     14  C   UNL     1      -7.264  -8.912  10.542  0.00  0.00    +0.003 A 
ATOM     15  C   UNL     1      -6.290  -8.484   9.646  0.00  0.00    +0.029 A 
ATOM     16  C   UNL     1      -8.608  -8.723  10.242  0.00  0.00    +0.029 A 
ATOM     17  C   UNL     1      -6.711  -7.876   8.473  0.00  0.00    +0.111 A 
ATOM     18  C   UNL     1      -8.924  -8.106   9.043  0.00  0.00    +0.111 A 
ENDBRANCH  12  14
TORSDOF 2
ENDMDL
MODEL 5
REMARK VINA RESULT:      -3.5      2.960      7.368
REMARK  Name = 75536198
REMARK  3 active torsions:
REMARK  status: ('A' for Active; 'I' for Inactive)
REMARK    1  A    between atoms: N_2  and  C_11
REMARK    2  A    between atoms: C_6  and  C_9
REMARK    3  A    between atoms: C_12  and  C_14
REMARK                            x       y       z     vdW  Elec       q    Type
REMARK                         _______ _______ _______ _____ _____    ______ ____
ROOT
ATOM      3  N   UNL     1      -6.723  -9.936  12.997  0.00  0.00    -0.341 N 
ATOM      4  N   UNL     1      -8.936 -10.060  12.865  0.00  0.00    -0.238 NA
ATOM      9  C   UNL     1      -7.899 -10.103  13.672  0.00  0.00    +0.127 A 
ATOM     12  C   UNL     1      -7.029  -9.777  11.674  0.00  0.00    +0.066 A 
ATOM     13  C   UNL     1      -8.400  -9.858  11.617  0.00  0.00    +0.139 A 
ATOM     19  H   UNL     1      -5.798  -9.940  13.407  0.00  0.00    +0.167 HD
ENDROOT
BRANCH   9   6
ATOM      1  O   UNL     1      -9.169  -9.674  17.187  0.00  0.00    -0.377 OA
ATOM      2  N   UNL     1      -6.651  -9.944  15.851  0.00  0.00    -0.292 NA
ATOM      6  C   UNL     1      -7.925 -10.307  15.180  0.00  0.00    +0.149 C 
ATOM      7  C   UNL     1      -9.088  -9.489  15.775  0.00  0.00    +0.186 C 
ATOM      8  C   UNL     1      -6.791 -10.069  17.313  0.00  0.00    +0.113 C 
ATOM     10  C   UNL     1      -7.966  -9.240  17.816  0.00  0.00    +0.175 C 
ATOM     11  C   UNL     1      -5.532 -10.781  15.403  0.00  0.00    +0.105 C 
ENDBRANCH   9   6
BRANCH  12  14
ATOM      5  N   UNL     1      -4.111  -9.183   8.662  0.00  0.00    -0.263 NA
ATOM     14  C   UNL     1      -6.037  -9.574  10.650  0.00  0.00    +0.003 A 
ATOM     15  C   UNL     1      -4.752  -9.169  10.994  0.00  0.00    +0.029 A 
ATOM     16  C   UNL     1      -6.360  -9.784   9.314  0.00  0.00    +0.029 A 
ATOM     17  C   UNL     1      -3.834  -8.989   9.971  0.00  0.00    +0.111 A 
ATOM     18  C   UNL     1      -5.370  -9.577   8.368  0.00  0.00    +0.111 A 
ENDBRANCH  12  14
TORSDOF 2
ENDMDL
MODEL 6
REMARK VINA RESULT:      -3.1     14.373     16.376
REMARK  Name = 75536198
REMARK  3 active torsions:
REMARK  status: ('A' for Active; 'I' for Inactive)
REMARK    1  A    between atoms: N_2  and  C_11
REMARK    2  A    between atoms: C_6  and  C_9
REMARK    3  A    between atoms: C_12  and  C_14
REMARK                            x       y       z     vdW  Elec       q    Type
REMARK                         _______ _______ _______ _____ _____    ______ ____
ROOT
ATOM      3  N   UNL     1      -1.024   1.097  24.325  0.00  0.00    -0.341 N 
ATOM      4  N   UNL     1      -2.089  -0.751  24.947  0.00  0.00    -0.238 NA
ATOM      9  C   UNL     1      -2.126   0.563  24.933  0.00  0.00    +0.127 A 
ATOM     12  C   UNL     1      -0.233   0.056  23.926  0.00  0.00    +0.066 A 
ATOM     13  C   UNL     1      -0.910  -1.073  24.321  0.00  0.00    +0.139 A 
ATOM     19  H   UNL     1      -0.833   2.082  24.205  0.00  0.00    +0.167 HD
ENDROOT
BRANCH   9   6
ATOM      1  O   UNL     1      -5.654   1.731  25.522  0.00  0.00    -0.377 OA
ATOM      2  N   UNL     1      -3.059   2.888  25.170  0.00  0.00    -0.292 NA
ATOM      6  C   UNL     1      -3.226   1.450  25.500  0.00  0.00    +0.149 C 
ATOM      7  C   UNL     1      -4.589   0.945  24.989  0.00  0.00    +0.186 C 
ATOM      8  C   UNL     1      -4.212   3.662  25.663  0.00  0.00    +0.113 C 
ATOM     10  C   UNL     1      -5.517   3.092  25.120  0.00  0.00    +0.175 C 
ATOM     11  C   UNL     1      -1.827   3.448  25.740  0.00  0.00    +0.105 C 
ENDBRANCH   9   6
BRANCH  12  14
ATOM      5  N   UNL     1       3.459   0.576  21.917  0.00  0.00    -0.263 NA
ATOM     14  C   UNL     1       1.022   0.232  23.244  0.00  0.00    +0.003 A 
ATOM     15  C   UNL     1       1.305  -0.509  22.102  0.00  0.00    +0.029 A 
ATOM     16  C   UNL     1       1.956   1.144  23.724  0.00  0.00    +0.029 A 
ATOM     17  C   UNL     1       2.527  -0.302  21.481  0.00  0.00    +0.111 A 
ATOM     18  C   UNL     1       3.147   1.277  23.030  0.00  0.00    +0.111 A 
ENDBRANCH  12  14
TORSDOF 2
ENDMDL
MODEL 7
REMARK VINA RESULT:      -2.9     15.032     16.699
REMARK  Name = 75536198
REMARK  3 active torsions:
REMARK  status: ('A' for Active; 'I' for Inactive)
REMARK    1  A    between atoms: N_2  and  C_11
REMARK    2  A    between atoms: C_6  and  C_9
REMARK    3  A    between atoms: C_12  and  C_14
REMARK                            x       y       z     vdW  Elec       q    Type
REMARK                         _______ _______ _______ _____ _____    ______ ____
ROOT
ATOM      3  N   UNL     1       0.835   1.515  23.860  0.00  0.00    -0.341 N 
ATOM      4  N   UNL     1      -0.872   0.097  23.763  0.00  0.00    -0.238 NA
ATOM      9  C   UNL     1      -0.519   1.349  23.951  0.00  0.00    +0.127 A 
ATOM     12  C   UNL     1       1.380   0.290  23.598  0.00  0.00    +0.066 A 
ATOM     13  C   UNL     1       0.308  -0.569  23.543  0.00  0.00    +0.139 A 
ATOM     19  H   UNL     1       1.334   2.387  23.976  0.00  0.00    +0.167 HD
ENDROOT
BRANCH   9   6
ATOM      1  O   UNL     1      -2.287   3.912  26.063  0.00  0.00    -0.377 OA
ATOM      2  N   UNL     1      -2.831   2.323  23.745  0.00  0.00    -0.292 NA
ATOM      6  C   UNL     1      -1.444   2.525  24.236  0.00  0.00    +0.149 C 
ATOM      7  C   UNL     1      -1.454   2.795  25.753  0.00  0.00    +0.186 C 
ATOM      8  C   UNL     1      -3.684   3.454  24.150  0.00  0.00    +0.113 C 
ATOM     10  C   UNL     1      -3.630   3.659  25.658  0.00  0.00    +0.175 C 
ATOM     11  C   UNL     1      -2.886   2.179  22.285  0.00  0.00    +0.105 C 
ENDBRANCH   9   6
BRANCH  12  14
ATOM      5  N   UNL     1       5.538  -0.355  23.119  0.00  0.00    -0.263 NA
ATOM     14  C   UNL     1       2.793   0.070  23.434  0.00  0.00    +0.003 A 
ATOM     15  C   UNL     1       3.599   1.073  22.906  0.00  0.00    +0.029 A 
ATOM     16  C   UNL     1       3.359  -1.145  23.806  0.00  0.00    +0.029 A 
ATOM     17  C   UNL     1       4.953   0.813  22.769  0.00  0.00    +0.111 A 
ATOM     18  C   UNL     1       4.723  -1.305  23.629  0.00  0.00    +0.111 A 
ENDBRANCH  12  14
TORSDOF 2
ENDMDL
MODEL 8
REMARK VINA RESULT:      -2.9     14.735     16.125
REMARK  Name = 75536198
REMARK  3 active torsions:
REMARK  status: ('A' for Active; 'I' for Inactive)
REMARK    1  A    between atoms: N_2  and  C_11
REMARK    2  A    between atoms: C_6  and  C_9
REMARK    3  A    between atoms: C_12  and  C_14
REMARK                            x       y       z     vdW  Elec       q    Type
REMARK                         _______ _______ _______ _____ _____    ______ ____
ROOT
ATOM      3  N   UNL     1      -1.503   1.625  24.549  0.00  0.00    -0.341 N 
ATOM      4  N   UNL     1      -0.175   3.397  24.717  0.00  0.00    -0.238 NA
ATOM      9  C   UNL     1      -0.228   2.109  24.462  0.00  0.00    +0.127 A 
ATOM     12  C   UNL     1      -2.316   2.672  24.882  0.00  0.00    +0.066 A 
ATOM     13  C   UNL     1      -1.474   3.754  24.981  0.00  0.00    +0.139 A 
ATOM     19  H   UNL     1      -1.784   0.665  24.402  0.00  0.00    +0.167 HD
ENDROOT
BRANCH   9   6
ATOM      1  O   UNL     1       3.125   1.216  23.005  0.00  0.00    -0.377 OA
ATOM      2  N   UNL     1       0.547   0.009  23.311  0.00  0.00    -0.292 NA
ATOM      6  C   UNL     1       0.941   1.201  24.104  0.00  0.00    +0.149 C 
ATOM      7  C   UNL     1       1.994   2.022  23.336  0.00  0.00    +0.186 C 
ATOM      8  C   UNL     1       1.741  -0.759  22.918  0.00  0.00    +0.113 C 
ATOM     10  C   UNL     1       2.733   0.126  22.175  0.00  0.00    +0.175 C 
ATOM     11  C   UNL     1      -0.367  -0.870  24.051  0.00  0.00    +0.105 C 
ENDBRANCH   9   6
BRANCH  12  14
ATOM      5  N   UNL     1      -6.501   2.296  25.416  0.00  0.00    -0.263 NA
ATOM     14  C   UNL     1      -3.739   2.544  25.062  0.00  0.00    +0.003 A 
ATOM     15  C   UNL     1      -4.371   1.337  24.788  0.00  0.00    +0.029 A 
ATOM     16  C   UNL     1      -4.485   3.628  25.513  0.00  0.00    +0.029 A 
ATOM     17  C   UNL     1      -5.742   1.265  24.979  0.00  0.00    +0.111 A 
ATOM     18  C   UNL     1      -5.850   3.453  25.671  0.00  0.00    +0.111 A 
ENDBRANCH  12  14
TORSDOF 2
ENDMDL
MODEL 9
REMARK VINA RESULT:      -2.4     14.190     15.614
REMARK  Name = 75536198
REMARK  3 active torsions:
REMARK  status: ('A' for Active; 'I' for Inactive)
REMARK    1  A    between atoms: N_2  and  C_11
REMARK    2  A    between atoms: C_6  and  C_9
REMARK    3  A    between atoms: C_12  and  C_14
REMARK                            x       y       z     vdW  Elec       q    Type
REMARK                         _______ _______ _______ _____ _____    ______ ____
ROOT
ATOM      3  N   UNL     1      -1.896   1.497  23.989  0.00  0.00    -0.341 N 
ATOM      4  N   UNL     1      -1.377  -0.627  24.378  0.00  0.00    -0.238 NA
ATOM      9  C   UNL     1      -0.982   0.495  23.819  0.00  0.00    +0.127 A 
ATOM     12  C   UNL     1      -2.941   0.981  24.701  0.00  0.00    +0.066 A 
ATOM     13  C   UNL     1      -2.599  -0.331  24.929  0.00  0.00    +0.139 A 
ATOM     19  H   UNL     1      -1.811   2.442  23.640  0.00  0.00    +0.167 HD
ENDROOT
BRANCH   9   6
ATOM      1  O   UNL     1       2.025  -0.441  21.760  0.00  0.00    -0.377 OA
ATOM      2  N   UNL     1       1.378   1.367  23.884  0.00  0.00    -0.292 NA
ATOM      6  C   UNL     1       0.319   0.729  23.063  0.00  0.00    +0.149 C 
ATOM      7  C   UNL     1       0.821  -0.617  22.505  0.00  0.00    +0.186 C 
ATOM      8  C   UNL     1       2.631   1.462  23.115  0.00  0.00    +0.113 C 
ATOM     10  C   UNL     1       3.051   0.095  22.593  0.00  0.00    +0.175 C 
ATOM     11  C   UNL     1       0.992   2.707  24.341  0.00  0.00    +0.105 C 
ENDBRANCH   9   6
BRANCH  12  14
ATOM      5  N   UNL     1      -6.352   3.236  25.803  0.00  0.00    -0.263 NA
ATOM     14  C   UNL     1      -4.101   1.747  25.075  0.00  0.00    +0.003 A 
ATOM     15  C   UNL     1      -5.330   1.118  25.242  0.00  0.00    +0.029 A 
ATOM     16  C   UNL     1      -3.997   3.120  25.271  0.00  0.00    +0.029 A 
ATOM     17  C   UNL     1      -6.415   1.900  25.603  0.00  0.00    +0.111 A 
ATOM     18  C   UNL     1      -5.141   3.812  25.631  0.00  0.00    +0.111 A 
ENDBRANCH  12  14
TORSDOF 2
ENDMDL
MODEL 10
REMARK VINA RESULT:      -2.3     14.405     16.349
REMARK  Name = 75536198
REMARK  3 active torsions:
REMARK  status: ('A' for Active; 'I' for Inactive)
REMARK    1  A    between atoms: N_2  and  C_11
REMARK    2  A    between atoms: C_6  and  C_9
REMARK    3  A    between atoms: C_12  and  C_14
REMARK                            x       y       z     vdW  Elec       q    Type
REMARK                         _______ _______ _______ _____ _____    ______ ____
ROOT
ATOM      3  N   UNL     1      -2.852   1.245  25.165  0.00  0.00    -0.341 N 
ATOM      4  N   UNL     1      -4.599   2.589  25.440  0.00  0.00    -0.238 NA
ATOM      9  C   UNL     1      -3.286   2.519  25.406  0.00  0.00    +0.127 A 
ATOM     12  C   UNL     1      -3.958   0.453  25.037  0.00  0.00    +0.066 A 
ATOM     13  C   UNL     1      -5.023   1.304  25.211  0.00  0.00    +0.139 A 
ATOM     19  H   UNL     1      -1.886   0.950  25.104  0.00  0.00    +0.167 HD
ENDROOT
BRANCH   9   6
ATOM      1  O   UNL     1      -1.964   6.022  25.041  0.00  0.00    -0.377 OA
ATOM      2  N   UNL     1      -0.927   3.356  25.145  0.00  0.00    -0.292 NA
ATOM      6  C   UNL     1      -2.306   3.667  25.600  0.00  0.00    +0.149 C 
ATOM      7  C   UNL     1      -2.839   4.909  24.860  0.00  0.00    +0.186 C 
ATOM      8  C   UNL     1      -0.068   4.546  25.269  0.00  0.00    +0.113 C 
ATOM     10  C   UNL     1      -0.670   5.727  24.520  0.00  0.00    +0.175 C 
ATOM     11  C   UNL     1      -0.330   2.251  25.905  0.00  0.00    +0.105 C 
ENDBRANCH   9   6
BRANCH  12  14
ATOM      5  N   UNL     1      -3.770  -3.708  24.267  0.00  0.00    -0.263 NA
ATOM     14  C   UNL     1      -3.893  -0.961  24.775  0.00  0.00    +0.003 A 
ATOM     15  C   UNL     1      -3.253  -1.809  25.672  0.00  0.00    +0.029 A 
ATOM     16  C   UNL     1      -4.472  -1.485  23.624  0.00  0.00    +0.029 A 
ATOM     17  C   UNL     1      -3.219  -3.162  25.375  0.00  0.00    +0.111 A 
ATOM     18  C   UNL     1      -4.384  -2.852  23.419  0.00  0.00    +0.111 A 
ENDBRANCH  12  14
TORSDOF 2
ENDMDL
