MODEL 1
REMARK VINA RESULT:       3.2      0.000      0.000
REMARK  Name = 45783513
REMARK  4 active torsions:
REMARK  status: ('A' for Active; 'I' for Inactive)
REMARK    1  A    between atoms: N_3  and  C_13
REMARK    2  A    between atoms: C_9  and  C_14
REMARK    3  A    between atoms: C_13  and  C_15
REMARK    4  A    between atoms: C_19  and  C_22
REMARK                            x       y       z     vdW  Elec       q    Type
REMARK                         _______ _______ _______ _____ _____    ______ ____
ROOT
ATOM      1  O   UNL     1      -3.369   1.958  22.189  0.00  0.00    -0.336 OA
ATOM      4  N   UNL     1      -2.133   1.780  24.050  0.00  0.00    -0.190 NA
ATOM      6  N   UNL     1      -2.085   1.584  21.771  0.00  0.00    -0.056 NA
ATOM     14  C   UNL     1      -3.310   2.051  23.544  0.00  0.00    +0.245 A 
ATOM     19  C   UNL     1      -1.416   1.500  22.924  0.00  0.00    +0.204 A 
ENDROOT
BRANCH  19  22
ATOM      2  O   UNL     1       6.749  -0.254  23.389  0.00  0.00    -0.377 OA
ATOM      7  N   UNL     1       3.975   0.162  23.224  0.00  0.00    -0.311 N 
ATOM      8  N   UNL     1       2.175   1.546  23.891  0.00  0.00    -0.240 NA
ATOM     22  C   UNL     1      -0.028   1.137  22.985  0.00  0.00    +0.041 A 
ATOM     23  C   UNL     1       4.692   0.425  24.480  0.00  0.00    +0.134 C 
ATOM     24  C   UNL     1       4.802   0.195  22.014  0.00  0.00    +0.134 C 
ATOM     25  C   UNL     1       2.621   0.505  23.153  0.00  0.00    +0.121 A 
ATOM     26  C   UNL     1       5.941  -0.445  24.550  0.00  0.00    +0.178 C 
ATOM     27  C   UNL     1       6.046  -0.662  22.216  0.00  0.00    +0.178 C 
ATOM     30  C   UNL     1       0.467   0.072  22.241  0.00  0.00    +0.016 A 
ATOM     31  C   UNL     1       1.815  -0.256  22.321  0.00  0.00    +0.044 A 
ATOM     32  C   UNL     1       0.859   1.837  23.788  0.00  0.00    +0.124 A 
ENDBRANCH  19  22
BRANCH  14   9
ATOM      3  N   UNL     1      -4.778   1.732  25.528  0.00  0.00    -0.287 NA
ATOM      9  C   UNL     1      -4.591   2.447  24.249  0.00  0.00    +0.146 C 
ATOM     10  C   UNL     1      -4.625   3.939  24.627  0.00  0.00    +0.030 C 
ATOM     11  C   UNL     1      -5.552   2.625  26.390  0.00  0.00    +0.085 C 
ATOM     12  C   UNL     1      -4.897   3.965  26.124  0.00  0.00    +0.017 C 
BRANCH   3  13
ATOM     13  C   UNL     1      -5.416   0.432  25.372  0.00  0.00    +0.122 C 
BRANCH  13  15
ATOM      5  N   UNL     1      -3.647  -2.230  23.548  0.00  0.00    -0.360 N 
ATOM     15  C   UNL     1      -4.472  -0.590  24.796  0.00  0.00    -0.008 A 
ATOM     16  C   UNL     1      -3.127  -0.823  25.199  0.00  0.00    +0.004 A 
ATOM     17  C   UNL     1      -4.762  -1.470  23.779  0.00  0.00    +0.088 A 
ATOM     18  C   UNL     1      -2.633  -1.856  24.401  0.00  0.00    +0.047 A 
ATOM     20  C   UNL     1      -2.280  -0.253  26.170  0.00  0.00    +0.010 A 
ATOM     21  C   UNL     1      -1.329  -2.350  24.525  0.00  0.00    +0.026 A 
ATOM     28  C   UNL     1      -0.974  -0.735  26.306  0.00  0.00    +0.001 A 
ATOM     29  C   UNL     1      -0.508  -1.768  25.494  0.00  0.00    +0.002 A 
ATOM     33  H   UNL     1      -3.577  -2.958  22.850  0.00  0.00    +0.165 HD
ENDBRANCH  13  15
ENDBRANCH   3  13
ENDBRANCH  14   9
TORSDOF 4
ENDMDL
MODEL 2
REMARK VINA RESULT:       6.0      0.886      1.591
REMARK  Name = 45783513
REMARK  4 active torsions:
REMARK  status: ('A' for Active; 'I' for Inactive)
REMARK    1  A    between atoms: N_3  and  C_13
REMARK    2  A    between atoms: C_9  and  C_14
REMARK    3  A    between atoms: C_13  and  C_15
REMARK    4  A    between atoms: C_19  and  C_22
REMARK                            x       y       z     vdW  Elec       q    Type
REMARK                         _______ _______ _______ _____ _____    ______ ____
ROOT
ATOM      1  O   UNL     1      -3.383   2.335  22.235  0.00  0.00    -0.336 OA
ATOM      4  N   UNL     1      -2.285   1.626  24.055  0.00  0.00    -0.190 NA
ATOM      6  N   UNL     1      -2.072   2.068  21.821  0.00  0.00    -0.056 NA
ATOM     14  C   UNL     1      -3.423   2.048  23.563  0.00  0.00    +0.245 A 
ATOM     19  C   UNL     1      -1.487   1.655  22.948  0.00  0.00    +0.204 A 
ENDROOT
BRANCH  19  22
ATOM      2  O   UNL     1       6.642  -0.265  23.378  0.00  0.00    -0.377 OA
ATOM      7  N   UNL     1       3.876   0.208  23.225  0.00  0.00    -0.311 N 
ATOM      8  N   UNL     1       2.108   1.628  23.901  0.00  0.00    -0.240 NA
ATOM     22  C   UNL     1      -0.108   1.265  23.003  0.00  0.00    +0.041 A 
ATOM     23  C   UNL     1       4.604   0.455  24.478  0.00  0.00    +0.134 C 
ATOM     24  C   UNL     1       4.698   0.225  22.011  0.00  0.00    +0.134 C 
ATOM     25  C   UNL     1       2.529   0.579  23.160  0.00  0.00    +0.121 A 
ATOM     26  C   UNL     1       5.835  -0.440  24.542  0.00  0.00    +0.178 C 
ATOM     27  C   UNL     1       5.926  -0.658  22.207  0.00  0.00    +0.178 C 
ATOM     30  C   UNL     1       0.363   0.190  22.257  0.00  0.00    +0.016 A 
ATOM     31  C   UNL     1       1.705  -0.166  22.331  0.00  0.00    +0.044 A 
ATOM     32  C   UNL     1       0.797   1.945  23.803  0.00  0.00    +0.124 A 
ENDBRANCH  19  22
BRANCH  14   9
ATOM      3  N   UNL     1      -4.715   1.860  25.682  0.00  0.00    -0.287 NA
ATOM      9  C   UNL     1      -4.752   2.256  24.259  0.00  0.00    +0.146 C 
ATOM     10  C   UNL     1      -5.190   3.732  24.276  0.00  0.00    +0.030 C 
ATOM     11  C   UNL     1      -5.692   2.704  26.370  0.00  0.00    +0.085 C 
ATOM     12  C   UNL     1      -5.435   4.059  25.742  0.00  0.00    +0.017 C 
BRANCH   3  13
ATOM     13  C   UNL     1      -4.973   0.441  25.890  0.00  0.00    +0.122 C 
BRANCH  13  15
ATOM      5  N   UNL     1      -1.652  -1.144  25.843  0.00  0.00    -0.360 N 
ATOM     15  C   UNL     1      -3.734  -0.389  25.685  0.00  0.00    -0.008 A 
ATOM     16  C   UNL     1      -3.606  -1.525  24.836  0.00  0.00    +0.004 A 
ATOM     17  C   UNL     1      -2.517  -0.180  26.290  0.00  0.00    +0.088 A 
ATOM     18  C   UNL     1      -2.291  -1.979  24.955  0.00  0.00    +0.047 A 
ATOM     20  C   UNL     1      -4.486  -2.212  23.977  0.00  0.00    +0.010 A 
ATOM     21  C   UNL     1      -1.809  -3.091  24.253  0.00  0.00    +0.026 A 
ATOM     28  C   UNL     1      -4.019  -3.325  23.269  0.00  0.00    +0.001 A 
ATOM     29  C   UNL     1      -2.700  -3.756  23.407  0.00  0.00    +0.002 A 
ATOM     33  H   UNL     1      -0.686  -1.231  26.127  0.00  0.00    +0.165 HD
ENDBRANCH  13  15
ENDBRANCH   3  13
ENDBRANCH  14   9
TORSDOF 4
ENDMDL
