MODEL 1
REMARK VINA RESULT:      -3.0      0.000      0.000
REMARK  Name = 38030976
REMARK  12 active torsions:
REMARK  status: ('A' for Active; 'I' for Inactive)
REMARK    1  A    between atoms: N_4  and  C_15
REMARK    2  A    between atoms: N_4  and  C_21
REMARK    3  A    between atoms: N_5  and  C_22
REMARK    4  A    between atoms: C_8  and  C_12
REMARK    5  A    between atoms: C_9  and  C_15
REMARK    6  A    between atoms: C_11  and  C_16
REMARK    7  A    between atoms: C_12  and  C_17
REMARK    8  A    between atoms: C_12  and  C_18
REMARK    9  A    between atoms: C_13  and  C_19
REMARK   10  A    between atoms: C_16  and  C_20
REMARK   11  A    between atoms: C_21  and  C_22
REMARK   12  A    between atoms: C_27  and  C_28
REMARK                            x       y       z     vdW  Elec       q    Type
REMARK                         _______ _______ _______ _____ _____    ______ ____
ROOT
ATOM      8  C   UNL     1      -1.807   2.331  23.870  0.00  0.00    +0.000 C 
ATOM      9  C   UNL     1      -0.484   3.126  24.002  0.00  0.00    +0.029 C 
ATOM     10  C   UNL     1      -2.964   3.271  23.505  0.00  0.00    +0.012 C 
ATOM     11  C   UNL     1      -3.166   4.383  24.551  0.00  0.00    +0.024 C 
ATOM     13  C   UNL     1      -1.855   5.040  24.934  0.00  0.00    -0.073 C 
ATOM     14  C   UNL     1      -0.666   4.470  24.669  0.00  0.00    -0.023 C 
ATOM     19  C   UNL     1      -1.940   6.390  25.590  0.00  0.00    +0.039 C 
ENDROOT
BRANCH   8  12
ATOM     12  C   UNL     1      -1.697   1.214  22.827  0.00  0.00    -0.013 C 
ATOM     17  C   UNL     1      -2.931   1.198  21.932  0.00  0.00    +0.007 C 
ATOM     18  C   UNL     1      -1.507  -0.136  23.513  0.00  0.00    +0.007 C 
ENDBRANCH   8  12
BRANCH   9  15
ATOM     15  C   UNL     1       0.574   2.319  24.761  0.00  0.00    +0.088 C 
BRANCH  15   4
ATOM      4  N   UNL     1       1.611   1.852  23.857  0.00  0.00    -0.314 NA
ATOM     34  H   UNL     1       1.633   2.420  23.011  0.00  0.00    +0.122 HD
BRANCH   4  21
ATOM     21  C   UNL     1       1.403   0.456  23.495  0.00  0.00    +0.096 C 
BRANCH  21  22
ATOM     22  C   UNL     1       2.199   0.113  22.239  0.00  0.00    +0.099 C 
BRANCH  22   5
ATOM      3  O   UNL     1       5.694  -0.602  24.450  0.00  0.00    -0.377 OA
ATOM      5  N   UNL     1       3.553  -0.303  22.599  0.00  0.00    -0.297 NA
ATOM     23  C   UNL     1       3.522  -1.330  23.650  0.00  0.00    +0.112 C 
ATOM     24  C   UNL     1       4.353   0.847  23.041  0.00  0.00    +0.112 C 
ATOM     25  C   UNL     1       4.945  -1.738  24.018  0.00  0.00    +0.175 C 
ATOM     26  C   UNL     1       5.756   0.387  23.421  0.00  0.00    +0.175 C 
ENDBRANCH  22   5
ENDBRANCH  21  22
ENDBRANCH   4  21
ENDBRANCH  15   4
ENDBRANCH   9  15
BRANCH  11  16
ATOM     16  C   UNL     1      -3.894   3.849  25.790  0.00  0.00    +0.105 C 
BRANCH  16  20
ATOM      2  O   UNL     1      -3.852   1.450  25.348  0.00  0.00    -0.420 OA
ATOM      6  N   UNL     1      -5.901   2.347  25.343  0.00  0.00    -0.112 NA
ATOM      7  N   UNL     1      -6.027   0.995  25.082  0.00  0.00    -0.107 NA
ATOM     20  C   UNL     1      -4.616   2.567  25.492  0.00  0.00    +0.218 A 
ATOM     27  C   UNL     1      -4.806   0.512  25.095  0.00  0.00    +0.251 A 
BRANCH  27  28
ATOM      1  F   UNL     1      -3.285  -0.842  27.021  0.00  0.00    -0.205 F 
ATOM     28  C   UNL     1      -4.332  -0.825  24.886  0.00  0.00    +0.074 A 
ATOM     29  C   UNL     1      -3.578  -1.464  25.869  0.00  0.00    +0.136 A 
ATOM     30  C   UNL     1      -4.628  -1.487  23.694  0.00  0.00    +0.016 A 
ATOM     31  C   UNL     1      -3.117  -2.764  25.661  0.00  0.00    +0.039 A 
ATOM     32  C   UNL     1      -4.167  -2.787  23.485  0.00  0.00    +0.001 A 
ATOM     33  C   UNL     1      -3.413  -3.426  24.468  0.00  0.00    +0.003 A 
ENDBRANCH  27  28
ENDBRANCH  16  20
ENDBRANCH  11  16
TORSDOF 9
ENDMDL
MODEL 2
REMARK VINA RESULT:      -2.5      2.349      6.906
REMARK  Name = 38030976
REMARK  12 active torsions:
REMARK  status: ('A' for Active; 'I' for Inactive)
REMARK    1  A    between atoms: N_4  and  C_15
REMARK    2  A    between atoms: N_4  and  C_21
REMARK    3  A    between atoms: N_5  and  C_22
REMARK    4  A    between atoms: C_8  and  C_12
REMARK    5  A    between atoms: C_9  and  C_15
REMARK    6  A    between atoms: C_11  and  C_16
REMARK    7  A    between atoms: C_12  and  C_17
REMARK    8  A    between atoms: C_12  and  C_18
REMARK    9  A    between atoms: C_13  and  C_19
REMARK   10  A    between atoms: C_16  and  C_20
REMARK   11  A    between atoms: C_21  and  C_22
REMARK   12  A    between atoms: C_27  and  C_28
REMARK                            x       y       z     vdW  Elec       q    Type
REMARK                         _______ _______ _______ _____ _____    ______ ____
ROOT
ATOM      8  C   UNL     1      -2.426   3.320  24.982  0.00  0.00    +0.000 C 
ATOM      9  C   UNL     1      -3.732   3.562  24.182  0.00  0.00    +0.029 C 
ATOM     10  C   UNL     1      -1.214   3.316  24.041  0.00  0.00    +0.012 C 
ATOM     11  C   UNL     1      -1.325   2.233  22.951  0.00  0.00    +0.024 C 
ATOM     13  C   UNL     1      -2.690   2.233  22.295  0.00  0.00    -0.073 C 
ATOM     14  C   UNL     1      -3.751   2.843  22.853  0.00  0.00    -0.023 C 
ATOM     19  C   UNL     1      -2.800   1.554  20.958  0.00  0.00    +0.039 C 
ENDROOT
BRANCH   8  12
ATOM     12  C   UNL     1      -2.229   4.373  26.078  0.00  0.00    -0.013 C 
ATOM     17  C   UNL     1      -3.487   4.496  26.931  0.00  0.00    +0.007 C 
ATOM     18  C   UNL     1      -1.858   5.718  25.462  0.00  0.00    +0.007 C 
ENDBRANCH   8  12
BRANCH   9  15
ATOM     15  C   UNL     1      -4.964   3.158  24.999  0.00  0.00    +0.088 C 
BRANCH  15   4
ATOM      4  N   UNL     1      -5.468   1.866  24.564  0.00  0.00    -0.314 NA
ATOM     34  H   UNL     1      -6.486   1.855  24.577  0.00  0.00    +0.122 HD
BRANCH   4  21
ATOM     21  C   UNL     1      -4.964   0.794  25.413  0.00  0.00    +0.096 C 
BRANCH  21  22
ATOM     22  C   UNL     1      -4.646  -0.438  24.571  0.00  0.00    +0.099 C 
BRANCH  22   5
ATOM      3  O   UNL     1      -0.772  -1.869  25.323  0.00  0.00    -0.377 OA
ATOM      5  N   UNL     1      -3.528  -1.174  25.157  0.00  0.00    -0.297 NA
ATOM     23  C   UNL     1      -2.536  -0.251  25.727  0.00  0.00    +0.112 C 
ATOM     24  C   UNL     1      -2.892  -2.042  24.156  0.00  0.00    +0.112 C 
ATOM     25  C   UNL     1      -1.374  -1.042  26.321  0.00  0.00    +0.175 C 
ATOM     26  C   UNL     1      -1.723  -2.790  24.788  0.00  0.00    +0.175 C 
ENDBRANCH  22   5
ENDBRANCH  21  22
ENDBRANCH   4  21
ENDBRANCH  15   4
ENDBRANCH   9  15
BRANCH  11  16
ATOM     16  C   UNL     1      -0.986   0.848  23.513  0.00  0.00    +0.105 C 
BRANCH  16  20
ATOM      2  O   UNL     1       1.403   0.358  23.584  0.00  0.00    -0.420 OA
ATOM      6  N   UNL     1       0.391  -0.290  21.697  0.00  0.00    -0.112 NA
ATOM      7  N   UNL     1       1.728  -0.627  21.600  0.00  0.00    -0.107 NA
ATOM     20  C   UNL     1       0.247   0.281  22.870  0.00  0.00    +0.218 A 
ATOM     27  C   UNL     1       2.280  -0.230  22.724  0.00  0.00    +0.251 A 
BRANCH  27  28
ATOM      1  F   UNL     1       4.037   1.950  22.587  0.00  0.00    -0.205 F 
ATOM     28  C   UNL     1       3.638  -0.319  23.176  0.00  0.00    +0.074 A 
ATOM     29  C   UNL     1       4.480   0.788  23.090  0.00  0.00    +0.136 A 
ATOM     30  C   UNL     1       4.116  -1.519  23.703  0.00  0.00    +0.016 A 
ATOM     31  C   UNL     1       5.801   0.697  23.529  0.00  0.00    +0.039 A 
ATOM     32  C   UNL     1       5.437  -1.612  24.141  0.00  0.00    +0.001 A 
ATOM     33  C   UNL     1       6.279  -0.504  24.055  0.00  0.00    +0.003 A 
ENDBRANCH  27  28
ENDBRANCH  16  20
ENDBRANCH  11  16
TORSDOF 9
ENDMDL
MODEL 3
REMARK VINA RESULT:      -2.3      1.738      4.938
REMARK  Name = 38030976
REMARK  12 active torsions:
REMARK  status: ('A' for Active; 'I' for Inactive)
REMARK    1  A    between atoms: N_4  and  C_15
REMARK    2  A    between atoms: N_4  and  C_21
REMARK    3  A    between atoms: N_5  and  C_22
REMARK    4  A    between atoms: C_8  and  C_12
REMARK    5  A    between atoms: C_9  and  C_15
REMARK    6  A    between atoms: C_11  and  C_16
REMARK    7  A    between atoms: C_12  and  C_17
REMARK    8  A    between atoms: C_12  and  C_18
REMARK    9  A    between atoms: C_13  and  C_19
REMARK   10  A    between atoms: C_16  and  C_20
REMARK   11  A    between atoms: C_21  and  C_22
REMARK   12  A    between atoms: C_27  and  C_28
REMARK                            x       y       z     vdW  Elec       q    Type
REMARK                         _______ _______ _______ _____ _____    ______ ____
ROOT
ATOM      8  C   UNL     1      -1.954  -0.611  25.581  0.00  0.00    +0.000 C 
ATOM      9  C   UNL     1      -1.130  -1.843  25.128  0.00  0.00    +0.029 C 
ATOM     10  C   UNL     1      -3.361  -1.039  26.020  0.00  0.00    +0.012 C 
ATOM     11  C   UNL     1      -4.132  -1.753  24.894  0.00  0.00    +0.024 C 
ATOM     13  C   UNL     1      -3.285  -2.810  24.214  0.00  0.00    -0.073 C 
ATOM     14  C   UNL     1      -1.946  -2.842  24.341  0.00  0.00    -0.023 C 
ATOM     19  C   UNL     1      -4.015  -3.857  23.421  0.00  0.00    +0.039 C 
ENDROOT
BRANCH   8  12
ATOM     12  C   UNL     1      -1.263   0.147  26.719  0.00  0.00    -0.013 C 
ATOM     17  C   UNL     1      -0.422   1.291  26.164  0.00  0.00    +0.007 C 
ATOM     18  C   UNL     1      -0.404  -0.805  27.547  0.00  0.00    +0.007 C 
ENDBRANCH   8  12
BRANCH   9  15
ATOM     15  C   UNL     1       0.091  -1.420  24.304  0.00  0.00    +0.088 C 
BRANCH  15   4
ATOM      4  N   UNL     1      -0.214  -0.251  23.497  0.00  0.00    -0.314 NA
ATOM     34  H   UNL     1      -0.691  -0.522  22.638  0.00  0.00    +0.122 HD
BRANCH   4  21
ATOM     21  C   UNL     1       0.998   0.486  23.162  0.00  0.00    +0.096 C 
BRANCH  21  22
ATOM     22  C   UNL     1       1.788  -0.258  22.090  0.00  0.00    +0.099 C 
BRANCH  22   5
ATOM      3  O   UNL     1       5.323  -0.112  24.348  0.00  0.00    -0.377 OA
ATOM      5  N   UNL     1       3.196  -0.345  22.471  0.00  0.00    -0.297 NA
ATOM     23  C   UNL     1       3.387  -1.334  23.542  0.00  0.00    +0.112 C 
ATOM     24  C   UNL     1       3.704   0.966  22.897  0.00  0.00    +0.112 C 
ATOM     25  C   UNL     1       4.861  -1.397  23.931  0.00  0.00    +0.175 C 
ATOM     26  C   UNL     1       5.170   0.846  23.300  0.00  0.00    +0.175 C 
ENDBRANCH  22   5
ENDBRANCH  21  22
ENDBRANCH   4  21
ENDBRANCH  15   4
ENDBRANCH   9  15
BRANCH  11  16
ATOM     16  C   UNL     1      -4.676  -0.747  23.873  0.00  0.00    +0.105 C 
BRANCH  16  20
ATOM      2  O   UNL     1      -3.373   1.298  24.147  0.00  0.00    -0.420 OA
ATOM      6  N   UNL     1      -5.432   1.400  25.016  0.00  0.00    -0.112 NA
ATOM      7  N   UNL     1      -4.813   2.615  25.242  0.00  0.00    -0.107 NA
ATOM     20  C   UNL     1      -4.556   0.663  24.375  0.00  0.00    +0.218 A 
ATOM     27  C   UNL     1      -3.614   2.510  24.717  0.00  0.00    +0.251 A 
BRANCH  27  28
ATOM      1  F   UNL     1      -3.602   4.846  26.267  0.00  0.00    -0.205 F 
ATOM     28  C   UNL     1      -2.539   3.458  24.654  0.00  0.00    +0.074 A 
ATOM     29  C   UNL     1      -2.571   4.608  25.441  0.00  0.00    +0.136 A 
ATOM     30  C   UNL     1      -1.460   3.226  23.802  0.00  0.00    +0.016 A 
ATOM     31  C   UNL     1      -1.525   5.528  25.376  0.00  0.00    +0.039 A 
ATOM     32  C   UNL     1      -0.413   4.146  23.736  0.00  0.00    +0.001 A 
ATOM     33  C   UNL     1      -0.445   5.296  24.523  0.00  0.00    +0.003 A 
ENDBRANCH  27  28
ENDBRANCH  16  20
ENDBRANCH  11  16
TORSDOF 9
ENDMDL
MODEL 4
REMARK VINA RESULT:      -2.2      1.390      1.954
REMARK  Name = 38030976
REMARK  12 active torsions:
REMARK  status: ('A' for Active; 'I' for Inactive)
REMARK    1  A    between atoms: N_4  and  C_15
REMARK    2  A    between atoms: N_4  and  C_21
REMARK    3  A    between atoms: N_5  and  C_22
REMARK    4  A    between atoms: C_8  and  C_12
REMARK    5  A    between atoms: C_9  and  C_15
REMARK    6  A    between atoms: C_11  and  C_16
REMARK    7  A    between atoms: C_12  and  C_17
REMARK    8  A    between atoms: C_12  and  C_18
REMARK    9  A    between atoms: C_13  and  C_19
REMARK   10  A    between atoms: C_16  and  C_20
REMARK   11  A    between atoms: C_21  and  C_22
REMARK   12  A    between atoms: C_27  and  C_28
REMARK                            x       y       z     vdW  Elec       q    Type
REMARK                         _______ _______ _______ _____ _____    ______ ____
ROOT
ATOM      8  C   UNL     1      -2.881   2.609  23.839  0.00  0.00    +0.000 C 
ATOM      9  C   UNL     1      -1.570   2.979  24.579  0.00  0.00    +0.029 C 
ATOM     10  C   UNL     1      -3.890   3.763  23.925  0.00  0.00    +0.012 C 
ATOM     11  C   UNL     1      -4.237   4.127  25.380  0.00  0.00    +0.024 C 
ATOM     13  C   UNL     1      -2.997   4.247  26.242  0.00  0.00    -0.073 C 
ATOM     14  C   UNL     1      -1.811   3.740  25.862  0.00  0.00    -0.023 C 
ATOM     19  C   UNL     1      -3.140   5.004  27.533  0.00  0.00    +0.039 C 
ENDROOT
BRANCH   8  12
ATOM     12  C   UNL     1      -2.623   2.252  22.371  0.00  0.00    -0.013 C 
ATOM     17  C   UNL     1      -3.573   3.023  21.462  0.00  0.00    +0.007 C 
ATOM     18  C   UNL     1      -2.768   0.749  22.156  0.00  0.00    +0.007 C 
ENDBRANCH   8  12
BRANCH   9  15
ATOM     15  C   UNL     1      -0.730   1.732  24.874  0.00  0.00    +0.088 C 
BRANCH  15   4
ATOM      4  N   UNL     1       0.344   1.595  23.905  0.00  0.00    -0.314 NA
ATOM     34  H   UNL     1       0.158   2.163  23.080  0.00  0.00    +0.122 HD
BRANCH   4  21
ATOM     21  C   UNL     1       0.513   0.204  23.504  0.00  0.00    +0.096 C 
BRANCH  21  22
ATOM     22  C   UNL     1       1.679   0.076  22.528  0.00  0.00    +0.099 C 
BRANCH  22   5
ATOM      3  O   UNL     1       5.749  -0.424  23.424  0.00  0.00    -0.377 OA
ATOM      5  N   UNL     1       2.945   0.037  23.257  0.00  0.00    -0.297 NA
ATOM     23  C   UNL     1       3.914   0.975  22.672  0.00  0.00    +0.112 C 
ATOM     24  C   UNL     1       3.501  -1.323  23.265  0.00  0.00    +0.112 C 
ATOM     25  C   UNL     1       5.230   0.906  23.441  0.00  0.00    +0.175 C 
ATOM     26  C   UNL     1       4.826  -1.336  24.021  0.00  0.00    +0.175 C 
ENDBRANCH  22   5
ENDBRANCH  21  22
ENDBRANCH   4  21
ENDBRANCH  15   4
ENDBRANCH   9  15
BRANCH  11  16
ATOM     16  C   UNL     1      -5.226   3.121  25.980  0.00  0.00    +0.105 C 
BRANCH  16  20
ATOM      2  O   UNL     1      -3.977   1.060  25.594  0.00  0.00    -0.420 OA
ATOM      6  N   UNL     1      -5.933   1.162  24.513  0.00  0.00    -0.112 NA
ATOM      7  N   UNL     1      -5.339  -0.047  24.205  0.00  0.00    -0.107 NA
ATOM     20  C   UNL     1      -5.104   1.774  25.325  0.00  0.00    +0.218 A 
ATOM     27  C   UNL     1      -4.200  -0.064  24.859  0.00  0.00    +0.251 A 
BRANCH  27  28
ATOM      1  F   UNL     1      -4.428  -2.504  23.496  0.00  0.00    -0.205 F 
ATOM     28  C   UNL     1      -3.174  -1.065  24.915  0.00  0.00    +0.074 A 
ATOM     29  C   UNL     1      -3.326  -2.265  24.223  0.00  0.00    +0.136 A 
ATOM     30  C   UNL     1      -2.021  -0.833  25.665  0.00  0.00    +0.016 A 
ATOM     31  C   UNL     1      -2.326  -3.236  24.282  0.00  0.00    +0.039 A 
ATOM     32  C   UNL     1      -1.021  -1.804  25.725  0.00  0.00    +0.001 A 
ATOM     33  C   UNL     1      -1.173  -3.005  25.033  0.00  0.00    +0.003 A 
ENDBRANCH  27  28
ENDBRANCH  16  20
ENDBRANCH  11  16
TORSDOF 9
ENDMDL
MODEL 5
REMARK VINA RESULT:      -1.6      1.895      5.095
REMARK  Name = 38030976
REMARK  12 active torsions:
REMARK  status: ('A' for Active; 'I' for Inactive)
REMARK    1  A    between atoms: N_4  and  C_15
REMARK    2  A    between atoms: N_4  and  C_21
REMARK    3  A    between atoms: N_5  and  C_22
REMARK    4  A    between atoms: C_8  and  C_12
REMARK    5  A    between atoms: C_9  and  C_15
REMARK    6  A    between atoms: C_11  and  C_16
REMARK    7  A    between atoms: C_12  and  C_17
REMARK    8  A    between atoms: C_12  and  C_18
REMARK    9  A    between atoms: C_13  and  C_19
REMARK   10  A    between atoms: C_16  and  C_20
REMARK   11  A    between atoms: C_21  and  C_22
REMARK   12  A    between atoms: C_27  and  C_28
REMARK                            x       y       z     vdW  Elec       q    Type
REMARK                         _______ _______ _______ _____ _____    ______ ____
ROOT
ATOM      8  C   UNL     1      -1.618  -0.612  25.404  0.00  0.00    +0.000 C 
ATOM      9  C   UNL     1      -1.037  -1.767  24.549  0.00  0.00    +0.029 C 
ATOM     10  C   UNL     1      -2.834  -1.097  26.206  0.00  0.00    +0.012 C 
ATOM     11  C   UNL     1      -3.952  -1.641  25.298  0.00  0.00    +0.024 C 
ATOM     13  C   UNL     1      -3.413  -2.590  24.247  0.00  0.00    -0.073 C 
ATOM     14  C   UNL     1      -2.106  -2.642  23.935  0.00  0.00    -0.023 C 
ATOM     19  C   UNL     1      -4.404  -3.512  23.593  0.00  0.00    +0.039 C 
ENDROOT
BRANCH   8  12
ATOM     12  C   UNL     1      -0.569  -0.027  26.355  0.00  0.00    -0.013 C 
ATOM     17  C   UNL     1      -0.669  -0.683  27.728  0.00  0.00    +0.007 C 
ATOM     18  C   UNL     1      -0.735   1.486  26.464  0.00  0.00    +0.007 C 
ENDBRANCH   8  12
BRANCH   9  15
ATOM     15  C   UNL     1      -0.119  -1.231  23.445  0.00  0.00    +0.088 C 
BRANCH  15   4
ATOM      4  N   UNL     1      -0.097   0.222  23.456  0.00  0.00    -0.314 NA
ATOM     34  H   UNL     1      -0.725   0.596  22.746  0.00  0.00    +0.122 HD
BRANCH   4  21
ATOM     21  C   UNL     1       1.249   0.728  23.223  0.00  0.00    +0.096 C 
BRANCH  21  22
ATOM     22  C   UNL     1       1.961  -0.130  22.181  0.00  0.00    +0.099 C 
BRANCH  22   5
ATOM      3  O   UNL     1       5.511  -0.252  24.416  0.00  0.00    -0.377 OA
ATOM      5  N   UNL     1       3.364  -0.310  22.549  0.00  0.00    -0.297 NA
ATOM     23  C   UNL     1       3.501  -1.335  23.594  0.00  0.00    +0.112 C 
ATOM     24  C   UNL     1       3.951   0.957  23.004  0.00  0.00    +0.112 C 
ATOM     25  C   UNL     1       4.971  -1.496  23.971  0.00  0.00    +0.175 C 
ATOM     26  C   UNL     1       5.410   0.740  23.394  0.00  0.00    +0.175 C 
ENDBRANCH  22   5
ENDBRANCH  21  22
ENDBRANCH   4  21
ENDBRANCH  15   4
ENDBRANCH   9  15
BRANCH  11  16
ATOM     16  C   UNL     1      -4.743  -0.499  24.651  0.00  0.00    +0.105 C 
BRANCH  16  20
ATOM      2  O   UNL     1      -3.471   1.584  24.669  0.00  0.00    -0.420 OA
ATOM      6  N   UNL     1      -3.318   0.433  22.757  0.00  0.00    -0.112 NA
ATOM      7  N   UNL     1      -2.555   1.579  22.627  0.00  0.00    -0.107 NA
ATOM     20  C   UNL     1      -3.833   0.478  23.963  0.00  0.00    +0.218 A 
ATOM     27  C   UNL     1      -2.674   2.220  23.767  0.00  0.00    +0.251 A 
BRANCH  27  28
ATOM      1  F   UNL     1      -4.162   4.117  25.198  0.00  0.00    -0.205 F 
ATOM     28  C   UNL     1      -2.105   3.464  24.199  0.00  0.00    +0.074 A 
ATOM     29  C   UNL     1      -2.879   4.381  24.908  0.00  0.00    +0.136 A 
ATOM     30  C   UNL     1      -0.773   3.754  23.907  0.00  0.00    +0.016 A 
ATOM     31  C   UNL     1      -2.322   5.590  25.325  0.00  0.00    +0.039 A 
ATOM     32  C   UNL     1      -0.215   4.963  24.324  0.00  0.00    +0.001 A 
ATOM     33  C   UNL     1      -0.989   5.880  25.033  0.00  0.00    +0.003 A 
ENDBRANCH  27  28
ENDBRANCH  16  20
ENDBRANCH  11  16
TORSDOF 9
ENDMDL
MODEL 6
REMARK VINA RESULT:      -1.2      2.303      7.466
REMARK  Name = 38030976
REMARK  12 active torsions:
REMARK  status: ('A' for Active; 'I' for Inactive)
REMARK    1  A    between atoms: N_4  and  C_15
REMARK    2  A    between atoms: N_4  and  C_21
REMARK    3  A    between atoms: N_5  and  C_22
REMARK    4  A    between atoms: C_8  and  C_12
REMARK    5  A    between atoms: C_9  and  C_15
REMARK    6  A    between atoms: C_11  and  C_16
REMARK    7  A    between atoms: C_12  and  C_17
REMARK    8  A    between atoms: C_12  and  C_18
REMARK    9  A    between atoms: C_13  and  C_19
REMARK   10  A    between atoms: C_16  and  C_20
REMARK   11  A    between atoms: C_21  and  C_22
REMARK   12  A    between atoms: C_27  and  C_28
REMARK                            x       y       z     vdW  Elec       q    Type
REMARK                         _______ _______ _______ _____ _____    ______ ____
ROOT
ATOM      8  C   UNL     1      -3.399  -1.357  24.379  0.00  0.00    +0.000 C 
ATOM      9  C   UNL     1      -3.830  -0.524  25.612  0.00  0.00    +0.029 C 
ATOM     10  C   UNL     1      -1.901  -1.688  24.452  0.00  0.00    +0.012 C 
ATOM     11  C   UNL     1      -1.027  -0.421  24.514  0.00  0.00    +0.024 C 
ATOM     13  C   UNL     1      -1.550   0.574  25.529  0.00  0.00    -0.073 C 
ATOM     14  C   UNL     1      -2.801   0.505  26.018  0.00  0.00    -0.023 C 
ATOM     19  C   UNL     1      -0.588   1.627  26.004  0.00  0.00    +0.039 C 
ENDROOT
BRANCH   8  12
ATOM     12  C   UNL     1      -4.210  -2.651  24.255  0.00  0.00    -0.013 C 
ATOM     17  C   UNL     1      -3.360  -3.853  24.654  0.00  0.00    +0.007 C 
ATOM     18  C   UNL     1      -4.742  -2.812  22.835  0.00  0.00    +0.007 C 
ENDBRANCH   8  12
BRANCH   9  15
ATOM     15  C   UNL     1      -5.176   0.168  25.369  0.00  0.00    +0.088 C 
BRANCH  15   4
ATOM      4  N   UNL     1      -5.190   1.490  25.970  0.00  0.00    -0.314 NA
ATOM     34  H   UNL     1      -5.825   1.517  26.766  0.00  0.00    +0.122 HD
BRANCH   4  21
ATOM     21  C   UNL     1      -5.588   2.503  25.001  0.00  0.00    +0.096 C 
BRANCH  21  22
ATOM     22  C   UNL     1      -5.139   3.884  25.469  0.00  0.00    +0.099 C 
BRANCH  22   5
ATOM      3  O   UNL     1      -1.108   3.804  24.304  0.00  0.00    -0.377 OA
ATOM      5  N   UNL     1      -3.869   4.241  24.841  0.00  0.00    -0.297 NA
ATOM     23  C   UNL     1      -3.423   3.180  23.926  0.00  0.00    +0.112 C 
ATOM     24  C   UNL     1      -2.839   4.498  25.856  0.00  0.00    +0.112 C 
ATOM     25  C   UNL     1      -2.090   3.569  23.294  0.00  0.00    +0.175 C 
ATOM     26  C   UNL     1      -1.521   4.856  25.177  0.00  0.00    +0.175 C 
ENDBRANCH  22   5
ENDBRANCH  21  22
ENDBRANCH   4  21
ENDBRANCH  15   4
ENDBRANCH   9  15
BRANCH  11  16
ATOM     16  C   UNL     1      -0.892   0.225  23.131  0.00  0.00    +0.105 C 
BRANCH  16  20
ATOM      2  O   UNL     1       1.524  -0.008  23.389  0.00  0.00    -0.420 OA
ATOM      6  N   UNL     1       0.796  -0.278  21.291  0.00  0.00    -0.112 NA
ATOM      7  N   UNL     1       2.169  -0.435  21.289  0.00  0.00    -0.107 NA
ATOM     20  C   UNL     1       0.463  -0.031  22.536  0.00  0.00    +0.218 A 
ATOM     27  C   UNL     1       2.551  -0.270  22.535  0.00  0.00    +0.251 A 
BRANCH  27  28
ATOM      1  F   UNL     1       4.249   1.961  22.575  0.00  0.00    -0.205 F 
ATOM     28  C   UNL     1       3.859  -0.321  23.122  0.00  0.00    +0.074 A 
ATOM     29  C   UNL     1       4.673   0.811  23.121  0.00  0.00    +0.136 A 
ATOM     30  C   UNL     1       4.315  -1.508  23.695  0.00  0.00    +0.016 A 
ATOM     31  C   UNL     1       5.944   0.756  23.692  0.00  0.00    +0.039 A 
ATOM     32  C   UNL     1       5.587  -1.563  24.266  0.00  0.00    +0.001 A 
ATOM     33  C   UNL     1       6.401  -0.432  24.264  0.00  0.00    +0.003 A 
ENDBRANCH  27  28
ENDBRANCH  16  20
ENDBRANCH  11  16
TORSDOF 9
ENDMDL
MODEL 7
REMARK VINA RESULT:      -0.5      2.181      6.678
REMARK  Name = 38030976
REMARK  12 active torsions:
REMARK  status: ('A' for Active; 'I' for Inactive)
REMARK    1  A    between atoms: N_4  and  C_15
REMARK    2  A    between atoms: N_4  and  C_21
REMARK    3  A    between atoms: N_5  and  C_22
REMARK    4  A    between atoms: C_8  and  C_12
REMARK    5  A    between atoms: C_9  and  C_15
REMARK    6  A    between atoms: C_11  and  C_16
REMARK    7  A    between atoms: C_12  and  C_17
REMARK    8  A    between atoms: C_12  and  C_18
REMARK    9  A    between atoms: C_13  and  C_19
REMARK   10  A    between atoms: C_16  and  C_20
REMARK   11  A    between atoms: C_21  and  C_22
REMARK   12  A    between atoms: C_27  and  C_28
REMARK                            x       y       z     vdW  Elec       q    Type
REMARK                         _______ _______ _______ _____ _____    ______ ____
ROOT
ATOM      8  C   UNL     1      -1.880   2.896  24.955  0.00  0.00    +0.000 C 
ATOM      9  C   UNL     1      -3.101   3.827  24.750  0.00  0.00    +0.029 C 
ATOM     10  C   UNL     1      -1.049   2.809  23.667  0.00  0.00    +0.012 C 
ATOM     11  C   UNL     1      -1.871   2.280  22.477  0.00  0.00    +0.024 C 
ATOM     13  C   UNL     1      -3.215   2.971  22.370  0.00  0.00    -0.073 C 
ATOM     14  C   UNL     1      -3.743   3.668  23.391  0.00  0.00    -0.023 C 
ATOM     19  C   UNL     1      -3.921   2.879  21.045  0.00  0.00    +0.039 C 
ENDROOT
BRANCH   8  12
ATOM     12  C   UNL     1      -0.994   3.367  26.113  0.00  0.00    -0.013 C 
ATOM     17  C   UNL     1      -0.227   4.625  25.719  0.00  0.00    +0.007 C 
ATOM     18  C   UNL     1      -0.036   2.258  26.535  0.00  0.00    +0.007 C 
ENDBRANCH   8  12
BRANCH   9  15
ATOM     15  C   UNL     1      -4.155   3.607  25.841  0.00  0.00    +0.088 C 
BRANCH  15   4
ATOM      4  N   UNL     1      -5.324   2.936  25.299  0.00  0.00    -0.314 NA
ATOM     34  H   UNL     1      -6.179   3.375  25.636  0.00  0.00    +0.122 HD
BRANCH   4  21
ATOM     21  C   UNL     1      -5.333   1.524  25.659  0.00  0.00    +0.096 C 
BRANCH  21  22
ATOM     22  C   UNL     1      -5.061   0.665  24.428  0.00  0.00    +0.099 C 
BRANCH  22   5
ATOM      3  O   UNL     1      -2.833  -2.836  25.057  0.00  0.00    -0.377 OA
ATOM      5  N   UNL     1      -4.689  -0.690  24.831  0.00  0.00    -0.297 NA
ATOM     23  C   UNL     1      -3.597  -0.660  25.815  0.00  0.00    +0.112 C 
ATOM     24  C   UNL     1      -4.295  -1.492  23.665  0.00  0.00    +0.112 C 
ATOM     25  C   UNL     1      -3.217  -2.085  26.209  0.00  0.00    +0.175 C 
ATOM     26  C   UNL     1      -3.901  -2.896  24.111  0.00  0.00    +0.175 C 
ENDBRANCH  22   5
ENDBRANCH  21  22
ENDBRANCH   4  21
ENDBRANCH  15   4
ENDBRANCH   9  15
BRANCH  11  16
ATOM     16  C   UNL     1      -2.041   0.758  22.556  0.00  0.00    +0.105 C 
BRANCH  16  20
ATOM      2  O   UNL     1       0.374   0.493  22.785  0.00  0.00    -0.420 OA
ATOM      6  N   UNL     1      -0.824  -0.798  24.164  0.00  0.00    -0.112 NA
ATOM      7  N   UNL     1       0.514  -1.050  24.400  0.00  0.00    -0.107 NA
ATOM     20  C   UNL     1      -0.859   0.108  23.215  0.00  0.00    +0.218 A 
ATOM     27  C   UNL     1       1.177  -0.274  23.573  0.00  0.00    +0.251 A 
BRANCH  27  28
ATOM      1  F   UNL     1       3.020  -2.226  24.380  0.00  0.00    -0.205 F 
ATOM     28  C   UNL     1       2.588  -0.113  23.376  0.00  0.00    +0.074 A 
ATOM     29  C   UNL     1       3.472  -1.108  23.792  0.00  0.00    +0.136 A 
ATOM     30  C   UNL     1       3.076   1.042  22.766  0.00  0.00    +0.016 A 
ATOM     31  C   UNL     1       4.844  -0.947  23.600  0.00  0.00    +0.039 A 
ATOM     32  C   UNL     1       4.448   1.204  22.573  0.00  0.00    +0.001 A 
ATOM     33  C   UNL     1       5.332   0.210  22.990  0.00  0.00    +0.003 A 
ENDBRANCH  27  28
ENDBRANCH  16  20
ENDBRANCH  11  16
TORSDOF 9
ENDMDL
MODEL 8
REMARK VINA RESULT:      -0.3      1.356      4.383
REMARK  Name = 38030976
REMARK  12 active torsions:
REMARK  status: ('A' for Active; 'I' for Inactive)
REMARK    1  A    between atoms: N_4  and  C_15
REMARK    2  A    between atoms: N_4  and  C_21
REMARK    3  A    between atoms: N_5  and  C_22
REMARK    4  A    between atoms: C_8  and  C_12
REMARK    5  A    between atoms: C_9  and  C_15
REMARK    6  A    between atoms: C_11  and  C_16
REMARK    7  A    between atoms: C_12  and  C_17
REMARK    8  A    between atoms: C_12  and  C_18
REMARK    9  A    between atoms: C_13  and  C_19
REMARK   10  A    between atoms: C_16  and  C_20
REMARK   11  A    between atoms: C_21  and  C_22
REMARK   12  A    between atoms: C_27  and  C_28
REMARK                            x       y       z     vdW  Elec       q    Type
REMARK                         _______ _______ _______ _____ _____    ______ ____
ROOT
ATOM      8  C   UNL     1      -3.155  -1.141  24.940  0.00  0.00    +0.000 C 
ATOM      9  C   UNL     1      -2.081  -0.339  24.163  0.00  0.00    +0.029 C 
ATOM     10  C   UNL     1      -4.503  -1.082  24.206  0.00  0.00    +0.012 C 
ATOM     11  C   UNL     1      -5.007   0.361  24.026  0.00  0.00    +0.024 C 
ATOM     13  C   UNL     1      -3.917   1.279  23.512  0.00  0.00    -0.073 C 
ATOM     14  C   UNL     1      -2.616   0.943  23.569  0.00  0.00    -0.023 C 
ATOM     19  C   UNL     1      -4.358   2.573  22.888  0.00  0.00    +0.039 C 
ENDROOT
BRANCH   8  12
ATOM     12  C   UNL     1      -2.738  -2.601  25.144  0.00  0.00    -0.013 C 
ATOM     17  C   UNL     1      -1.328  -2.831  24.610  0.00  0.00    +0.007 C 
ATOM     18  C   UNL     1      -3.734  -3.538  24.467  0.00  0.00    +0.007 C 
ENDBRANCH   8  12
BRANCH   9  15
ATOM     15  C   UNL     1      -0.873  -0.025  25.052  0.00  0.00    +0.088 C 
BRANCH  15   4
ATOM      4  N   UNL     1       0.216   0.526  24.265  0.00  0.00    -0.314 NA
ATOM     34  H   UNL     1      -0.117   1.285  23.672  0.00  0.00    +0.122 HD
BRANCH   4  21
ATOM     21  C   UNL     1       0.834  -0.499  23.434  0.00  0.00    +0.096 C 
BRANCH  21  22
ATOM     22  C   UNL     1       1.725   0.146  22.377  0.00  0.00    +0.099 C 
BRANCH  22   5
ATOM      3  O   UNL     1       5.428  -0.435  24.264  0.00  0.00    -0.377 OA
ATOM      5  N   UNL     1       3.123  -0.209  22.610  0.00  0.00    -0.297 NA
ATOM     23  C   UNL     1       3.231  -1.255  23.637  0.00  0.00    +0.112 C 
ATOM     24  C   UNL     1       3.902   0.971  23.008  0.00  0.00    +0.112 C 
ATOM     25  C   UNL     1       4.699  -1.599  23.872  0.00  0.00    +0.175 C 
ATOM     26  C   UNL     1       5.353   0.573  23.256  0.00  0.00    +0.175 C 
ENDBRANCH  22   5
ENDBRANCH  21  22
ENDBRANCH   4  21
ENDBRANCH  15   4
ENDBRANCH   9  15
BRANCH  11  16
ATOM     16  C   UNL     1      -5.610   0.902  25.328  0.00  0.00    +0.105 C 
BRANCH  16  20
ATOM      2  O   UNL     1      -3.736   2.464  25.251  0.00  0.00    -0.420 OA
ATOM      6  N   UNL     1      -5.481   3.185  26.450  0.00  0.00    -0.112 NA
ATOM      7  N   UNL     1      -4.503   4.160  26.493  0.00  0.00    -0.107 NA
ATOM     20  C   UNL     1      -4.991   2.215  25.715  0.00  0.00    +0.218 A 
ATOM     27  C   UNL     1      -3.502   3.697  25.779  0.00  0.00    +0.251 A 
BRANCH  27  28
ATOM      1  F   UNL     1      -1.097   2.356  26.307  0.00  0.00    -0.205 F 
ATOM     28  C   UNL     1      -2.227   4.278  25.477  0.00  0.00    +0.074 A 
ATOM     29  C   UNL     1      -1.053   3.579  25.756  0.00  0.00    +0.136 A 
ATOM     30  C   UNL     1      -2.162   5.547  24.903  0.00  0.00    +0.016 A 
ATOM     31  C   UNL     1       0.185   4.148  25.462  0.00  0.00    +0.039 A 
ATOM     32  C   UNL     1      -0.924   6.118  24.609  0.00  0.00    +0.001 A 
ATOM     33  C   UNL     1       0.250   5.419  24.888  0.00  0.00    +0.003 A 
ENDBRANCH  27  28
ENDBRANCH  16  20
ENDBRANCH  11  16
TORSDOF 9
ENDMDL
MODEL 9
REMARK VINA RESULT:       0.5      2.433      4.562
REMARK  Name = 38030976
REMARK  12 active torsions:
REMARK  status: ('A' for Active; 'I' for Inactive)
REMARK    1  A    between atoms: N_4  and  C_15
REMARK    2  A    between atoms: N_4  and  C_21
REMARK    3  A    between atoms: N_5  and  C_22
REMARK    4  A    between atoms: C_8  and  C_12
REMARK    5  A    between atoms: C_9  and  C_15
REMARK    6  A    between atoms: C_11  and  C_16
REMARK    7  A    between atoms: C_12  and  C_17
REMARK    8  A    between atoms: C_12  and  C_18
REMARK    9  A    between atoms: C_13  and  C_19
REMARK   10  A    between atoms: C_16  and  C_20
REMARK   11  A    between atoms: C_21  and  C_22
REMARK   12  A    between atoms: C_27  and  C_28
REMARK                            x       y       z     vdW  Elec       q    Type
REMARK                         _______ _______ _______ _____ _____    ______ ____
ROOT
ATOM      8  C   UNL     1      -2.880   0.351  25.191  0.00  0.00    +0.000 C 
ATOM      9  C   UNL     1      -2.257   0.290  23.773  0.00  0.00    +0.029 C 
ATOM     10  C   UNL     1      -4.307   0.912  25.125  0.00  0.00    +0.012 C 
ATOM     11  C   UNL     1      -4.352   2.324  24.513  0.00  0.00    +0.024 C 
ATOM     13  C   UNL     1      -3.531   2.412  23.242  0.00  0.00    -0.073 C 
ATOM     14  C   UNL     1      -2.610   1.487  22.921  0.00  0.00    -0.023 C 
ATOM     19  C   UNL     1      -3.826   3.566  22.324  0.00  0.00    +0.039 C 
ENDROOT
BRANCH   8  12
ATOM     12  C   UNL     1      -2.894  -1.025  25.865  0.00  0.00    -0.013 C 
ATOM     17  C   UNL     1      -1.490  -1.409  26.320  0.00  0.00    +0.007 C 
ATOM     18  C   UNL     1      -3.462  -2.076  24.916  0.00  0.00    +0.007 C 
ENDBRANCH   8  12
BRANCH   9  15
ATOM     15  C   UNL     1      -0.733   0.145  23.844  0.00  0.00    +0.088 C 
BRANCH  15   4
ATOM      4  N   UNL     1      -0.083   1.421  23.600  0.00  0.00    -0.314 NA
ATOM     34  H   UNL     1      -0.449   1.855  22.754  0.00  0.00    +0.122 HD
BRANCH   4  21
ATOM     21  C   UNL     1       1.360   1.260  23.473  0.00  0.00    +0.096 C 
BRANCH  21  22
ATOM     22  C   UNL     1       1.679   0.055  22.594  0.00  0.00    +0.099 C 
BRANCH  22   5
ATOM      3  O   UNL     1       5.527  -0.492  24.177  0.00  0.00    -0.377 OA
ATOM      5  N   UNL     1       3.091  -0.300  22.717  0.00  0.00    -0.297 NA
ATOM     23  C   UNL     1       3.284  -1.319  23.759  0.00  0.00    +0.112 C 
ATOM     24  C   UNL     1       3.903   0.887  23.017  0.00  0.00    +0.112 C 
ATOM     25  C   UNL     1       4.766  -1.663  23.879  0.00  0.00    +0.175 C 
ATOM     26  C   UNL     1       5.370   0.490  23.153  0.00  0.00    +0.175 C 
ENDBRANCH  22   5
ENDBRANCH  21  22
ENDBRANCH   4  21
ENDBRANCH  15   4
ENDBRANCH   9  15
BRANCH  11  16
ATOM     16  C   UNL     1      -3.904   3.381  25.529  0.00  0.00    +0.105 C 
BRANCH  16  20
ATOM      2  O   UNL     1      -1.861   3.082  26.831  0.00  0.00    -0.420 OA
ATOM      6  N   UNL     1      -1.518   3.793  24.738  0.00  0.00    -0.112 NA
ATOM      7  N   UNL     1      -0.287   3.669  25.353  0.00  0.00    -0.107 NA
ATOM     20  C   UNL     1      -2.407   3.440  25.636  0.00  0.00    +0.218 A 
ATOM     27  C   UNL     1      -0.535   3.251  26.573  0.00  0.00    +0.251 A 
BRANCH  27  28
ATOM      1  F   UNL     1      -1.400   3.188  29.239  0.00  0.00    -0.205 F 
ATOM     28  C   UNL     1       0.358   2.951  27.654  0.00  0.00    +0.074 A 
ATOM     29  C   UNL     1      -0.112   2.931  28.967  0.00  0.00    +0.136 A 
ATOM     30  C   UNL     1       1.700   2.680  27.389  0.00  0.00    +0.016 A 
ATOM     31  C   UNL     1       0.761   2.640  30.015  0.00  0.00    +0.039 A 
ATOM     32  C   UNL     1       2.573   2.390  28.438  0.00  0.00    +0.001 A 
ATOM     33  C   UNL     1       2.104   2.370  29.750  0.00  0.00    +0.003 A 
ENDBRANCH  27  28
ENDBRANCH  16  20
ENDBRANCH  11  16
TORSDOF 9
ENDMDL
