MODEL 1
REMARK VINA RESULT:      11.7      0.000      0.000
REMARK  Name = 7143842
REMARK  6 active torsions:
REMARK  status: ('A' for Active; 'I' for Inactive)
REMARK    1  A    between atoms: S_1  and  C_27
REMARK    2  A    between atoms: S_1  and  C_28
REMARK    3  A    between atoms: N_6  and  C_20
REMARK    4  A    between atoms: C_17  and  C_19
REMARK    5  A    between atoms: C_20  and  C_23
REMARK    6  A    between atoms: C_20  and  C_24
REMARK                            x       y       z     vdW  Elec       q    Type
REMARK                         _______ _______ _______ _____ _____    ______ ____
ROOT
ATOM      2  O   UNL     1      -0.122   0.436  22.017  0.00  0.00    -0.267 OA
ATOM      3  O   UNL     1      -2.523   3.375  26.703  0.00  0.00    -0.253 OA
ATOM      4  N   UNL     1      -3.716   2.165  25.121  0.00  0.00    -0.285 N 
ATOM      5  N   UNL     1      -1.802   0.073  23.593  0.00  0.00    -0.311 N 
ATOM      6  N   UNL     1      -2.931   4.349  24.667  0.00  0.00    -0.297 N 
ATOM      7  C   UNL     1      -4.249   0.683  23.164  0.00  0.00    +0.027 C 
ATOM      8  C   UNL     1      -3.603  -0.322  25.308  0.00  0.00    +0.054 C 
ATOM      9  C   UNL     1      -4.564  -0.452  24.129  0.00  0.00    +0.018 C 
ATOM     10  C   UNL     1      -4.432   2.054  23.841  0.00  0.00    +0.114 C 
ATOM     11  C   UNL     1      -2.825   0.494  22.628  0.00  0.00    +0.130 C 
ATOM     12  C   UNL     1      -3.859   1.015  26.023  0.00  0.00    +0.119 C 
ATOM     13  C   UNL     1      -2.156  -0.399  24.859  0.00  0.00    +0.027 A 
ATOM     14  C   UNL     1      -1.217  -0.893  25.680  0.00  0.00    +0.022 A 
ATOM     15  C   UNL     1      -0.468   0.063  23.139  0.00  0.00    +0.259 A 
ATOM     16  C   UNL     1      -3.020   3.300  25.575  0.00  0.00    +0.302 C 
ATOM     17  C   UNL     1       0.567  -0.462  24.097  0.00  0.00    +0.047 A 
ATOM     18  C   UNL     1       0.165  -0.918  25.292  0.00  0.00    +0.015 A 
ATOM     29  H   UNL     1      -3.461   4.344  23.807  0.00  0.00    +0.150 HD
ENDROOT
BRANCH  17  19
ATOM     19  C   UNL     1       1.997  -0.474  23.744  0.00  0.00    -0.013 A 
ATOM     21  C   UNL     1       2.782  -1.589  24.045  0.00  0.00    +0.010 A 
ATOM     22  C   UNL     1       2.569   0.629  23.110  0.00  0.00    +0.010 A 
ATOM     25  C   UNL     1       4.136  -1.599  23.711  0.00  0.00    +0.015 A 
ATOM     26  C   UNL     1       3.925   0.618  22.776  0.00  0.00    +0.015 A 
ATOM     27  C   UNL     1       4.707  -0.496  23.077  0.00  0.00    +0.008 A 
BRANCH  27   1
ATOM      1  S   UNL     1       6.438  -0.510  22.652  0.00  0.00    -0.129 S 
ATOM     28  C   UNL     1       7.133   0.615  23.896  0.00  0.00    +0.090 C 
ENDBRANCH  27   1
ENDBRANCH  17  19
BRANCH   6  20
ATOM     20  C   UNL     1      -2.254   5.587  24.985  0.00  0.00    +0.068 C 
ATOM     23  C   UNL     1      -2.643   6.674  23.992  0.00  0.00    +0.027 C 
ATOM     24  C   UNL     1      -0.745   5.379  25.015  0.00  0.00    +0.027 C 
ENDBRANCH   6  20
TORSDOF 3
ENDMDL
MODEL 2
REMARK VINA RESULT:      12.1      2.056      4.170
REMARK  Name = 7143842
REMARK  6 active torsions:
REMARK  status: ('A' for Active; 'I' for Inactive)
REMARK    1  A    between atoms: S_1  and  C_27
REMARK    2  A    between atoms: S_1  and  C_28
REMARK    3  A    between atoms: N_6  and  C_20
REMARK    4  A    between atoms: C_17  and  C_19
REMARK    5  A    between atoms: C_20  and  C_23
REMARK    6  A    between atoms: C_20  and  C_24
REMARK                            x       y       z     vdW  Elec       q    Type
REMARK                         _______ _______ _______ _____ _____    ______ ____
ROOT
ATOM      2  O   UNL     1       0.574   2.227  25.534  0.00  0.00    -0.267 OA
ATOM      3  O   UNL     1      -4.413  -0.899  24.222  0.00  0.00    -0.253 OA
ATOM      4  N   UNL     1      -4.364   1.280  25.023  0.00  0.00    -0.285 N 
ATOM      5  N   UNL     1      -1.483   2.626  24.511  0.00  0.00    -0.311 N 
ATOM      6  N   UNL     1      -4.067  -0.570  26.466  0.00  0.00    -0.297 N 
ATOM      7  C   UNL     1      -3.512   3.514  25.793  0.00  0.00    +0.027 C 
ATOM      8  C   UNL     1      -3.699   3.048  23.391  0.00  0.00    +0.054 C 
ATOM      9  C   UNL     1      -3.927   4.115  24.458  0.00  0.00    +0.018 C 
ATOM     10  C   UNL     1      -4.344   2.259  26.120  0.00  0.00    +0.114 C 
ATOM     11  C   UNL     1      -2.009   3.209  25.751  0.00  0.00    +0.130 C 
ATOM     12  C   UNL     1      -4.602   1.838  23.686  0.00  0.00    +0.119 C 
ATOM     13  C   UNL     1      -2.248   2.610  23.342  0.00  0.00    +0.027 A 
ATOM     14  C   UNL     1      -1.707   2.185  22.190  0.00  0.00    +0.022 A 
ATOM     15  C   UNL     1      -0.143   2.192  24.532  0.00  0.00    +0.259 A 
ATOM     16  C   UNL     1      -4.288  -0.117  25.170  0.00  0.00    +0.302 C 
ATOM     17  C   UNL     1       0.424   1.687  23.233  0.00  0.00    +0.047 A 
ATOM     18  C   UNL     1      -0.353   1.712  22.139  0.00  0.00    +0.015 A 
ATOM     29  H   UNL     1      -4.113   0.058  27.256  0.00  0.00    +0.150 HD
ENDROOT
BRANCH  17  19
ATOM     19  C   UNL     1       1.798   1.165  23.152  0.00  0.00    -0.013 A 
ATOM     21  C   UNL     1       2.038  -0.202  23.307  0.00  0.00    +0.010 A 
ATOM     22  C   UNL     1       2.864   2.035  22.919  0.00  0.00    +0.010 A 
ATOM     25  C   UNL     1       3.340  -0.696  23.230  0.00  0.00    +0.015 A 
ATOM     26  C   UNL     1       4.167   1.541  22.842  0.00  0.00    +0.015 A 
ATOM     27  C   UNL     1       4.404   0.175  22.998  0.00  0.00    +0.008 A 
BRANCH  27   1
ATOM      1  S   UNL     1       6.068  -0.456  22.901  0.00  0.00    -0.129 S 
ATOM     28  C   UNL     1       6.240  -1.291  24.503  0.00  0.00    +0.090 C 
ENDBRANCH  27   1
ENDBRANCH  17  19
BRANCH   6  20
ATOM     20  C   UNL     1      -3.971  -1.978  26.783  0.00  0.00    +0.068 C 
ATOM     23  C   UNL     1      -3.192  -2.178  28.076  0.00  0.00    +0.027 C 
ATOM     24  C   UNL     1      -3.333  -2.743  25.629  0.00  0.00    +0.027 C 
ENDBRANCH   6  20
TORSDOF 3
ENDMDL
