MODEL 1
REMARK VINA RESULT:      10.7      0.000      0.000
REMARK  Name = 11942816
REMARK  4 active torsions:
REMARK  status: ('A' for Active; 'I' for Inactive)
REMARK    1  A    between atoms: C_15  and  C_18
REMARK    2  A    between atoms: C_16  and  C_19
REMARK    3  A    between atoms: C_20  and  C_27
REMARK    4  A    between atoms: C_29  and  C_31
REMARK                            x       y       z     vdW  Elec       q    Type
REMARK                         _______ _______ _______ _____ _____    ______ ____
ROOT
ATOM      1  O   UNL     1      -3.977   2.441  25.922  0.00  0.00    -0.267 OA
ATOM      2  O   UNL     1      -0.817  -1.377  26.897  0.00  0.00    -0.270 OA
ATOM      3  N   UNL     1      -2.022  -2.033  25.029  0.00  0.00    -0.297 N 
ATOM      4  N   UNL     1      -3.762   0.556  24.566  0.00  0.00    -0.311 N 
ATOM      6  C   UNL     1      -4.478  -1.782  25.332  0.00  0.00    +0.027 C 
ATOM      7  C   UNL     1      -3.484  -1.474  23.100  0.00  0.00    +0.054 C 
ATOM      8  C   UNL     1      -4.686  -2.052  23.845  0.00  0.00    +0.018 C 
ATOM      9  C   UNL     1      -3.180  -2.451  25.821  0.00  0.00    +0.113 C 
ATOM     10  C   UNL     1      -4.469  -0.264  25.560  0.00  0.00    +0.130 C 
ATOM     11  C   UNL     1      -2.195  -2.178  23.572  0.00  0.00    +0.117 C 
ATOM     12  C   UNL     1      -3.360   0.020  23.340  0.00  0.00    +0.027 A 
ATOM     13  C   UNL     1      -2.827   0.814  22.398  0.00  0.00    +0.022 A 
ATOM     14  C   UNL     1      -3.606   1.923  24.868  0.00  0.00    +0.259 A 
ATOM     15  C   UNL     1      -0.904  -1.471  25.671  0.00  0.00    +0.247 C 
ATOM     16  C   UNL     1      -2.962   2.779  23.811  0.00  0.00    +0.047 A 
ATOM     17  C   UNL     1      -2.623   2.213  22.643  0.00  0.00    +0.015 A 
ENDROOT
BRANCH  16  19
ATOM     19  C   UNL     1      -2.690   4.206  24.046  0.00  0.00    -0.010 A 
ATOM     20  C   UNL     1      -1.595   4.623  24.805  0.00  0.00    -0.043 A 
ATOM     23  C   UNL     1      -3.552   5.155  23.494  0.00  0.00    +0.009 A 
ATOM     24  C   UNL     1      -1.363   5.983  25.012  0.00  0.00    +0.004 A 
ATOM     27  C   UNL     1      -0.650   3.637  25.415  0.00  0.00    +0.044 C 
ATOM     28  C   UNL     1      -3.321   6.516  23.699  0.00  0.00    +0.001 A 
ATOM     30  C   UNL     1      -2.226   6.929  24.458  0.00  0.00    +0.000 A 
ENDBRANCH  16  19
BRANCH  15  18
ATOM     18  C   UNL     1       0.164  -0.963  24.821  0.00  0.00    +0.037 A 
ATOM     21  C   UNL     1       1.261  -1.771  24.530  0.00  0.00    +0.014 A 
ATOM     22  C   UNL     1       0.082   0.326  24.301  0.00  0.00    +0.014 A 
ATOM     25  C   UNL     1       2.283  -1.285  23.713  0.00  0.00    +0.019 A 
ATOM     26  C   UNL     1       1.104   0.812  23.484  0.00  0.00    +0.019 A 
ATOM     29  C   UNL     1       2.204   0.005  23.191  0.00  0.00    +0.052 A 
BRANCH  29  31
ATOM      5  N   UNL     1       4.106   0.907  21.679  0.00  0.00    -0.191 NA
ATOM     31  C   UNL     1       3.253   0.503  22.357  0.00  0.00    +0.099 C 
ENDBRANCH  29  31
ENDBRANCH  15  18
TORSDOF 3
ENDMDL
MODEL 2
REMARK VINA RESULT:      12.3      1.972      5.833
REMARK  Name = 11942816
REMARK  4 active torsions:
REMARK  status: ('A' for Active; 'I' for Inactive)
REMARK    1  A    between atoms: C_15  and  C_18
REMARK    2  A    between atoms: C_16  and  C_19
REMARK    3  A    between atoms: C_20  and  C_27
REMARK    4  A    between atoms: C_29  and  C_31
REMARK                            x       y       z     vdW  Elec       q    Type
REMARK                         _______ _______ _______ _____ _____    ______ ____
ROOT
ATOM      1  O   UNL     1       0.262  -2.136  22.680  0.00  0.00    -0.267 OA
ATOM      2  O   UNL     1      -4.125   0.282  22.036  0.00  0.00    -0.270 OA
ATOM      3  N   UNL     1      -4.177  -0.525  24.208  0.00  0.00    -0.297 N 
ATOM      4  N   UNL     1      -1.306  -1.820  24.376  0.00  0.00    -0.311 N 
ATOM      6  C   UNL     1      -3.609  -2.943  24.350  0.00  0.00    +0.027 C 
ATOM      7  C   UNL     1      -3.002  -1.434  26.199  0.00  0.00    +0.054 C 
ATOM      8  C   UNL     1      -3.526  -2.831  25.869  0.00  0.00    +0.018 C 
ATOM      9  C   UNL     1      -4.563  -1.873  23.786  0.00  0.00    +0.113 C 
ATOM     10  C   UNL     1      -2.195  -2.822  23.768  0.00  0.00    +0.130 C 
ATOM     11  C   UNL     1      -3.985  -0.373  25.661  0.00  0.00    +0.117 C 
ATOM     12  C   UNL     1      -1.630  -1.208  25.589  0.00  0.00    +0.027 A 
ATOM     13  C   UNL     1      -0.751  -0.389  26.189  0.00  0.00    +0.022 A 
ATOM     14  C   UNL     1      -0.075  -1.591  23.732  0.00  0.00    +0.259 A 
ATOM     15  C   UNL     1      -3.945   0.469  23.240  0.00  0.00    +0.247 C 
ATOM     16  C   UNL     1       0.870  -0.632  24.404  0.00  0.00    +0.047 A 
ATOM     17  C   UNL     1       0.515  -0.096  25.581  0.00  0.00    +0.015 A 
ENDROOT
BRANCH  16  19
ATOM     19  C   UNL     1       2.155  -0.268  23.784  0.00  0.00    -0.010 A 
ATOM     20  C   UNL     1       2.375   1.006  23.257  0.00  0.00    -0.043 A 
ATOM     23  C   UNL     1       3.170  -1.225  23.729  0.00  0.00    +0.009 A 
ATOM     24  C   UNL     1       3.603   1.321  22.676  0.00  0.00    +0.004 A 
ATOM     27  C   UNL     1       1.313   2.058  23.296  0.00  0.00    +0.044 C 
ATOM     28  C   UNL     1       4.399  -0.911  23.149  0.00  0.00    +0.001 A 
ATOM     30  C   UNL     1       4.615   0.362  22.622  0.00  0.00    +0.000 A 
ENDBRANCH  16  19
BRANCH  15  18
ATOM     18  C   UNL     1      -3.446   1.753  23.715  0.00  0.00    +0.037 A 
ATOM     21  C   UNL     1      -4.344   2.737  24.123  0.00  0.00    +0.014 A 
ATOM     22  C   UNL     1      -2.075   1.990  23.759  0.00  0.00    +0.014 A 
ATOM     25  C   UNL     1      -3.865   3.966  24.579  0.00  0.00    +0.019 A 
ATOM     26  C   UNL     1      -1.596   3.219  24.215  0.00  0.00    +0.019 A 
ATOM     29  C   UNL     1      -2.492   4.206  24.625  0.00  0.00    +0.052 A 
BRANCH  29  31
ATOM      5  N   UNL     1      -1.605   6.490  25.468  0.00  0.00    -0.191 NA
ATOM     31  C   UNL     1      -2.003   5.466  25.090  0.00  0.00    +0.099 C 
ENDBRANCH  29  31
ENDBRANCH  15  18
TORSDOF 3
ENDMDL
MODEL 3
REMARK VINA RESULT:      13.1      2.093      5.744
REMARK  Name = 11942816
REMARK  4 active torsions:
REMARK  status: ('A' for Active; 'I' for Inactive)
REMARK    1  A    between atoms: C_15  and  C_18
REMARK    2  A    between atoms: C_16  and  C_19
REMARK    3  A    between atoms: C_20  and  C_27
REMARK    4  A    between atoms: C_29  and  C_31
REMARK                            x       y       z     vdW  Elec       q    Type
REMARK                         _______ _______ _______ _____ _____    ______ ____
ROOT
ATOM      1  O   UNL     1       0.560   2.391  25.322  0.00  0.00    -0.267 OA
ATOM      2  O   UNL     1      -3.635   0.285  27.185  0.00  0.00    -0.270 OA
ATOM      3  N   UNL     1      -4.326   1.522  25.350  0.00  0.00    -0.297 N 
ATOM      4  N   UNL     1      -1.536   2.568  24.316  0.00  0.00    -0.311 N 
ATOM      6  C   UNL     1      -3.474   3.858  25.388  0.00  0.00    +0.027 C 
ATOM      7  C   UNL     1      -3.806   2.712  23.234  0.00  0.00    +0.054 C 
ATOM      8  C   UNL     1      -3.953   4.053  23.953  0.00  0.00    +0.018 C 
ATOM      9  C   UNL     1      -4.321   2.783  26.094  0.00  0.00    +0.113 C 
ATOM     10  C   UNL     1      -1.983   3.498  25.365  0.00  0.00    +0.130 C 
ATOM     11  C   UNL     1      -4.688   1.653  23.927  0.00  0.00    +0.117 C 
ATOM     12  C   UNL     1      -2.361   2.247  23.236  0.00  0.00    +0.027 A 
ATOM     13  C   UNL     1      -1.892   1.495  22.227  0.00  0.00    +0.022 A 
ATOM     14  C   UNL     1      -0.209   2.105  24.403  0.00  0.00    +0.259 A 
ATOM     15  C   UNL     1      -3.926   0.334  25.989  0.00  0.00    +0.247 C 
ATOM     16  C   UNL     1       0.274   1.225  23.282  0.00  0.00    +0.047 A 
ATOM     17  C   UNL     1      -0.555   0.975  22.258  0.00  0.00    +0.015 A 
ENDROOT
BRANCH  16  19
ATOM     19  C   UNL     1       1.621   0.631  23.305  0.00  0.00    -0.010 A 
ATOM     20  C   UNL     1       1.831  -0.681  23.733  0.00  0.00    -0.043 A 
ATOM     23  C   UNL     1       2.704   1.406  22.886  0.00  0.00    +0.009 A 
ATOM     24  C   UNL     1       3.120  -1.216  23.743  0.00  0.00    +0.004 A 
ATOM     27  C   UNL     1       0.698  -1.542  24.190  0.00  0.00    +0.044 C 
ATOM     28  C   UNL     1       3.993   0.872  22.895  0.00  0.00    +0.001 A 
ATOM     30  C   UNL     1       4.200  -0.439  23.324  0.00  0.00    +0.000 A 
ENDBRANCH  16  19
BRANCH  15  18
ATOM     18  C   UNL     1      -3.835  -0.865  25.165  0.00  0.00    +0.037 A 
ATOM     21  C   UNL     1      -2.832  -1.799  25.410  0.00  0.00    +0.014 A 
ATOM     22  C   UNL     1      -4.754  -1.071  24.139  0.00  0.00    +0.014 A 
ATOM     25  C   UNL     1      -2.747  -2.947  24.622  0.00  0.00    +0.019 A 
ATOM     26  C   UNL     1      -4.669  -2.220  23.352  0.00  0.00    +0.019 A 
ATOM     29  C   UNL     1      -3.665  -3.157  23.594  0.00  0.00    +0.052 A 
BRANCH  29  31
ATOM      5  N   UNL     1      -3.503  -5.289  22.129  0.00  0.00    -0.191 NA
ATOM     31  C   UNL     1      -3.575  -4.333  22.786  0.00  0.00    +0.099 C 
ENDBRANCH  29  31
ENDBRANCH  15  18
TORSDOF 3
ENDMDL
MODEL 4
REMARK VINA RESULT:      14.3      2.051      5.701
REMARK  Name = 11942816
REMARK  4 active torsions:
REMARK  status: ('A' for Active; 'I' for Inactive)
REMARK    1  A    between atoms: C_15  and  C_18
REMARK    2  A    between atoms: C_16  and  C_19
REMARK    3  A    between atoms: C_20  and  C_27
REMARK    4  A    between atoms: C_29  and  C_31
REMARK                            x       y       z     vdW  Elec       q    Type
REMARK                         _______ _______ _______ _____ _____    ______ ____
ROOT
ATOM      1  O   UNL     1      -4.294   0.904  23.869  0.00  0.00    -0.267 OA
ATOM      2  O   UNL     1      -0.371   3.640  22.247  0.00  0.00    -0.270 OA
ATOM      3  N   UNL     1      -0.315   3.788  24.559  0.00  0.00    -0.297 N 
ATOM      4  N   UNL     1      -2.729   1.893  25.285  0.00  0.00    -0.311 N 
ATOM      6  C   UNL     1      -2.510   4.434  25.536  0.00  0.00    +0.027 C 
ATOM      7  C   UNL     1      -1.004   2.943  26.791  0.00  0.00    +0.054 C 
ATOM      8  C   UNL     1      -1.981   4.110  26.930  0.00  0.00    +0.018 C 
ATOM      9  C   UNL     1      -1.349   4.823  24.601  0.00  0.00    +0.113 C 
ATOM     10  C   UNL     1      -3.294   3.223  25.013  0.00  0.00    +0.130 C 
ATOM     11  C   UNL     1       0.172   3.359  25.882  0.00  0.00    +0.117 C 
ATOM     12  C   UNL     1      -1.690   1.723  26.204  0.00  0.00    +0.027 A 
ATOM     13  C   UNL     1      -1.272   0.490  26.530  0.00  0.00    +0.022 A 
ATOM     14  C   UNL     1      -3.354   0.799  24.658  0.00  0.00    +0.259 A 
ATOM     15  C   UNL     1       0.071   3.237  23.324  0.00  0.00    +0.247 C 
ATOM     16  C   UNL     1      -2.832  -0.569  25.007  0.00  0.00    +0.047 A 
ATOM     17  C   UNL     1      -1.852  -0.671  25.917  0.00  0.00    +0.015 A 
ENDROOT
BRANCH  16  19
ATOM     19  C   UNL     1      -3.368  -1.778  24.360  0.00  0.00    -0.010 A 
ATOM     20  C   UNL     1      -2.554  -2.880  24.091  0.00  0.00    -0.043 A 
ATOM     23  C   UNL     1      -4.720  -1.813  24.014  0.00  0.00    +0.009 A 
ATOM     24  C   UNL     1      -3.090  -4.012  23.476  0.00  0.00    +0.004 A 
ATOM     27  C   UNL     1      -1.102  -2.881  24.445  0.00  0.00    +0.044 C 
ATOM     28  C   UNL     1      -5.257  -2.944  23.400  0.00  0.00    +0.001 A 
ATOM     30  C   UNL     1      -4.441  -4.044  23.131  0.00  0.00    +0.000 A 
ENDBRANCH  16  19
BRANCH  15  18
ATOM     18  C   UNL     1       1.015   2.128  23.357  0.00  0.00    +0.037 A 
ATOM     21  C   UNL     1       0.554   0.834  23.586  0.00  0.00    +0.014 A 
ATOM     22  C   UNL     1       2.372   2.367  23.160  0.00  0.00    +0.014 A 
ATOM     25  C   UNL     1       1.457  -0.229  23.616  0.00  0.00    +0.019 A 
ATOM     26  C   UNL     1       3.276   1.304  23.190  0.00  0.00    +0.019 A 
ATOM     29  C   UNL     1       2.817   0.006  23.418  0.00  0.00    +0.052 A 
BRANCH  29  31
ATOM      5  N   UNL     1       4.495  -1.968  23.480  0.00  0.00    -0.191 NA
ATOM     31  C   UNL     1       3.742  -1.083  23.452  0.00  0.00    +0.099 C 
ENDBRANCH  29  31
ENDBRANCH  15  18
TORSDOF 3
ENDMDL
MODEL 5
REMARK VINA RESULT:      14.6      2.734      5.874
REMARK  Name = 11942816
REMARK  4 active torsions:
REMARK  status: ('A' for Active; 'I' for Inactive)
REMARK    1  A    between atoms: C_15  and  C_18
REMARK    2  A    between atoms: C_16  and  C_19
REMARK    3  A    between atoms: C_20  and  C_27
REMARK    4  A    between atoms: C_29  and  C_31
REMARK                            x       y       z     vdW  Elec       q    Type
REMARK                         _______ _______ _______ _____ _____    ______ ____
ROOT
ATOM      1  O   UNL     1      -0.888   1.970  21.864  0.00  0.00    -0.267 OA
ATOM      2  O   UNL     1      -2.505   5.031  25.541  0.00  0.00    -0.270 OA
ATOM      3  N   UNL     1      -3.687   3.056  25.816  0.00  0.00    -0.297 N 
ATOM      4  N   UNL     1      -2.380   1.317  23.532  0.00  0.00    -0.311 N 
ATOM      6  C   UNL     1      -4.752   2.270  23.710  0.00  0.00    +0.027 C 
ATOM      7  C   UNL     1      -3.963   0.629  25.367  0.00  0.00    +0.054 C 
ATOM      8  C   UNL     1      -5.085   0.940  24.378  0.00  0.00    +0.018 C 
ATOM      9  C   UNL     1      -4.649   3.388  24.764  0.00  0.00    +0.113 C 
ATOM     10  C   UNL     1      -3.452   2.108  22.911  0.00  0.00    +0.130 C 
ATOM     11  C   UNL     1      -3.895   1.736  26.439  0.00  0.00    +0.117 C 
ATOM     12  C   UNL     1      -2.624   0.528  24.659  0.00  0.00    +0.027 A 
ATOM     13  C   UNL     1      -1.665  -0.281  25.138  0.00  0.00    +0.022 A 
ATOM     14  C   UNL     1      -1.133   1.315  22.878  0.00  0.00    +0.259 A 
ATOM     15  C   UNL     1      -2.627   3.938  26.096  0.00  0.00    +0.247 C 
ATOM     16  C   UNL     1      -0.063   0.435  23.466  0.00  0.00    +0.047 A 
ATOM     17  C   UNL     1      -0.365  -0.321  24.532  0.00  0.00    +0.015 A 
ENDROOT
BRANCH  16  19
ATOM     19  C   UNL     1       1.297   0.407  22.902  0.00  0.00    -0.010 A 
ATOM     20  C   UNL     1       1.592  -0.322  21.749  0.00  0.00    -0.043 A 
ATOM     23  C   UNL     1       2.305   1.130  23.543  0.00  0.00    +0.009 A 
ATOM     24  C   UNL     1       2.890  -0.330  21.239  0.00  0.00    +0.004 A 
ATOM     27  C   UNL     1       0.540  -1.109  21.036  0.00  0.00    +0.044 C 
ATOM     28  C   UNL     1       3.604   1.123  23.033  0.00  0.00    +0.001 A 
ATOM     30  C   UNL     1       3.896   0.393  21.881  0.00  0.00    +0.000 A 
ENDBRANCH  16  19
BRANCH  15  18
ATOM     18  C   UNL     1      -1.634   3.496  27.066  0.00  0.00    +0.037 A 
ATOM     21  C   UNL     1      -0.450   2.910  26.627  0.00  0.00    +0.014 A 
ATOM     22  C   UNL     1      -1.874   3.663  28.427  0.00  0.00    +0.014 A 
ATOM     25  C   UNL     1       0.502   2.489  27.557  0.00  0.00    +0.019 A 
ATOM     26  C   UNL     1      -0.923   3.242  29.357  0.00  0.00    +0.019 A 
ATOM     29  C   UNL     1       0.265   2.654  28.921  0.00  0.00    +0.052 A 
BRANCH  29  31
ATOM      5  N   UNL     1       2.031   1.866  30.646  0.00  0.00    -0.191 NA
ATOM     31  C   UNL     1       1.239   2.220  29.872  0.00  0.00    +0.099 C 
ENDBRANCH  29  31
ENDBRANCH  15  18
TORSDOF 3
ENDMDL
