MODEL 1
REMARK VINA RESULT:      -3.5      0.000      0.000
REMARK  Name = 51137893
REMARK  5 active torsions:
REMARK  status: ('A' for Active; 'I' for Inactive)
REMARK    1  A    between atoms: N_1  and  C_9
REMARK    2  A    between atoms: N_2  and  C_13
REMARK    3  A    between atoms: C_4  and  C_8
REMARK    4  A    between atoms: C_9  and  C_10
REMARK    5  A    between atoms: C_14  and  C_21
REMARK                            x       y       z     vdW  Elec       q    Type
REMARK                         _______ _______ _______ _____ _____    ______ ____
ROOT
ATOM      1  N   UNL     1       0.822  -0.528  23.824  0.00  0.00    -0.297 NA
ATOM      4  C   UNL     1      -1.026   0.013  25.164  0.00  0.00    +0.070 C 
ATOM      5  C   UNL     1      -1.200  -1.406  24.595  0.00  0.00    +0.028 C 
ATOM      6  C   UNL     1       0.084   0.641  24.309  0.00  0.00    +0.096 C 
ATOM      7  C   UNL     1      -0.210  -1.493  23.441  0.00  0.00    +0.085 C 
ENDROOT
BRANCH   4   8
ATOM      2  N   UNL     1      -2.271   2.183  25.468  0.00  0.00    -0.330 N 
ATOM      3  N   UNL     1      -3.506   0.403  24.971  0.00  0.00    -0.232 NA
ATOM      8  C   UNL     1      -2.288   0.844  25.194  0.00  0.00    +0.115 A 
ATOM     11  C   UNL     1      -3.564   2.637  25.419  0.00  0.00    +0.069 A 
ATOM     12  C   UNL     1      -4.315   1.507  25.107  0.00  0.00    +0.089 A 
ATOM     13  C   UNL     1      -1.102   2.982  25.760  0.00  0.00    +0.150 C 
ATOM     15  C   UNL     1      -4.124   3.900  25.615  0.00  0.00    +0.028 A 
ATOM     17  C   UNL     1      -5.710   1.626  24.978  0.00  0.00    +0.030 A 
ATOM     19  C   UNL     1      -5.512   4.000  25.483  0.00  0.00    +0.002 A 
ATOM     20  C   UNL     1      -6.293   2.885  25.170  0.00  0.00    +0.002 A 
ENDBRANCH   4   8
BRANCH   1   9
ATOM      9  C   UNL     1       1.713  -0.203  22.721  0.00  0.00    +0.119 C 
BRANCH   9  10
ATOM     10  C   UNL     1       3.161  -0.304  23.120  0.00  0.00    -0.030 A 
ATOM     14  C   UNL     1       4.022   0.784  22.981  0.00  0.00    -0.046 A 
ATOM     16  C   UNL     1       3.637  -1.508  23.639  0.00  0.00    +0.005 A 
ATOM     18  C   UNL     1       5.360   0.668  23.358  0.00  0.00    +0.003 A 
ATOM     21  C   UNL     1       3.535   2.084  22.429  0.00  0.00    +0.044 C 
ATOM     22  C   UNL     1       4.976  -1.625  24.016  0.00  0.00    +0.000 A 
ATOM     23  C   UNL     1       5.836  -0.536  23.876  0.00  0.00    +0.000 A 
ENDBRANCH   9  10
ENDBRANCH   1   9
TORSDOF 3
ENDMDL
MODEL 2
REMARK VINA RESULT:      -3.4     15.768     17.697
REMARK  Name = 51137893
REMARK  5 active torsions:
REMARK  status: ('A' for Active; 'I' for Inactive)
REMARK    1  A    between atoms: N_1  and  C_9
REMARK    2  A    between atoms: N_2  and  C_13
REMARK    3  A    between atoms: C_4  and  C_8
REMARK    4  A    between atoms: C_9  and  C_10
REMARK    5  A    between atoms: C_14  and  C_21
REMARK                            x       y       z     vdW  Elec       q    Type
REMARK                         _______ _______ _______ _____ _____    ______ ____
ROOT
ATOM      1  N   UNL     1      -2.620 -10.403  11.613  0.00  0.00    -0.297 NA
ATOM      4  C   UNL     1      -4.625 -10.495  10.399  0.00  0.00    +0.070 C 
ATOM      5  C   UNL     1      -3.702  -9.427   9.787  0.00  0.00    +0.028 C 
ATOM      6  C   UNL     1      -4.024 -10.781  11.783  0.00  0.00    +0.096 C 
ATOM      7  C   UNL     1      -2.656  -9.149  10.859  0.00  0.00    +0.085 C 
ENDROOT
BRANCH   4   8
ATOM      2  N   UNL     1      -6.727  -9.523   9.404  0.00  0.00    -0.330 N 
ATOM      3  N   UNL     1      -6.887 -10.290  11.484  0.00  0.00    -0.232 NA
ATOM      8  C   UNL     1      -6.086 -10.113  10.458  0.00  0.00    +0.115 A 
ATOM     11  C   UNL     1      -8.029  -9.306   9.775  0.00  0.00    +0.069 A 
ATOM     12  C   UNL     1      -8.104  -9.794  11.077  0.00  0.00    +0.089 A 
ATOM     13  C   UNL     1      -6.141  -9.186   8.126  0.00  0.00    +0.150 C 
ATOM     15  C   UNL     1      -9.115  -8.743   9.103  0.00  0.00    +0.028 A 
ATOM     17  C   UNL     1      -9.327  -9.723  11.765  0.00  0.00    +0.030 A 
ATOM     19  C   UNL     1     -10.324  -8.680   9.804  0.00  0.00    +0.002 A 
ATOM     20  C   UNL     1     -10.431  -9.161  11.111  0.00  0.00    +0.002 A 
ENDBRANCH   4   8
BRANCH   1   9
ATOM      9  C   UNL     1      -1.925 -10.265  12.883  0.00  0.00    +0.119 C 
BRANCH   9  10
ATOM     10  C   UNL     1      -2.855 -10.440  14.054  0.00  0.00    -0.030 A 
ATOM     14  C   UNL     1      -2.359 -10.616  15.345  0.00  0.00    -0.046 A 
ATOM     16  C   UNL     1      -4.232 -10.422  13.832  0.00  0.00    +0.005 A 
ATOM     18  C   UNL     1      -3.239 -10.776  16.415  0.00  0.00    +0.003 A 
ATOM     21  C   UNL     1      -0.889 -10.638  15.608  0.00  0.00    +0.044 C 
ATOM     22  C   UNL     1      -5.113 -10.583  14.903  0.00  0.00    +0.000 A 
ATOM     23  C   UNL     1      -4.616 -10.759  16.194  0.00  0.00    +0.000 A 
ENDBRANCH   9  10
ENDBRANCH   1   9
TORSDOF 3
ENDMDL
MODEL 3
REMARK VINA RESULT:      -3.2      0.555      1.576
REMARK  Name = 51137893
REMARK  5 active torsions:
REMARK  status: ('A' for Active; 'I' for Inactive)
REMARK    1  A    between atoms: N_1  and  C_9
REMARK    2  A    between atoms: N_2  and  C_13
REMARK    3  A    between atoms: C_4  and  C_8
REMARK    4  A    between atoms: C_9  and  C_10
REMARK    5  A    between atoms: C_14  and  C_21
REMARK                            x       y       z     vdW  Elec       q    Type
REMARK                         _______ _______ _______ _____ _____    ______ ____
ROOT
ATOM      1  N   UNL     1       0.838  -0.550  23.668  0.00  0.00    -0.297 NA
ATOM      4  C   UNL     1      -1.005  -0.028  25.022  0.00  0.00    +0.070 C 
ATOM      5  C   UNL     1      -1.263  -1.357  24.292  0.00  0.00    +0.028 C 
ATOM      6  C   UNL     1       0.171   0.608  24.267  0.00  0.00    +0.096 C 
ATOM      7  C   UNL     1      -0.248  -1.387  23.157  0.00  0.00    +0.085 C 
ENDROOT
BRANCH   4   8
ATOM      2  N   UNL     1      -3.479   0.403  25.239  0.00  0.00    -0.330 N 
ATOM      3  N   UNL     1      -2.176   2.199  25.106  0.00  0.00    -0.232 NA
ATOM      8  C   UNL     1      -2.205   0.886  25.121  0.00  0.00    +0.115 A 
ATOM     11  C   UNL     1      -4.329   1.477  25.304  0.00  0.00    +0.069 A 
ATOM     12  C   UNL     1      -3.491   2.587  25.219  0.00  0.00    +0.089 A 
ATOM     13  C   UNL     1      -3.866  -0.989  25.285  0.00  0.00    +0.150 C 
ATOM     15  C   UNL     1      -5.716   1.571  25.427  0.00  0.00    +0.028 A 
ATOM     17  C   UNL     1      -4.054   3.874  25.258  0.00  0.00    +0.030 A 
ATOM     19  C   UNL     1      -6.258   2.860  25.463  0.00  0.00    +0.002 A 
ATOM     20  C   UNL     1      -5.444   3.992  25.380  0.00  0.00    +0.002 A 
ENDBRANCH   4   8
BRANCH   1   9
ATOM      9  C   UNL     1       1.782  -0.171  22.628  0.00  0.00    +0.119 C 
BRANCH   9  10
ATOM     10  C   UNL     1       3.209  -0.300  23.090  0.00  0.00    -0.030 A 
ATOM     14  C   UNL     1       4.095   0.772  22.994  0.00  0.00    -0.046 A 
ATOM     16  C   UNL     1       3.639  -1.516  23.623  0.00  0.00    +0.005 A 
ATOM     18  C   UNL     1       5.412   0.629  23.429  0.00  0.00    +0.003 A 
ATOM     21  C   UNL     1       3.657   2.083  22.428  0.00  0.00    +0.044 C 
ATOM     22  C   UNL     1       4.958  -1.658  24.057  0.00  0.00    +0.000 A 
ATOM     23  C   UNL     1       5.843  -0.586  23.960  0.00  0.00    +0.000 A 
ENDBRANCH   9  10
ENDBRANCH   1   9
TORSDOF 3
ENDMDL
MODEL 4
REMARK VINA RESULT:      -1.6      1.681      7.344
REMARK  Name = 51137893
REMARK  5 active torsions:
REMARK  status: ('A' for Active; 'I' for Inactive)
REMARK    1  A    between atoms: N_1  and  C_9
REMARK    2  A    between atoms: N_2  and  C_13
REMARK    3  A    between atoms: C_4  and  C_8
REMARK    4  A    between atoms: C_9  and  C_10
REMARK    5  A    between atoms: C_14  and  C_21
REMARK                            x       y       z     vdW  Elec       q    Type
REMARK                         _______ _______ _______ _____ _____    ______ ____
ROOT
ATOM      1  N   UNL     1      -4.297  -0.764  24.767  0.00  0.00    -0.297 NA
ATOM      4  C   UNL     1      -2.074  -1.344  24.290  0.00  0.00    +0.070 C 
ATOM      5  C   UNL     1      -2.295  -1.358  25.813  0.00  0.00    +0.028 C 
ATOM      6  C   UNL     1      -3.280  -0.575  23.730  0.00  0.00    +0.096 C 
ATOM      7  C   UNL     1      -3.584  -0.578  26.032  0.00  0.00    +0.085 C 
ENDROOT
BRANCH   4   8
ATOM      2  N   UNL     1      -0.282   0.427  24.313  0.00  0.00    -0.330 N 
ATOM      3  N   UNL     1       0.081  -1.322  22.991  0.00  0.00    -0.232 NA
ATOM      8  C   UNL     1      -0.750  -0.770  23.845  0.00  0.00    +0.115 A 
ATOM     11  C   UNL     1       0.932   0.662  23.721  0.00  0.00    +0.069 A 
ATOM     12  C   UNL     1       1.137  -0.444  22.901  0.00  0.00    +0.089 A 
ATOM     13  C   UNL     1      -0.945   1.293  25.261  0.00  0.00    +0.150 C 
ATOM     15  C   UNL     1       1.842   1.715  23.829  0.00  0.00    +0.028 A 
ATOM     17  C   UNL     1       2.314  -0.521  22.136  0.00  0.00    +0.030 A 
ATOM     19  C   UNL     1       3.007   1.622  23.061  0.00  0.00    +0.002 A 
ATOM     20  C   UNL     1       3.241   0.524  22.229  0.00  0.00    +0.002 A 
ENDBRANCH   4   8
BRANCH   1   9
ATOM      9  C   UNL     1      -5.415   0.156  24.621  0.00  0.00    +0.119 C 
BRANCH   9  10
ATOM     10  C   UNL     1      -4.972   1.593  24.688  0.00  0.00    -0.030 A 
ATOM     14  C   UNL     1      -5.456   2.449  25.677  0.00  0.00    -0.046 A 
ATOM     16  C   UNL     1      -4.062   2.065  23.742  0.00  0.00    +0.005 A 
ATOM     18  C   UNL     1      -5.031   3.776  25.721  0.00  0.00    +0.003 A 
ATOM     21  C   UNL     1      -6.431   1.966  26.701  0.00  0.00    +0.044 C 
ATOM     22  C   UNL     1      -3.638   3.394  23.785  0.00  0.00    +0.000 A 
ATOM     23  C   UNL     1      -4.122   4.248  24.775  0.00  0.00    +0.000 A 
ENDBRANCH   9  10
ENDBRANCH   1   9
TORSDOF 3
ENDMDL
MODEL 5
REMARK VINA RESULT:      -1.2      1.345      1.595
REMARK  Name = 51137893
REMARK  5 active torsions:
REMARK  status: ('A' for Active; 'I' for Inactive)
REMARK    1  A    between atoms: N_1  and  C_9
REMARK    2  A    between atoms: N_2  and  C_13
REMARK    3  A    between atoms: C_4  and  C_8
REMARK    4  A    between atoms: C_9  and  C_10
REMARK    5  A    between atoms: C_14  and  C_21
REMARK                            x       y       z     vdW  Elec       q    Type
REMARK                         _______ _______ _______ _____ _____    ______ ____
ROOT
ATOM      1  N   UNL     1       1.148   1.170  23.317  0.00  0.00    -0.297 NA
ATOM      4  C   UNL     1      -0.691   2.466  23.981  0.00  0.00    +0.070 C 
ATOM      5  C   UNL     1       0.295   2.332  25.155  0.00  0.00    +0.028 C 
ATOM      6  C   UNL     1      -0.264   1.375  22.989  0.00  0.00    +0.096 C 
ATOM      7  C   UNL     1       1.198   1.164  24.780  0.00  0.00    +0.085 C 
ENDROOT
BRANCH   4   8
ATOM      2  N   UNL     1      -2.814   3.422  24.945  0.00  0.00    -0.330 N 
ATOM      3  N   UNL     1      -2.929   1.333  24.193  0.00  0.00    -0.232 NA
ATOM      8  C   UNL     1      -2.150   2.378  24.363  0.00  0.00    +0.115 A 
ATOM     11  C   UNL     1      -4.108   3.024  25.165  0.00  0.00    +0.069 A 
ATOM     12  C   UNL     1      -4.154   1.717  24.687  0.00  0.00    +0.089 A 
ATOM     13  C   UNL     1      -2.257   4.714  25.274  0.00  0.00    +0.150 C 
ATOM     15  C   UNL     1      -5.208   3.675  25.724  0.00  0.00    +0.028 A 
ATOM     17  C   UNL     1      -5.362   1.002  24.762  0.00  0.00    +0.030 A 
ATOM     19  C   UNL     1      -6.402   2.949  25.791  0.00  0.00    +0.002 A 
ATOM     20  C   UNL     1      -6.479   1.636  25.319  0.00  0.00    +0.002 A 
ENDBRANCH   4   8
BRANCH   1   9
ATOM      9  C   UNL     1       1.680  -0.056  22.740  0.00  0.00    +0.119 C 
BRANCH   9  10
ATOM     10  C   UNL     1       3.113  -0.288  23.139  0.00  0.00    -0.030 A 
ATOM     14  C   UNL     1       4.077   0.703  22.960  0.00  0.00    -0.046 A 
ATOM     16  C   UNL     1       3.470  -1.516  23.696  0.00  0.00    +0.005 A 
ATOM     18  C   UNL     1       5.399   0.467  23.337  0.00  0.00    +0.003 A 
ATOM     21  C   UNL     1       3.719   2.026  22.367  0.00  0.00    +0.044 C 
ATOM     22  C   UNL     1       4.793  -1.753  24.072  0.00  0.00    +0.000 A 
ATOM     23  C   UNL     1       5.756  -0.761  23.893  0.00  0.00    +0.000 A 
ENDBRANCH   9  10
ENDBRANCH   1   9
TORSDOF 3
ENDMDL
MODEL 6
REMARK VINA RESULT:      -1.2      1.994      7.328
REMARK  Name = 51137893
REMARK  5 active torsions:
REMARK  status: ('A' for Active; 'I' for Inactive)
REMARK    1  A    between atoms: N_1  and  C_9
REMARK    2  A    between atoms: N_2  and  C_13
REMARK    3  A    between atoms: C_4  and  C_8
REMARK    4  A    between atoms: C_9  and  C_10
REMARK    5  A    between atoms: C_14  and  C_21
REMARK                            x       y       z     vdW  Elec       q    Type
REMARK                         _______ _______ _______ _____ _____    ______ ____
ROOT
ATOM      1  N   UNL     1      -3.104   1.674  24.683  0.00  0.00    -0.297 NA
ATOM      4  C   UNL     1      -0.933   2.163  23.942  0.00  0.00    +0.070 C 
ATOM      5  C   UNL     1      -1.888   2.103  22.736  0.00  0.00    +0.028 C 
ATOM      6  C   UNL     1      -1.708   1.491  25.084  0.00  0.00    +0.096 C 
ATOM      7  C   UNL     1      -3.127   1.381  23.250  0.00  0.00    +0.085 C 
ENDROOT
BRANCH   4   8
ATOM      2  N   UNL     1       0.626   0.193  23.744  0.00  0.00    -0.330 N 
ATOM      3  N   UNL     1       1.535   2.200  23.449  0.00  0.00    -0.232 NA
ATOM      8  C   UNL     1       0.425   1.545  23.707  0.00  0.00    +0.115 A 
ATOM     11  C   UNL     1       1.954  -0.040  23.494  0.00  0.00    +0.069 A 
ATOM     12  C   UNL     1       2.499   1.228  23.313  0.00  0.00    +0.089 A 
ATOM     13  C   UNL     1      -0.378  -0.815  24.002  0.00  0.00    +0.150 C 
ATOM     15  C   UNL     1       2.702  -1.215  23.413  0.00  0.00    +0.028 A 
ATOM     17  C   UNL     1       3.871   1.350  23.032  0.00  0.00    +0.030 A 
ATOM     19  C   UNL     1       4.065  -1.075  23.134  0.00  0.00    +0.002 A 
ATOM     20  C   UNL     1       4.642   0.184  22.946  0.00  0.00    +0.002 A 
ENDBRANCH   4   8
BRANCH   1   9
ATOM      9  C   UNL     1      -4.014   0.824  25.437  0.00  0.00    +0.119 C 
BRANCH   9  10
ATOM     10  C   UNL     1      -3.922  -0.616  25.007  0.00  0.00    -0.030 A 
ATOM     14  C   UNL     1      -3.242  -1.554  25.783  0.00  0.00    -0.046 A 
ATOM     16  C   UNL     1      -4.532  -1.006  23.815  0.00  0.00    +0.005 A 
ATOM     18  C   UNL     1      -3.170  -2.883  25.366  0.00  0.00    +0.003 A 
ATOM     21  C   UNL     1      -2.582  -1.160  27.063  0.00  0.00    +0.044 C 
ATOM     22  C   UNL     1      -4.459  -2.336  23.398  0.00  0.00    +0.000 A 
ATOM     23  C   UNL     1      -3.779  -3.274  24.174  0.00  0.00    +0.000 A 
ENDBRANCH   9  10
ENDBRANCH   1   9
TORSDOF 3
ENDMDL
MODEL 7
REMARK VINA RESULT:      -1.0      1.336      7.470
REMARK  Name = 51137893
REMARK  5 active torsions:
REMARK  status: ('A' for Active; 'I' for Inactive)
REMARK    1  A    between atoms: N_1  and  C_9
REMARK    2  A    between atoms: N_2  and  C_13
REMARK    3  A    between atoms: C_4  and  C_8
REMARK    4  A    between atoms: C_9  and  C_10
REMARK    5  A    between atoms: C_14  and  C_21
REMARK                            x       y       z     vdW  Elec       q    Type
REMARK                         _______ _______ _______ _____ _____    ______ ____
ROOT
ATOM      1  N   UNL     1      -3.111  -0.824  24.560  0.00  0.00    -0.297 NA
ATOM      4  C   UNL     1      -0.833  -1.363  24.701  0.00  0.00    +0.070 C 
ATOM      5  C   UNL     1      -1.293  -0.723  26.023  0.00  0.00    +0.028 C 
ATOM      6  C   UNL     1      -1.945  -1.025  23.698  0.00  0.00    +0.096 C 
ATOM      7  C   UNL     1      -2.613  -0.040  25.691  0.00  0.00    +0.085 C 
ENDROOT
BRANCH   4   8
ATOM      2  N   UNL     1       0.771   0.314  23.718  0.00  0.00    -0.330 N 
ATOM      3  N   UNL     1       1.625  -1.668  24.252  0.00  0.00    -0.232 NA
ATOM      8  C   UNL     1       0.537  -0.932  24.230  0.00  0.00    +0.115 A 
ATOM     11  C   UNL     1       2.100   0.387  23.388  0.00  0.00    +0.069 A 
ATOM     12  C   UNL     1       2.611  -0.862  23.730  0.00  0.00    +0.089 A 
ATOM     13  C   UNL     1      -0.203   1.368  23.552  0.00  0.00    +0.150 C 
ATOM     15  C   UNL     1       2.876   1.407  22.835  0.00  0.00    +0.028 A 
ATOM     17  C   UNL     1       3.975  -1.127  23.517  0.00  0.00    +0.030 A 
ATOM     19  C   UNL     1       4.230   1.126  22.629  0.00  0.00    +0.002 A 
ATOM     20  C   UNL     1       4.772  -0.117  22.963  0.00  0.00    +0.002 A 
ENDBRANCH   4   8
BRANCH   1   9
ATOM      9  C   UNL     1      -4.207  -0.162  23.867  0.00  0.00    +0.119 C 
BRANCH   9  10
ATOM     10  C   UNL     1      -4.443   1.229  24.392  0.00  0.00    -0.030 A 
ATOM     14  C   UNL     1      -3.843   2.335  23.791  0.00  0.00    -0.046 A 
ATOM     16  C   UNL     1      -5.279   1.403  25.495  0.00  0.00    +0.005 A 
ATOM     18  C   UNL     1      -4.077   3.615  24.292  0.00  0.00    +0.003 A 
ATOM     21  C   UNL     1      -2.945   2.174  22.608  0.00  0.00    +0.044 C 
ATOM     22  C   UNL     1      -5.512   2.684  25.998  0.00  0.00    +0.000 A 
ATOM     23  C   UNL     1      -4.912   3.789  25.396  0.00  0.00    +0.000 A 
ENDBRANCH   9  10
ENDBRANCH   1   9
TORSDOF 3
ENDMDL
MODEL 8
REMARK VINA RESULT:      -0.8      2.943      6.725
REMARK  Name = 51137893
REMARK  5 active torsions:
REMARK  status: ('A' for Active; 'I' for Inactive)
REMARK    1  A    between atoms: N_1  and  C_9
REMARK    2  A    between atoms: N_2  and  C_13
REMARK    3  A    between atoms: C_4  and  C_8
REMARK    4  A    between atoms: C_9  and  C_10
REMARK    5  A    between atoms: C_14  and  C_21
REMARK                            x       y       z     vdW  Elec       q    Type
REMARK                         _______ _______ _______ _____ _____    ______ ____
ROOT
ATOM      1  N   UNL     1      -0.354   3.553  25.263  0.00  0.00    -0.297 NA
ATOM      4  C   UNL     1      -0.312   1.209  25.171  0.00  0.00    +0.070 C 
ATOM      5  C   UNL     1       0.411   1.786  23.941  0.00  0.00    +0.028 C 
ATOM      6  C   UNL     1      -1.105   2.392  25.745  0.00  0.00    +0.096 C 
ATOM      7  C   UNL     1      -0.032   3.241  23.870  0.00  0.00    +0.085 C 
ENDROOT
BRANCH   4   8
ATOM      2  N   UNL     1      -2.442   0.112  24.392  0.00  0.00    -0.330 N 
ATOM      3  N   UNL     1      -0.831  -1.252  25.085  0.00  0.00    -0.232 NA
ATOM      8  C   UNL     1      -1.175   0.000  24.892  0.00  0.00    +0.115 A 
ATOM     11  C   UNL     1      -2.950  -1.155  24.254  0.00  0.00    +0.069 A 
ATOM     12  C   UNL     1      -1.925  -1.988  24.694  0.00  0.00    +0.089 A 
ATOM     13  C   UNL     1      -3.130   1.341  24.067  0.00  0.00    +0.150 C 
ATOM     15  C   UNL     1      -4.181  -1.629  23.797  0.00  0.00    +0.028 A 
ATOM     17  C   UNL     1      -2.122  -3.380  24.683  0.00  0.00    +0.030 A 
ATOM     19  C   UNL     1      -4.359  -3.015  23.794  0.00  0.00    +0.002 A 
ATOM     20  C   UNL     1      -3.349  -3.878  24.228  0.00  0.00    +0.002 A 
ENDBRANCH   4   8
BRANCH   1   9
ATOM      9  C   UNL     1      -1.104   4.793  25.394  0.00  0.00    +0.119 C 
BRANCH   9  10
ATOM     10  C   UNL     1      -2.586   4.569  25.258  0.00  0.00    -0.030 A 
ATOM     14  C   UNL     1      -3.371   4.256  26.367  0.00  0.00    -0.046 A 
ATOM     16  C   UNL     1      -3.174   4.681  23.997  0.00  0.00    +0.005 A 
ATOM     18  C   UNL     1      -4.742   4.053  26.217  0.00  0.00    +0.003 A 
ATOM     21  C   UNL     1      -2.764   4.131  27.727  0.00  0.00    +0.044 C 
ATOM     22  C   UNL     1      -4.546   4.478  23.847  0.00  0.00    +0.000 A 
ATOM     23  C   UNL     1      -5.330   4.165  24.958  0.00  0.00    +0.000 A 
ENDBRANCH   9  10
ENDBRANCH   1   9
TORSDOF 3
ENDMDL
MODEL 9
REMARK VINA RESULT:      -0.5      1.096      2.056
REMARK  Name = 51137893
REMARK  5 active torsions:
REMARK  status: ('A' for Active; 'I' for Inactive)
REMARK    1  A    between atoms: N_1  and  C_9
REMARK    2  A    between atoms: N_2  and  C_13
REMARK    3  A    between atoms: C_4  and  C_8
REMARK    4  A    between atoms: C_9  and  C_10
REMARK    5  A    between atoms: C_14  and  C_21
REMARK                            x       y       z     vdW  Elec       q    Type
REMARK                         _______ _______ _______ _____ _____    ______ ____
ROOT
ATOM      1  N   UNL     1       1.102   1.316  23.428  0.00  0.00    -0.297 NA
ATOM      4  C   UNL     1      -0.681   2.653  24.161  0.00  0.00    +0.070 C 
ATOM      5  C   UNL     1       0.297   2.413  25.325  0.00  0.00    +0.028 C 
ATOM      6  C   UNL     1      -0.299   1.598  23.112  0.00  0.00    +0.096 C 
ATOM      7  C   UNL     1       1.149   1.230  24.888  0.00  0.00    +0.085 C 
ENDROOT
BRANCH   4   8
ATOM      2  N   UNL     1      -2.833   1.430  24.631  0.00  0.00    -0.330 N 
ATOM      3  N   UNL     1      -2.900   3.644  24.816  0.00  0.00    -0.232 NA
ATOM      8  C   UNL     1      -2.143   2.606  24.540  0.00  0.00    +0.115 A 
ATOM     11  C   UNL     1      -4.123   1.729  24.990  0.00  0.00    +0.069 A 
ATOM     12  C   UNL     1      -4.139   3.117  25.099  0.00  0.00    +0.089 A 
ATOM     13  C   UNL     1      -2.305   0.106  24.391  0.00  0.00    +0.150 C 
ATOM     15  C   UNL     1      -5.243   0.929  25.221  0.00  0.00    +0.028 A 
ATOM     17  C   UNL     1      -5.334   3.762  25.461  0.00  0.00    +0.030 A 
ATOM     19  C   UNL     1      -6.423   1.587  25.579  0.00  0.00    +0.002 A 
ATOM     20  C   UNL     1      -6.470   2.978  25.698  0.00  0.00    +0.002 A 
ENDBRANCH   4   8
BRANCH   1   9
ATOM      9  C   UNL     1       1.582   0.101  22.786  0.00  0.00    +0.119 C 
BRANCH   9  10
ATOM     10  C   UNL     1       3.014  -0.195  23.145  0.00  0.00    -0.030 A 
ATOM     14  C   UNL     1       4.014   0.757  22.953  0.00  0.00    -0.046 A 
ATOM     16  C   UNL     1       3.333  -1.444  23.679  0.00  0.00    +0.005 A 
ATOM     18  C   UNL     1       5.334   0.461  23.293  0.00  0.00    +0.003 A 
ATOM     21  C   UNL     1       3.697   2.101  22.383  0.00  0.00    +0.044 C 
ATOM     22  C   UNL     1       4.653  -1.741  24.018  0.00  0.00    +0.000 A 
ATOM     23  C   UNL     1       5.653  -0.787  23.826  0.00  0.00    +0.000 A 
ENDBRANCH   9  10
ENDBRANCH   1   9
TORSDOF 3
ENDMDL
MODEL 10
REMARK VINA RESULT:      -0.3      3.613      6.252
REMARK  Name = 51137893
REMARK  5 active torsions:
REMARK  status: ('A' for Active; 'I' for Inactive)
REMARK    1  A    between atoms: N_1  and  C_9
REMARK    2  A    between atoms: N_2  and  C_13
REMARK    3  A    between atoms: C_4  and  C_8
REMARK    4  A    between atoms: C_9  and  C_10
REMARK    5  A    between atoms: C_14  and  C_21
REMARK                            x       y       z     vdW  Elec       q    Type
REMARK                         _______ _______ _______ _____ _____    ______ ____
ROOT
ATOM      1  N   UNL     1      -4.786   3.818  25.195  0.00  0.00    -0.297 NA
ATOM      4  C   UNL     1      -5.019   1.655  24.318  0.00  0.00    +0.070 C 
ATOM      5  C   UNL     1      -5.984   1.837  25.503  0.00  0.00    +0.028 C 
ATOM      6  C   UNL     1      -4.024   2.817  24.446  0.00  0.00    +0.096 C 
ATOM      7  C   UNL     1      -5.470   3.062  26.246  0.00  0.00    +0.085 C 
ENDROOT
BRANCH   4   8
ATOM      2  N   UNL     1      -2.993   0.175  24.090  0.00  0.00    -0.330 N 
ATOM      3  N   UNL     1      -4.944  -0.861  24.333  0.00  0.00    -0.232 NA
ATOM      8  C   UNL     1      -4.344   0.305  24.250  0.00  0.00    +0.115 A 
ATOM     11  C   UNL     1      -2.701  -1.165  24.068  0.00  0.00    +0.069 A 
ATOM     12  C   UNL     1      -3.936  -1.790  24.222  0.00  0.00    +0.089 A 
ATOM     13  C   UNL     1      -2.038   1.252  23.965  0.00  0.00    +0.150 C 
ATOM     15  C   UNL     1      -1.501  -1.863  23.931  0.00  0.00    +0.028 A 
ATOM     17  C   UNL     1      -3.995  -3.194  24.243  0.00  0.00    +0.030 A 
ATOM     19  C   UNL     1      -1.578  -3.259  23.953  0.00  0.00    +0.002 A 
ATOM     20  C   UNL     1      -2.802  -3.915  24.107  0.00  0.00    +0.002 A 
ENDBRANCH   4   8
BRANCH   1   9
ATOM      9  C   UNL     1      -3.939   4.872  25.733  0.00  0.00    +0.119 C 
BRANCH   9  10
ATOM     10  C   UNL     1      -2.481   4.504  25.676  0.00  0.00    -0.030 A 
ATOM     14  C   UNL     1      -1.595   5.204  24.857  0.00  0.00    -0.046 A 
ATOM     16  C   UNL     1      -2.018   3.447  26.460  0.00  0.00    +0.005 A 
ATOM     18  C   UNL     1      -0.247   4.846  24.821  0.00  0.00    +0.003 A 
ATOM     21  C   UNL     1      -2.066   6.340  24.009  0.00  0.00    +0.044 C 
ATOM     22  C   UNL     1      -0.671   3.088  26.422  0.00  0.00    +0.000 A 
ATOM     23  C   UNL     1       0.214   3.789  25.603  0.00  0.00    +0.000 A 
ENDBRANCH   9  10
ENDBRANCH   1   9
TORSDOF 3
ENDMDL
