MODEL 1
REMARK VINA RESULT:      -3.7      0.000      0.000
REMARK  Name = 25388978
REMARK  6 active torsions:
REMARK  status: ('A' for Active; 'I' for Inactive)
REMARK    1  A    between atoms: N_3  and  C_23
REMARK    2  A    between atoms: N_4  and  C_14
REMARK    3  A    between atoms: C_7  and  C_13
REMARK    4  A    between atoms: C_8  and  C_14
REMARK    5  A    between atoms: C_16  and  C_17
REMARK    6  A    between atoms: C_24  and  C_25
REMARK                            x       y       z     vdW  Elec       q    Type
REMARK                         _______ _______ _______ _____ _____    ______ ____
ROOT
ATOM      2  N   UNL     1      15.329  -7.460  31.461  0.00  0.00    -0.297 NA
ATOM      6  C   UNL     1      13.827  -6.425  29.604  0.00  0.00    +0.002 C 
ATOM      7  C   UNL     1      14.944  -7.302  28.973  0.00  0.00    +0.055 C 
ATOM      8  C   UNL     1      15.181  -5.998  31.684  0.00  0.00    +0.074 C 
ATOM      9  C   UNL     1      14.470  -5.334  30.484  0.00  0.00    +0.024 C 
ATOM     10  C   UNL     1      15.911  -7.715  30.119  0.00  0.00    +0.094 C 
ATOM     11  C   UNL     1      13.015  -7.345  30.540  0.00  0.00    +0.019 C 
ATOM     12  C   UNL     1      13.977  -8.065  31.501  0.00  0.00    +0.085 C 
ENDROOT
BRANCH   7  13
ATOM      3  N   UNL     1      16.230  -7.558  26.800  0.00  0.00    -0.271 N 
ATOM      5  N   UNL     1      16.842  -6.883  25.812  0.00  0.00    -0.176 NA
ATOM     13  C   UNL     1      15.685  -6.758  27.760  0.00  0.00    +0.044 A 
ATOM     15  C   UNL     1      15.960  -5.468  27.373  0.00  0.00    +0.048 A 
ATOM     17  C   UNL     1      16.672  -5.606  26.167  0.00  0.00    +0.066 A 
ATOM     23  C   UNL     1      16.208  -9.002  26.759  0.00  0.00    +0.172 C 
BRANCH  17  16
ATOM     16  C   UNL     1      17.231  -4.500  25.291  0.00  0.00    +0.040 C 
ATOM     18  C   UNL     1      16.829  -3.106  25.806  0.00  0.00    +0.010 C 
ATOM     19  C   UNL     1      16.830  -4.679  23.817  0.00  0.00    +0.010 C 
ATOM     20  C   UNL     1      17.405  -1.999  24.924  0.00  0.00    +0.001 C 
ATOM     21  C   UNL     1      17.405  -3.566  22.943  0.00  0.00    +0.001 C 
ATOM     22  C   UNL     1      17.013  -2.184  23.460  0.00  0.00    +0.000 C 
ENDBRANCH  17  16
ENDBRANCH   7  13
BRANCH   8  14
ATOM     14  C   UNL     1      16.515  -5.318  32.002  0.00  0.00    +0.123 C 
BRANCH  14   4
ATOM      1  O   UNL     1      16.733  -2.524  32.761  0.00  0.00    -0.276 OA
ATOM      4  N   UNL     1      16.736  -4.199  31.141  0.00  0.00    -0.314 N 
ATOM     24  C   UNL     1      16.827  -2.884  31.590  0.00  0.00    +0.210 C 
ATOM     25  C   UNL     1      17.087  -1.905  30.477  0.00  0.00    +0.109 C 
ATOM     26  H   UNL     1      16.797  -4.377  30.143  0.00  0.00    +0.149 HD
ENDBRANCH  14   4
ENDBRANCH   8  14
TORSDOF 4
ENDMDL
MODEL 2
REMARK VINA RESULT:      -1.8      1.665      2.507
REMARK  Name = 25388978
REMARK  6 active torsions:
REMARK  status: ('A' for Active; 'I' for Inactive)
REMARK    1  A    between atoms: N_3  and  C_23
REMARK    2  A    between atoms: N_4  and  C_14
REMARK    3  A    between atoms: C_7  and  C_13
REMARK    4  A    between atoms: C_8  and  C_14
REMARK    5  A    between atoms: C_16  and  C_17
REMARK    6  A    between atoms: C_24  and  C_25
REMARK                            x       y       z     vdW  Elec       q    Type
REMARK                         _______ _______ _______ _____ _____    ______ ____
ROOT
ATOM      2  N   UNL     1      16.597  -8.915  28.721  0.00  0.00    -0.297 NA
ATOM      6  C   UNL     1      14.751  -7.889  27.199  0.00  0.00    +0.002 C 
ATOM      7  C   UNL     1      16.091  -8.008  26.422  0.00  0.00    +0.055 C 
ATOM      8  C   UNL     1      15.921  -7.794  29.427  0.00  0.00    +0.074 C 
ATOM      9  C   UNL     1      14.971  -7.043  28.470  0.00  0.00    +0.024 C 
ATOM     10  C   UNL     1      17.183  -8.433  27.445  0.00  0.00    +0.094 C 
ATOM     11  C   UNL     1      14.376  -9.314  27.661  0.00  0.00    +0.019 C 
ATOM     12  C   UNL     1      15.571  -9.936  28.403  0.00  0.00    +0.085 C 
ENDROOT
BRANCH   7  13
ATOM      3  N   UNL     1      17.086  -6.978  24.327  0.00  0.00    -0.271 N 
ATOM      5  N   UNL     1      17.405  -5.816  23.733  0.00  0.00    -0.176 NA
ATOM     13  C   UNL     1      16.531  -6.831  25.563  0.00  0.00    +0.044 A 
ATOM     15  C   UNL     1      16.484  -5.477  25.795  0.00  0.00    +0.048 A 
ATOM     17  C   UNL     1      17.035  -4.902  24.634  0.00  0.00    +0.066 A 
ATOM     23  C   UNL     1      17.349  -8.219  23.635  0.00  0.00    +0.172 C 
BRANCH  17  16
ATOM     16  C   UNL     1      17.232  -3.427  24.337  0.00  0.00    +0.040 C 
ATOM     18  C   UNL     1      17.046  -2.561  25.596  0.00  0.00    +0.010 C 
ATOM     19  C   UNL     1      16.317  -2.945  23.198  0.00  0.00    +0.010 C 
ATOM     20  C   UNL     1      17.256  -1.079  25.289  0.00  0.00    +0.001 C 
ATOM     21  C   UNL     1      16.530  -1.461  22.901  0.00  0.00    +0.001 C 
ATOM     22  C   UNL     1      16.355  -0.606  24.152  0.00  0.00    +0.000 C 
ENDBRANCH  17  16
ENDBRANCH   7  13
BRANCH   8  14
ATOM     14  C   UNL     1      16.915  -6.848  30.103  0.00  0.00    +0.123 C 
BRANCH  14   4
ATOM      1  O   UNL     1      16.983  -4.951  32.301  0.00  0.00    -0.276 OA
ATOM      4  N   UNL     1      16.418  -5.507  30.110  0.00  0.00    -0.314 N 
ATOM     24  C   UNL     1      16.491  -4.660  31.213  0.00  0.00    +0.210 C 
ATOM     25  C   UNL     1      15.916  -3.296  30.940  0.00  0.00    +0.109 C 
ATOM     26  H   UNL     1      15.960  -5.170  29.268  0.00  0.00    +0.149 HD
ENDBRANCH  14   4
ENDBRANCH   8  14
TORSDOF 4
ENDMDL
MODEL 3
REMARK VINA RESULT:      -1.3     18.161     19.083
REMARK  Name = 25388978
REMARK  6 active torsions:
REMARK  status: ('A' for Active; 'I' for Inactive)
REMARK    1  A    between atoms: N_3  and  C_23
REMARK    2  A    between atoms: N_4  and  C_14
REMARK    3  A    between atoms: C_7  and  C_13
REMARK    4  A    between atoms: C_8  and  C_14
REMARK    5  A    between atoms: C_16  and  C_17
REMARK    6  A    between atoms: C_24  and  C_25
REMARK                            x       y       z     vdW  Elec       q    Type
REMARK                         _______ _______ _______ _____ _____    ______ ____
ROOT
ATOM      2  N   UNL     1      -4.074   2.813  25.735  0.00  0.00    -0.297 NA
ATOM      6  C   UNL     1      -3.976   1.485  23.498  0.00  0.00    +0.002 C 
ATOM      7  C   UNL     1      -3.194   0.733  24.611  0.00  0.00    +0.055 C 
ATOM      8  C   UNL     1      -3.661   3.714  24.627  0.00  0.00    +0.074 C 
ATOM      9  C   UNL     1      -3.397   2.906  23.338  0.00  0.00    +0.024 C 
ATOM     10  C   UNL     1      -3.127   1.676  25.847  0.00  0.00    +0.094 C 
ATOM     11  C   UNL     1      -5.427   1.640  24.000  0.00  0.00    +0.019 C 
ATOM     12  C   UNL     1      -5.413   2.270  25.404  0.00  0.00    +0.085 C 
ENDROOT
BRANCH   7  13
ATOM      3  N   UNL     1      -1.525  -1.172  24.452  0.00  0.00    -0.271 N 
ATOM      5  N   UNL     1      -0.275  -1.494  24.079  0.00  0.00    -0.176 NA
ATOM     13  C   UNL     1      -1.836   0.142  24.261  0.00  0.00    +0.044 A 
ATOM     15  C   UNL     1      -0.711   0.720  23.725  0.00  0.00    +0.048 A 
ATOM     17  C   UNL     1       0.218  -0.334  23.635  0.00  0.00    +0.066 A 
ATOM     23  C   UNL     1      -2.384  -2.197  24.999  0.00  0.00    +0.172 C 
BRANCH  17  16
ATOM     16  C   UNL     1       1.640  -0.271  23.110  0.00  0.00    +0.040 C 
ATOM     18  C   UNL     1       2.574  -1.227  23.873  0.00  0.00    +0.010 C 
ATOM     19  C   UNL     1       2.192   1.165  23.124  0.00  0.00    +0.010 C 
ATOM     20  C   UNL     1       4.001  -1.163  23.331  0.00  0.00    +0.001 C 
ATOM     21  C   UNL     1       3.621   1.219  22.584  0.00  0.00    +0.001 C 
ATOM     22  C   UNL     1       4.543   0.263  23.337  0.00  0.00    +0.000 C 
ENDBRANCH  17  16
ENDBRANCH   7  13
BRANCH   8  14
ATOM     14  C   UNL     1      -2.467   4.593  25.004  0.00  0.00    +0.123 C 
BRANCH  14   4
ATOM      1  O   UNL     1       0.155   3.603  24.244  0.00  0.00    -0.276 OA
ATOM      4  N   UNL     1      -1.540   3.871  25.820  0.00  0.00    -0.314 N 
ATOM     24  C   UNL     1      -0.297   3.431  25.374  0.00  0.00    +0.210 C 
ATOM     25  C   UNL     1       0.487   2.719  26.443  0.00  0.00    +0.109 C 
ATOM     26  H   UNL     1      -1.825   3.644  26.768  0.00  0.00    +0.149 HD
ENDBRANCH  14   4
ENDBRANCH   8  14
TORSDOF 4
ENDMDL
MODEL 4
REMARK VINA RESULT:      -0.9     17.909     19.004
REMARK  Name = 25388978
REMARK  6 active torsions:
REMARK  status: ('A' for Active; 'I' for Inactive)
REMARK    1  A    between atoms: N_3  and  C_23
REMARK    2  A    between atoms: N_4  and  C_14
REMARK    3  A    between atoms: C_7  and  C_13
REMARK    4  A    between atoms: C_8  and  C_14
REMARK    5  A    between atoms: C_16  and  C_17
REMARK    6  A    between atoms: C_24  and  C_25
REMARK                            x       y       z     vdW  Elec       q    Type
REMARK                         _______ _______ _______ _____ _____    ______ ____
ROOT
ATOM      2  N   UNL     1      -3.761   2.989  24.042  0.00  0.00    -0.297 NA
ATOM      6  C   UNL     1      -1.629   2.886  25.533  0.00  0.00    +0.002 C 
ATOM      7  C   UNL     1      -1.248   2.768  24.031  0.00  0.00    +0.055 C 
ATOM      8  C   UNL     1      -3.949   1.993  25.129  0.00  0.00    +0.074 C 
ATOM      9  C   UNL     1      -2.627   1.767  25.895  0.00  0.00    +0.024 C 
ATOM     10  C   UNL     1      -2.572   2.634  23.226  0.00  0.00    +0.094 C 
ATOM     11  C   UNL     1      -2.371   4.229  25.700  0.00  0.00    +0.019 C 
ATOM     12  C   UNL     1      -3.513   4.308  24.672  0.00  0.00    +0.085 C 
ENDROOT
BRANCH   7  13
ATOM      3  N   UNL     1      -0.559   0.513  23.093  0.00  0.00    -0.271 N 
ATOM      5  N   UNL     1       0.495  -0.271  22.809  0.00  0.00    -0.176 NA
ATOM     13  C   UNL     1      -0.220   1.719  23.631  0.00  0.00    +0.044 A 
ATOM     15  C   UNL     1       1.152   1.726  23.704  0.00  0.00    +0.048 A 
ATOM     17  C   UNL     1       1.538   0.476  23.183  0.00  0.00    +0.066 A 
ATOM     23  C   UNL     1      -1.891   0.028  22.819  0.00  0.00    +0.172 C 
BRANCH  17  16
ATOM     16  C   UNL     1       2.948  -0.062  23.022  0.00  0.00    +0.040 C 
ATOM     18  C   UNL     1       3.206  -1.272  23.938  0.00  0.00    +0.010 C 
ATOM     19  C   UNL     1       4.008   1.031  23.242  0.00  0.00    +0.010 C 
ATOM     20  C   UNL     1       4.624  -1.813  23.760  0.00  0.00    +0.001 C 
ATOM     21  C   UNL     1       5.422   0.481  23.067  0.00  0.00    +0.001 C 
ATOM     22  C   UNL     1       5.673  -0.724  23.970  0.00  0.00    +0.000 C 
ENDBRANCH  17  16
ENDBRANCH   7  13
BRANCH   8  14
ATOM     14  C   UNL     1      -4.544   0.678  24.619  0.00  0.00    +0.123 C 
BRANCH  14   4
ATOM      1  O   UNL     1      -4.461  -2.066  23.673  0.00  0.00    -0.276 OA
ATOM      4  N   UNL     1      -3.928  -0.442  25.258  0.00  0.00    -0.314 N 
ATOM     24  C   UNL     1      -3.935  -1.732  24.733  0.00  0.00    +0.210 C 
ATOM     25  C   UNL     1      -3.193  -2.717  25.596  0.00  0.00    +0.109 C 
ATOM     26  H   UNL     1      -3.489  -0.287  26.161  0.00  0.00    +0.149 HD
ENDBRANCH  14   4
ENDBRANCH   8  14
TORSDOF 4
ENDMDL
MODEL 5
REMARK VINA RESULT:      -0.4     18.815     19.941
REMARK  Name = 25388978
REMARK  6 active torsions:
REMARK  status: ('A' for Active; 'I' for Inactive)
REMARK    1  A    between atoms: N_3  and  C_23
REMARK    2  A    between atoms: N_4  and  C_14
REMARK    3  A    between atoms: C_7  and  C_13
REMARK    4  A    between atoms: C_8  and  C_14
REMARK    5  A    between atoms: C_16  and  C_17
REMARK    6  A    between atoms: C_24  and  C_25
REMARK                            x       y       z     vdW  Elec       q    Type
REMARK                         _______ _______ _______ _____ _____    ______ ____
ROOT
ATOM      2  N   UNL     1      -5.344   1.827  24.039  0.00  0.00    -0.297 NA
ATOM      6  C   UNL     1      -3.780   2.514  26.004  0.00  0.00    +0.002 C 
ATOM      7  C   UNL     1      -3.163   2.942  24.644  0.00  0.00    +0.055 C 
ATOM      8  C   UNL     1      -5.123   0.667  24.942  0.00  0.00    +0.074 C 
ATOM      9  C   UNL     1      -4.039   0.993  25.992  0.00  0.00    +0.024 C 
ATOM     10  C   UNL     1      -4.044   2.324  23.521  0.00  0.00    +0.094 C 
ATOM     11  C   UNL     1      -5.155   3.208  26.107  0.00  0.00    +0.019 C 
ATOM     12  C   UNL     1      -5.969   2.910  24.836  0.00  0.00    +0.085 C 
ENDROOT
BRANCH   7  13
ATOM      3  N   UNL     1      -0.728   3.653  24.575  0.00  0.00    -0.271 N 
ATOM      5  N   UNL     1       0.523   3.229  24.327  0.00  0.00    -0.176 NA
ATOM     13  C   UNL     1      -1.679   2.689  24.418  0.00  0.00    +0.044 A 
ATOM     15  C   UNL     1      -1.004   1.554  24.040  0.00  0.00    +0.048 A 
ATOM     17  C   UNL     1       0.348   1.945  24.002  0.00  0.00    +0.066 A 
ATOM     23  C   UNL     1      -0.941   5.028  24.965  0.00  0.00    +0.172 C 
BRANCH  17  16
ATOM     16  C   UNL     1       1.549   1.088  23.644  0.00  0.00    +0.040 C 
ATOM     18  C   UNL     1       2.740   1.941  23.172  0.00  0.00    +0.010 C 
ATOM     19  C   UNL     1       1.195   0.013  22.602  0.00  0.00    +0.010 C 
ATOM     20  C   UNL     1       3.946   1.070  22.825  0.00  0.00    +0.001 C 
ATOM     21  C   UNL     1       2.407  -0.850  22.256  0.00  0.00    +0.001 C 
ATOM     22  C   UNL     1       3.590  -0.001  21.798  0.00  0.00    +0.000 C 
ENDBRANCH  17  16
ENDBRANCH   7  13
BRANCH   8  14
ATOM     14  C   UNL     1      -4.804  -0.617  24.174  0.00  0.00    +0.123 C 
BRANCH  14   4
ATOM      1  O   UNL     1      -3.562  -3.136  24.914  0.00  0.00    -0.276 OA
ATOM      4  N   UNL     1      -3.407  -0.913  24.232  0.00  0.00    -0.314 N 
ATOM     24  C   UNL     1      -2.893  -2.154  24.600  0.00  0.00    +0.210 C 
ATOM     25  C   UNL     1      -1.389  -2.199  24.553  0.00  0.00    +0.109 C 
ATOM     26  H   UNL     1      -2.757  -0.161  24.022  0.00  0.00    +0.149 HD
ENDBRANCH  14   4
ENDBRANCH   8  14
TORSDOF 4
ENDMDL
