MODEL 1
REMARK VINA RESULT:      -4.9      0.000      0.000
REMARK  Name = 75536854
REMARK  6 active torsions:
REMARK  status: ('A' for Active; 'I' for Inactive)
REMARK    1  A    between atoms: O_2  and  C_8
REMARK    2  A    between atoms: O_2  and  C_16
REMARK    3  A    between atoms: N_5  and  C_18
REMARK    4  A    between atoms: C_13  and  C_14
REMARK    5  A    between atoms: C_17  and  C_20
REMARK    6  A    between atoms: C_21  and  C_24
REMARK                            x       y       z     vdW  Elec       q    Type
REMARK                         _______ _______ _______ _____ _____    ______ ____
ROOT
ATOM      1  O   UNL     1      -1.365   5.597  25.303  0.00  0.00    -0.375 OA
ATOM      3  O   UNL     1      -5.377   2.936  24.934  0.00  0.00    -0.268 OA
ATOM      4  N   UNL     1      -3.138   3.031  25.620  0.00  0.00    -0.291 N 
ATOM      8  C   UNL     1      -0.611   3.334  25.818  0.00  0.00    +0.218 C 
ATOM      9  C   UNL     1      -1.814   2.399  25.665  0.00  0.00    +0.155 C 
ATOM     10  C   UNL     1      -3.289   4.370  26.192  0.00  0.00    +0.136 C 
ATOM     11  C   UNL     1      -0.615   4.488  24.817  0.00  0.00    +0.206 C 
ATOM     12  C   UNL     1      -2.779   5.436  25.231  0.00  0.00    +0.179 C 
ATOM     13  C   UNL     1      -4.258   2.430  25.023  0.00  0.00    +0.265 C 
ENDROOT
BRANCH  13  14
ATOM      5  N   UNL     1      -3.421   0.783  23.308  0.00  0.00    -0.262 N 
ATOM      6  N   UNL     1      -3.432  -0.524  22.996  0.00  0.00    -0.176 NA
ATOM     14  C   UNL     1      -4.105   1.084  24.448  0.00  0.00    +0.123 A 
ATOM     15  C   UNL     1      -4.600  -0.109  24.915  0.00  0.00    +0.057 A 
ATOM     17  C   UNL     1      -4.154  -1.064  23.982  0.00  0.00    +0.061 A 
ATOM     18  C   UNL     1      -2.718   1.707  22.448  0.00  0.00    +0.173 C 
ATOM     20  C   UNL     1      -4.399  -2.516  23.998  0.00  0.00    +0.067 C 
ENDBRANCH  13  14
BRANCH   8   2
ATOM      2  O   UNL     1       0.557   2.540  25.607  0.00  0.00    -0.469 OA
BRANCH   2  16
ATOM      7  N   UNL     1      -0.281   0.383  25.476  0.00  0.00    -0.218 NA
ATOM     16  C   UNL     1       0.393   1.392  24.881  0.00  0.00    +0.215 A 
ATOM     19  C   UNL     1       0.917   1.327  23.600  0.00  0.00    +0.067 A 
ATOM     21  C   UNL     1      -0.435  -0.746  24.748  0.00  0.00    +0.042 A 
ATOM     22  C   UNL     1       0.738   0.150  22.883  0.00  0.00    +0.007 A 
ATOM     23  C   UNL     1       0.049  -0.911  23.461  0.00  0.00    +0.023 A 
ATOM     24  C   UNL     1      -1.176  -1.866  25.400  0.00  0.00    +0.066 C 
ENDBRANCH   2  16
ENDBRANCH   8   2
TORSDOF 3
ENDMDL
MODEL 2
REMARK VINA RESULT:      -4.7      1.610      4.259
REMARK  Name = 75536854
REMARK  6 active torsions:
REMARK  status: ('A' for Active; 'I' for Inactive)
REMARK    1  A    between atoms: O_2  and  C_8
REMARK    2  A    between atoms: O_2  and  C_16
REMARK    3  A    between atoms: N_5  and  C_18
REMARK    4  A    between atoms: C_13  and  C_14
REMARK    5  A    between atoms: C_17  and  C_20
REMARK    6  A    between atoms: C_21  and  C_24
REMARK                            x       y       z     vdW  Elec       q    Type
REMARK                         _______ _______ _______ _____ _____    ______ ____
ROOT
ATOM      1  O   UNL     1      -5.973   3.184  26.110  0.00  0.00    -0.375 OA
ATOM      3  O   UNL     1      -1.590   4.555  24.622  0.00  0.00    -0.268 OA
ATOM      4  N   UNL     1      -3.395   3.090  24.330  0.00  0.00    -0.291 N 
ATOM      8  C   UNL     1      -5.292   1.402  24.590  0.00  0.00    +0.218 C 
ATOM      9  C   UNL     1      -3.873   1.720  24.109  0.00  0.00    +0.155 C 
ATOM     10  C   UNL     1      -4.387   4.151  24.516  0.00  0.00    +0.136 C 
ATOM     11  C   UNL     1      -5.548   1.827  26.034  0.00  0.00    +0.206 C 
ATOM     12  C   UNL     1      -4.935   4.145  25.936  0.00  0.00    +0.179 C 
ATOM     13  C   UNL     1      -2.034   3.428  24.407  0.00  0.00    +0.265 C 
ENDROOT
BRANCH  13  14
ATOM      5  N   UNL     1      -0.046   2.041  25.101  0.00  0.00    -0.262 N 
ATOM      6  N   UNL     1       0.734   1.025  24.694  0.00  0.00    -0.176 NA
ATOM     14  C   UNL     1      -1.038   2.361  24.221  0.00  0.00    +0.123 A 
ATOM     15  C   UNL     1      -0.897   1.495  23.164  0.00  0.00    +0.057 A 
ATOM     17  C   UNL     1       0.209   0.696  23.510  0.00  0.00    +0.061 A 
ATOM     18  C   UNL     1       0.222   2.671  26.372  0.00  0.00    +0.173 C 
ATOM     20  C   UNL     1       0.801  -0.404  22.729  0.00  0.00    +0.067 C 
ENDBRANCH  13  14
BRANCH   8   2
ATOM      2  O   UNL     1      -5.453  -0.014  24.487  0.00  0.00    -0.469 OA
BRANCH   2  16
ATOM      7  N   UNL     1      -3.406  -0.382  25.511  0.00  0.00    -0.218 NA
ATOM     16  C   UNL     1      -4.316  -0.767  24.589  0.00  0.00    +0.215 A 
ATOM     19  C   UNL     1      -4.161  -1.864  23.756  0.00  0.00    +0.067 A 
ATOM     21  C   UNL     1      -2.287  -1.135  25.600  0.00  0.00    +0.042 A 
ATOM     22  C   UNL     1      -2.996  -2.614  23.878  0.00  0.00    +0.007 A 
ATOM     23  C   UNL     1      -2.036  -2.249  24.816  0.00  0.00    +0.023 A 
ATOM     24  C   UNL     1      -1.277  -0.712  26.615  0.00  0.00    +0.066 C 
ENDBRANCH   2  16
ENDBRANCH   8   2
TORSDOF 3
ENDMDL
MODEL 3
REMARK VINA RESULT:      -4.4      2.103      5.989
REMARK  Name = 75536854
REMARK  6 active torsions:
REMARK  status: ('A' for Active; 'I' for Inactive)
REMARK    1  A    between atoms: O_2  and  C_8
REMARK    2  A    between atoms: O_2  and  C_16
REMARK    3  A    between atoms: N_5  and  C_18
REMARK    4  A    between atoms: C_13  and  C_14
REMARK    5  A    between atoms: C_17  and  C_20
REMARK    6  A    between atoms: C_21  and  C_24
REMARK                            x       y       z     vdW  Elec       q    Type
REMARK                         _______ _______ _______ _____ _____    ______ ____
ROOT
ATOM      1  O   UNL     1      -3.882  -2.909  23.958  0.00  0.00    -0.375 OA
ATOM      3  O   UNL     1       0.626  -1.229  24.358  0.00  0.00    -0.268 OA
ATOM      4  N   UNL     1      -1.598  -1.080  25.081  0.00  0.00    -0.291 N 
ATOM      8  C   UNL     1      -4.135  -0.881  25.290  0.00  0.00    +0.218 C 
ATOM      9  C   UNL     1      -2.751  -0.237  25.420  0.00  0.00    +0.155 C 
ATOM     10  C   UNL     1      -1.763  -2.534  25.125  0.00  0.00    +0.136 C 
ATOM     11  C   UNL     1      -4.355  -1.566  23.943  0.00  0.00    +0.206 C 
ATOM     12  C   UNL     1      -2.466  -3.043  23.874  0.00  0.00    +0.179 C 
ATOM     13  C   UNL     1      -0.356  -0.560  24.681  0.00  0.00    +0.265 C 
ENDROOT
BRANCH  13  14
ATOM      5  N   UNL     1       0.774   1.569  23.943  0.00  0.00    -0.262 N 
ATOM      6  N   UNL     1       0.708   2.905  24.068  0.00  0.00    -0.176 NA
ATOM     14  C   UNL     1      -0.191   0.901  24.637  0.00  0.00    +0.123 A 
ATOM     15  C   UNL     1      -0.942   1.868  25.261  0.00  0.00    +0.057 A 
ATOM     17  C   UNL     1      -0.343   3.081  24.874  0.00  0.00    +0.061 A 
ATOM     18  C   UNL     1       1.812   0.987  23.123  0.00  0.00    +0.173 C 
ATOM     20  C   UNL     1      -0.749   4.445  25.257  0.00  0.00    +0.067 C 
ENDBRANCH  13  14
BRANCH   8   2
ATOM      2  O   UNL     1      -5.092   0.168  25.440  0.00  0.00    -0.469 OA
BRANCH   2  16
ATOM      7  N   UNL     1      -4.003   1.442  23.839  0.00  0.00    -0.218 NA
ATOM     16  C   UNL     1      -4.723   1.403  24.982  0.00  0.00    +0.215 A 
ATOM     19  C   UNL     1      -5.100   2.526  25.701  0.00  0.00    +0.067 A 
ATOM     21  C   UNL     1      -3.643   2.669  23.399  0.00  0.00    +0.042 A 
ATOM     22  C   UNL     1      -4.712   3.770  25.217  0.00  0.00    +0.007 A 
ATOM     23  C   UNL     1      -3.970   3.851  24.043  0.00  0.00    +0.023 A 
ATOM     24  C   UNL     1      -2.845   2.719  22.139  0.00  0.00    +0.066 C 
ENDBRANCH   2  16
ENDBRANCH   8   2
TORSDOF 3
ENDMDL
MODEL 4
REMARK VINA RESULT:      -3.8      1.869      4.655
REMARK  Name = 75536854
REMARK  6 active torsions:
REMARK  status: ('A' for Active; 'I' for Inactive)
REMARK    1  A    between atoms: O_2  and  C_8
REMARK    2  A    between atoms: O_2  and  C_16
REMARK    3  A    between atoms: N_5  and  C_18
REMARK    4  A    between atoms: C_13  and  C_14
REMARK    5  A    between atoms: C_17  and  C_20
REMARK    6  A    between atoms: C_21  and  C_24
REMARK                            x       y       z     vdW  Elec       q    Type
REMARK                         _______ _______ _______ _____ _____    ______ ____
ROOT
ATOM      1  O   UNL     1       1.439  -0.555  23.480  0.00  0.00    -0.375 OA
ATOM      3  O   UNL     1      -0.216   3.981  23.493  0.00  0.00    -0.268 OA
ATOM      4  N   UNL     1      -0.135   1.915  24.597  0.00  0.00    -0.291 N 
ATOM      8  C   UNL     1      -0.215  -0.545  25.274  0.00  0.00    +0.218 C 
ATOM      9  C   UNL     1      -0.846   0.850  25.315  0.00  0.00    +0.155 C 
ATOM     10  C   UNL     1       1.293   1.738  24.326  0.00  0.00    +0.136 C 
ATOM     11  C   UNL     1       0.142  -1.003  23.861  0.00  0.00    +0.206 C 
ATOM     12  C   UNL     1       1.513   0.823  23.128  0.00  0.00    +0.179 C 
ATOM     13  C   UNL     1      -0.765   3.078  24.125  0.00  0.00    +0.265 C 
ENDROOT
BRANCH  13  14
ATOM      5  N   UNL     1      -3.217   2.840  23.590  0.00  0.00    -0.262 N 
ATOM      6  N   UNL     1      -4.440   3.124  24.066  0.00  0.00    -0.176 NA
ATOM     14  C   UNL     1      -2.200   3.256  24.398  0.00  0.00    +0.123 A 
ATOM     15  C   UNL     1      -2.800   3.854  25.479  0.00  0.00    +0.057 A 
ATOM     17  C   UNL     1      -4.179   3.743  25.221  0.00  0.00    +0.061 A 
ATOM     18  C   UNL     1      -3.094   2.152  22.325  0.00  0.00    +0.173 C 
ATOM     20  C   UNL     1      -5.290   4.221  26.061  0.00  0.00    +0.067 C 
ENDBRANCH  13  14
BRANCH   8   2
ATOM      2  O   UNL     1      -1.175  -1.447  25.826  0.00  0.00    -0.469 OA
BRANCH   2  16
ATOM      7  N   UNL     1      -3.241  -0.523  25.326  0.00  0.00    -0.218 NA
ATOM     16  C   UNL     1      -2.370  -1.545  25.169  0.00  0.00    +0.215 A 
ATOM     19  C   UNL     1      -2.620  -2.665  24.392  0.00  0.00    +0.067 A 
ATOM     21  C   UNL     1      -4.419  -0.633  24.672  0.00  0.00    +0.042 A 
ATOM     22  C   UNL     1      -3.843  -2.743  23.735  0.00  0.00    +0.007 A 
ATOM     23  C   UNL     1      -4.765  -1.710  23.872  0.00  0.00    +0.023 A 
ATOM     24  C   UNL     1      -5.387   0.490  24.844  0.00  0.00    +0.066 C 
ENDBRANCH   2  16
ENDBRANCH   8   2
TORSDOF 3
ENDMDL
MODEL 5
REMARK VINA RESULT:      -2.8      1.895      4.524
REMARK  Name = 75536854
REMARK  6 active torsions:
REMARK  status: ('A' for Active; 'I' for Inactive)
REMARK    1  A    between atoms: O_2  and  C_8
REMARK    2  A    between atoms: O_2  and  C_16
REMARK    3  A    between atoms: N_5  and  C_18
REMARK    4  A    between atoms: C_13  and  C_14
REMARK    5  A    between atoms: C_17  and  C_20
REMARK    6  A    between atoms: C_21  and  C_24
REMARK                            x       y       z     vdW  Elec       q    Type
REMARK                         _______ _______ _______ _____ _____    ______ ____
ROOT
ATOM      1  O   UNL     1      -0.639  -2.168  25.476  0.00  0.00    -0.375 OA
ATOM      3  O   UNL     1      -5.106  -0.881  24.170  0.00  0.00    -0.268 OA
ATOM      4  N   UNL     1      -2.815  -0.392  24.085  0.00  0.00    -0.291 N 
ATOM      8  C   UNL     1      -0.356   0.083  24.579  0.00  0.00    +0.218 C 
ATOM      9  C   UNL     1      -1.743   0.605  24.190  0.00  0.00    +0.155 C 
ATOM     10  C   UNL     1      -2.445  -1.791  23.866  0.00  0.00    +0.136 C 
ATOM     11  C   UNL     1      -0.374  -0.811  25.817  0.00  0.00    +0.206 C 
ATOM     12  C   UNL     1      -2.001  -2.449  25.166  0.00  0.00    +0.179 C 
ATOM     13  C   UNL     1      -4.177  -0.074  24.220  0.00  0.00    +0.265 C 
ENDROOT
BRANCH  13  14
ATOM      5  N   UNL     1      -4.116   2.391  23.696  0.00  0.00    -0.262 N 
ATOM      6  N   UNL     1      -4.602   3.575  24.104  0.00  0.00    -0.176 NA
ATOM     14  C   UNL     1      -4.548   1.333  24.440  0.00  0.00    +0.123 A 
ATOM     15  C   UNL     1      -5.374   1.861  25.402  0.00  0.00    +0.057 A 
ATOM     17  C   UNL     1      -5.370   3.245  25.146  0.00  0.00    +0.061 A 
ATOM     18  C   UNL     1      -3.224   2.347  22.561  0.00  0.00    +0.173 C 
ATOM     20  C   UNL     1      -6.094   4.295  25.883  0.00  0.00    +0.067 C 
ENDBRANCH  13  14
BRANCH   8   2
ATOM      2  O   UNL     1       0.455   1.228  24.844  0.00  0.00    -0.469 OA
BRANCH   2  16
ATOM      7  N   UNL     1      -1.112   2.552  25.924  0.00  0.00    -0.218 NA
ATOM     16  C   UNL     1      -0.195   2.428  24.939  0.00  0.00    +0.215 A 
ATOM     19  C   UNL     1       0.116   3.434  24.038  0.00  0.00    +0.067 A 
ATOM     21  C   UNL     1      -1.747   3.742  26.006  0.00  0.00    +0.042 A 
ATOM     22  C   UNL     1      -0.558   4.643  24.154  0.00  0.00    +0.007 A 
ATOM     23  C   UNL     1      -1.509   4.809  25.155  0.00  0.00    +0.023 A 
ATOM     24  C   UNL     1      -2.764   3.884  27.090  0.00  0.00    +0.066 C 
ENDBRANCH   2  16
ENDBRANCH   8   2
TORSDOF 3
ENDMDL
MODEL 6
REMARK VINA RESULT:      -2.7      2.034      4.933
REMARK  Name = 75536854
REMARK  6 active torsions:
REMARK  status: ('A' for Active; 'I' for Inactive)
REMARK    1  A    between atoms: O_2  and  C_8
REMARK    2  A    between atoms: O_2  and  C_16
REMARK    3  A    between atoms: N_5  and  C_18
REMARK    4  A    between atoms: C_13  and  C_14
REMARK    5  A    between atoms: C_17  and  C_20
REMARK    6  A    between atoms: C_21  and  C_24
REMARK                            x       y       z     vdW  Elec       q    Type
REMARK                         _______ _______ _______ _____ _____    ______ ____
ROOT
ATOM      1  O   UNL     1      -1.827  -2.805  25.033  0.00  0.00    -0.375 OA
ATOM      3  O   UNL     1      -5.879  -0.231  24.516  0.00  0.00    -0.268 OA
ATOM      4  N   UNL     1      -3.597  -0.425  24.020  0.00  0.00    -0.291 N 
ATOM      8  C   UNL     1      -1.059  -0.702  24.063  0.00  0.00    +0.218 C 
ATOM      9  C   UNL     1      -2.279   0.213  23.917  0.00  0.00    +0.155 C 
ATOM     10  C   UNL     1      -3.695  -1.863  23.762  0.00  0.00    +0.136 C 
ATOM     11  C   UNL     1      -1.122  -1.596  25.299  0.00  0.00    +0.206 C 
ATOM     12  C   UNL     1      -3.244  -2.668  24.973  0.00  0.00    +0.179 C 
ATOM     13  C   UNL     1      -4.761   0.269  24.387  0.00  0.00    +0.265 C 
ENDROOT
BRANCH  13  14
ATOM      5  N   UNL     1      -5.349   2.396  25.606  0.00  0.00    -0.262 N 
ATOM      6  N   UNL     1      -5.079   3.712  25.637  0.00  0.00    -0.176 NA
ATOM     14  C   UNL     1      -4.661   1.714  24.646  0.00  0.00    +0.123 A 
ATOM     15  C   UNL     1      -3.888   2.649  24.003  0.00  0.00    +0.057 A 
ATOM     17  C   UNL     1      -4.185   3.860  24.655  0.00  0.00    +0.061 A 
ATOM     18  C   UNL     1      -6.297   1.848  26.548  0.00  0.00    +0.173 C 
ATOM     20  C   UNL     1      -3.631   5.194  24.366  0.00  0.00    +0.067 C 
ENDBRANCH  13  14
BRANCH   8   2
ATOM      2  O   UNL     1       0.084   0.148  24.161  0.00  0.00    -0.469 OA
BRANCH   2  16
ATOM      7  N   UNL     1      -0.039   2.431  23.777  0.00  0.00    -0.218 NA
ATOM     16  C   UNL     1      -0.131   1.406  24.654  0.00  0.00    +0.215 A 
ATOM     19  C   UNL     1      -0.425   1.560  25.999  0.00  0.00    +0.067 A 
ATOM     21  C   UNL     1      -0.251   3.668  24.277  0.00  0.00    +0.042 A 
ATOM     22  C   UNL     1      -0.637   2.848  26.476  0.00  0.00    +0.007 A 
ATOM     23  C   UNL     1      -0.552   3.928  25.604  0.00  0.00    +0.023 A 
ATOM     24  C   UNL     1      -0.148   4.805  23.314  0.00  0.00    +0.066 C 
ENDBRANCH   2  16
ENDBRANCH   8   2
TORSDOF 3
ENDMDL
MODEL 7
REMARK VINA RESULT:      -2.7      1.283      2.084
REMARK  Name = 75536854
REMARK  6 active torsions:
REMARK  status: ('A' for Active; 'I' for Inactive)
REMARK    1  A    between atoms: O_2  and  C_8
REMARK    2  A    between atoms: O_2  and  C_16
REMARK    3  A    between atoms: N_5  and  C_18
REMARK    4  A    between atoms: C_13  and  C_14
REMARK    5  A    between atoms: C_17  and  C_20
REMARK    6  A    between atoms: C_21  and  C_24
REMARK                            x       y       z     vdW  Elec       q    Type
REMARK                         _______ _______ _______ _____ _____    ______ ____
ROOT
ATOM      1  O   UNL     1      -0.454   5.540  24.682  0.00  0.00    -0.375 OA
ATOM      3  O   UNL     1      -5.067   4.119  24.594  0.00  0.00    -0.268 OA
ATOM      4  N   UNL     1      -2.926   3.791  25.490  0.00  0.00    -0.291 N 
ATOM      8  C   UNL     1      -0.433   3.425  25.898  0.00  0.00    +0.218 C 
ATOM      9  C   UNL     1      -1.857   2.861  25.870  0.00  0.00    +0.155 C 
ATOM     10  C   UNL     1      -2.685   5.227  25.641  0.00  0.00    +0.136 C 
ATOM     11  C   UNL     1      -0.057   4.174  24.621  0.00  0.00    +0.206 C 
ATOM     12  C   UNL     1      -1.847   5.765  24.488  0.00  0.00    +0.179 C 
ATOM     13  C   UNL     1      -4.156   3.373  24.955  0.00  0.00    +0.265 C 
ENDROOT
BRANCH  13  14
ATOM      5  N   UNL     1      -5.342   1.210  25.475  0.00  0.00    -0.262 N 
ATOM      6  N   UNL     1      -5.359  -0.095  25.156  0.00  0.00    -0.176 NA
ATOM     14  C   UNL     1      -4.398   1.930  24.803  0.00  0.00    +0.123 A 
ATOM     15  C   UNL     1      -3.752   1.033  23.988  0.00  0.00    +0.057 A 
ATOM     17  C   UNL     1      -4.385  -0.197  24.247  0.00  0.00    +0.061 A 
ATOM     18  C   UNL     1      -6.280   1.710  26.453  0.00  0.00    +0.173 C 
ATOM     20  C   UNL     1      -4.086  -1.505  23.640  0.00  0.00    +0.067 C 
ENDBRANCH  13  14
BRANCH   8   2
ATOM      2  O   UNL     1       0.448   2.312  26.061  0.00  0.00    -0.469 OA
BRANCH   2  16
ATOM      7  N   UNL     1       0.788   1.068  24.135  0.00  0.00    -0.218 NA
ATOM     16  C   UNL     1       0.162   1.194  25.326  0.00  0.00    +0.215 A 
ATOM     19  C   UNL     1      -0.737   0.269  25.833  0.00  0.00    +0.067 A 
ATOM     21  C   UNL     1       0.496  -0.041  23.418  0.00  0.00    +0.042 A 
ATOM     22  C   UNL     1      -1.012  -0.858  25.067  0.00  0.00    +0.007 A 
ATOM     23  C   UNL     1      -0.387  -1.024  23.835  0.00  0.00    +0.023 A 
ATOM     24  C   UNL     1       1.181  -0.185  22.100  0.00  0.00    +0.066 C 
ENDBRANCH   2  16
ENDBRANCH   8   2
TORSDOF 3
ENDMDL
MODEL 8
REMARK VINA RESULT:      -2.5      1.503      4.360
REMARK  Name = 75536854
REMARK  6 active torsions:
REMARK  status: ('A' for Active; 'I' for Inactive)
REMARK    1  A    between atoms: O_2  and  C_8
REMARK    2  A    between atoms: O_2  and  C_16
REMARK    3  A    between atoms: N_5  and  C_18
REMARK    4  A    between atoms: C_13  and  C_14
REMARK    5  A    between atoms: C_17  and  C_20
REMARK    6  A    between atoms: C_21  and  C_24
REMARK                            x       y       z     vdW  Elec       q    Type
REMARK                         _______ _______ _______ _____ _____    ______ ____
ROOT
ATOM      1  O   UNL     1      -5.844   3.741  26.221  0.00  0.00    -0.375 OA
ATOM      3  O   UNL     1      -1.294   4.728  24.945  0.00  0.00    -0.268 OA
ATOM      4  N   UNL     1      -3.217   3.453  24.536  0.00  0.00    -0.291 N 
ATOM      8  C   UNL     1      -5.275   1.948  24.667  0.00  0.00    +0.218 C 
ATOM      9  C   UNL     1      -3.814   2.143  24.251  0.00  0.00    +0.155 C 
ATOM     10  C   UNL     1      -4.110   4.599  24.721  0.00  0.00    +0.136 C 
ATOM     11  C   UNL     1      -5.547   2.352  26.115  0.00  0.00    +0.206 C 
ATOM     12  C   UNL     1      -4.714   4.602  26.119  0.00  0.00    +0.179 C 
ATOM     13  C   UNL     1      -1.834   3.655  24.676  0.00  0.00    +0.265 C 
ENDROOT
BRANCH  13  14
ATOM      5  N   UNL     1      -0.173   1.931  25.463  0.00  0.00    -0.262 N 
ATOM      6  N   UNL     1       0.561   0.890  25.034  0.00  0.00    -0.176 NA
ATOM     14  C   UNL     1      -0.937   2.504  24.490  0.00  0.00    +0.123 A 
ATOM     15  C   UNL     1      -0.686   1.788  23.345  0.00  0.00    +0.057 A 
ATOM     17  C   UNL     1       0.243   0.808  23.740  0.00  0.00    +0.061 A 
ATOM     18  C   UNL     1      -0.090   2.329  26.849  0.00  0.00    +0.173 C 
ATOM     20  C   UNL     1       0.857  -0.236  22.901  0.00  0.00    +0.067 C 
ENDBRANCH  13  14
BRANCH   8   2
ATOM      2  O   UNL     1      -5.566   0.559  24.510  0.00  0.00    -0.469 OA
BRANCH   2  16
ATOM      7  N   UNL     1      -4.449  -1.404  23.985  0.00  0.00    -0.218 NA
ATOM     16  C   UNL     1      -4.546  -0.313  24.778  0.00  0.00    +0.215 A 
ATOM     19  C   UNL     1      -3.684  -0.038  25.827  0.00  0.00    +0.067 A 
ATOM     21  C   UNL     1      -3.438  -2.258  24.261  0.00  0.00    +0.042 A 
ATOM     22  C   UNL     1      -2.657  -0.940  26.080  0.00  0.00    +0.007 A 
ATOM     23  C   UNL     1      -2.524  -2.073  25.285  0.00  0.00    +0.023 A 
ATOM     24  C   UNL     1      -3.328  -3.466  23.390  0.00  0.00    +0.066 C 
ENDBRANCH   2  16
ENDBRANCH   8   2
TORSDOF 3
ENDMDL
MODEL 9
REMARK VINA RESULT:      -2.2      2.198      4.824
REMARK  Name = 75536854
REMARK  6 active torsions:
REMARK  status: ('A' for Active; 'I' for Inactive)
REMARK    1  A    between atoms: O_2  and  C_8
REMARK    2  A    between atoms: O_2  and  C_16
REMARK    3  A    between atoms: N_5  and  C_18
REMARK    4  A    between atoms: C_13  and  C_14
REMARK    5  A    between atoms: C_17  and  C_20
REMARK    6  A    between atoms: C_21  and  C_24
REMARK                            x       y       z     vdW  Elec       q    Type
REMARK                         _______ _______ _______ _____ _____    ______ ____
ROOT
ATOM      1  O   UNL     1      -2.341  -2.766  24.979  0.00  0.00    -0.375 OA
ATOM      3  O   UNL     1      -5.445   0.888  24.413  0.00  0.00    -0.268 OA
ATOM      4  N   UNL     1      -3.264   0.094  24.090  0.00  0.00    -0.291 N 
ATOM      8  C   UNL     1      -0.922  -0.897  24.313  0.00  0.00    +0.218 C 
ATOM      9  C   UNL     1      -1.819   0.336  24.167  0.00  0.00    +0.155 C 
ATOM     10  C   UNL     1      -3.726  -1.230  23.669  0.00  0.00    +0.136 C 
ATOM     11  C   UNL     1      -1.365  -1.834  25.434  0.00  0.00    +0.206 C 
ATOM     12  C   UNL     1      -3.650  -2.227  24.818  0.00  0.00    +0.179 C 
ATOM     13  C   UNL     1      -4.226   1.058  24.433  0.00  0.00    +0.265 C 
ENDROOT
BRANCH  13  14
ATOM      5  N   UNL     1      -4.448   3.247  25.664  0.00  0.00    -0.262 N 
ATOM      6  N   UNL     1      -3.804   4.403  25.900  0.00  0.00    -0.176 NA
ATOM     14  C   UNL     1      -3.762   2.389  24.856  0.00  0.00    +0.123 A 
ATOM     15  C   UNL     1      -2.587   3.027  24.542  0.00  0.00    +0.057 A 
ATOM     17  C   UNL     1      -2.668   4.262  25.212  0.00  0.00    +0.061 A 
ATOM     18  C   UNL     1      -5.747   3.029  26.258  0.00  0.00    +0.173 C 
ATOM     20  C   UNL     1      -1.670   5.345  25.220  0.00  0.00    +0.067 C 
ENDBRANCH  13  14
BRANCH   8   2
ATOM      2  O   UNL     1       0.393  -0.419  24.599  0.00  0.00    -0.469 OA
BRANCH   2  16
ATOM      7  N   UNL     1       2.486   0.167  23.794  0.00  0.00    -0.218 NA
ATOM     16  C   UNL     1       1.233  -0.265  23.530  0.00  0.00    +0.215 A 
ATOM     19  C   UNL     1       0.764  -0.555  22.259  0.00  0.00    +0.067 A 
ATOM     21  C   UNL     1       3.306   0.316  22.730  0.00  0.00    +0.042 A 
ATOM     22  C   UNL     1       1.636  -0.390  21.190  0.00  0.00    +0.007 A 
ATOM     23  C   UNL     1       2.934   0.053  21.422  0.00  0.00    +0.023 A 
ATOM     24  C   UNL     1       4.691   0.795  23.014  0.00  0.00    +0.066 C 
ENDBRANCH   2  16
ENDBRANCH   8   2
TORSDOF 3
ENDMDL
MODEL 10
REMARK VINA RESULT:      -2.2      1.872      4.257
REMARK  Name = 75536854
REMARK  6 active torsions:
REMARK  status: ('A' for Active; 'I' for Inactive)
REMARK    1  A    between atoms: O_2  and  C_8
REMARK    2  A    between atoms: O_2  and  C_16
REMARK    3  A    between atoms: N_5  and  C_18
REMARK    4  A    between atoms: C_13  and  C_14
REMARK    5  A    between atoms: C_17  and  C_20
REMARK    6  A    between atoms: C_21  and  C_24
REMARK                            x       y       z     vdW  Elec       q    Type
REMARK                         _______ _______ _______ _____ _____    ______ ____
ROOT
ATOM      1  O   UNL     1       1.160   0.554  23.620  0.00  0.00    -0.375 OA
ATOM      3  O   UNL     1      -1.598   4.473  24.209  0.00  0.00    -0.268 OA
ATOM      4  N   UNL     1      -0.960   2.376  25.038  0.00  0.00    -0.291 N 
ATOM      8  C   UNL     1      -0.389  -0.087  25.393  0.00  0.00    +0.218 C 
ATOM      9  C   UNL     1      -1.354   1.083  25.611  0.00  0.00    +0.155 C 
ATOM     10  C   UNL     1       0.457   2.608  24.753  0.00  0.00    +0.136 C 
ATOM     11  C   UNL     1       0.032  -0.257  23.935  0.00  0.00    +0.206 C 
ATOM     12  C   UNL     1       0.869   1.938  23.449  0.00  0.00    +0.179 C 
ATOM     13  C   UNL     1      -1.880   3.388  24.718  0.00  0.00    +0.265 C 
ENDROOT
BRANCH  13  14
ATOM      5  N   UNL     1      -3.982   3.632  26.088  0.00  0.00    -0.262 N 
ATOM      6  N   UNL     1      -5.277   3.276  26.118  0.00  0.00    -0.176 NA
ATOM     14  C   UNL     1      -3.304   3.155  25.005  0.00  0.00    +0.123 A 
ATOM     15  C   UNL     1      -4.219   2.435  24.277  0.00  0.00    +0.057 A 
ATOM     17  C   UNL     1      -5.416   2.544  25.009  0.00  0.00    +0.061 A 
ATOM     18  C   UNL     1      -3.450   4.451  27.153  0.00  0.00    +0.173 C 
ATOM     20  C   UNL     1      -6.726   1.959  24.678  0.00  0.00    +0.067 C 
ENDBRANCH  13  14
BRANCH   8   2
ATOM      2  O   UNL     1      -1.070  -1.267  25.821  0.00  0.00    -0.469 OA
BRANCH   2  16
ATOM      7  N   UNL     1      -2.272  -2.745  24.501  0.00  0.00    -0.218 NA
ATOM     16  C   UNL     1      -2.234  -1.571  25.170  0.00  0.00    +0.215 A 
ATOM     19  C   UNL     1      -3.291  -0.677  25.228  0.00  0.00    +0.067 A 
ATOM     21  C   UNL     1      -3.427  -3.033  23.860  0.00  0.00    +0.042 A 
ATOM     22  C   UNL     1      -4.461  -1.008  24.557  0.00  0.00    +0.007 A 
ATOM     23  C   UNL     1      -4.539  -2.208  23.858  0.00  0.00    +0.023 A 
ATOM     24  C   UNL     1      -3.474  -4.328  23.118  0.00  0.00    +0.066 C 
ENDBRANCH   2  16
ENDBRANCH   8   2
TORSDOF 3
ENDMDL
