MODEL 1
REMARK VINA RESULT:      11.5      0.000      0.000
REMARK  Name = 7164881
REMARK  11 active torsions:
REMARK  status: ('A' for Active; 'I' for Inactive)
REMARK    1  A    between atoms: O_5  and  C_22
REMARK    2  A    between atoms: O_5  and  C_35
REMARK    3  A    between atoms: O_7  and  C_34
REMARK    4  A    between atoms: O_7  and  C_39
REMARK    5  A    between atoms: N_10  and  C_19
REMARK    6  A    between atoms: N_11  and  C_25
REMARK    7  A    between atoms: C_12  and  C_16
REMARK    8  A    between atoms: C_17  and  C_21
REMARK    9  A    between atoms: C_19  and  C_20
REMARK   10  A    between atoms: C_19  and  C_22
REMARK   11  A    between atoms: C_20  and  C_23
REMARK                            x       y       z     vdW  Elec       q    Type
REMARK                         _______ _______ _______ _____ _____    ______ ____
ROOT
ATOM      3  O   UNL     1      -3.007   1.041  23.658  0.00  0.00    -0.269 OA
ATOM      4  O   UNL     1       3.560   0.794  21.436  0.00  0.00    -0.252 OA
ATOM      8  N   UNL     1      -0.921   0.034  23.641  0.00  0.00    -0.283 N 
ATOM      9  N   UNL     1       1.891   0.054  22.857  0.00  0.00    -0.282 N 
ATOM     11  N   UNL     1       4.157  -0.209  23.451  0.00  0.00    -0.269 N 
ATOM     12  C   UNL     1      -0.406   0.995  22.664  0.00  0.00    +0.179 C 
ATOM     13  C   UNL     1       0.839   0.492  21.935  0.00  0.00    +0.141 C 
ATOM     14  C   UNL     1      -0.006  -1.037  24.062  0.00  0.00    +0.128 C 
ATOM     15  C   UNL     1       1.450  -0.585  24.103  0.00  0.00    +0.128 C 
ATOM     17  C   UNL     1      -2.274   0.125  24.035  0.00  0.00    +0.254 C 
ATOM     18  C   UNL     1       3.246   0.249  22.497  0.00  0.00    +0.307 C 
ATOM     41  H   UNL     1       3.800  -0.601  24.315  0.00  0.00    +0.156 HD
ENDROOT
BRANCH  11  25
ATOM     25  C   UNL     1       5.572  -0.161  23.390  0.00  0.00    +0.035 A 
ATOM     30  C   UNL     1       6.271  -1.111  22.644  0.00  0.00    +0.023 A 
ATOM     31  C   UNL     1       6.266   0.835  24.077  0.00  0.00    +0.023 A 
ATOM     36  C   UNL     1       7.664  -1.062  22.585  0.00  0.00    +0.002 A 
ATOM     37  C   UNL     1       7.659   0.882  24.017  0.00  0.00    +0.002 A 
ATOM     38  C   UNL     1       8.358  -0.066  23.271  0.00  0.00    +0.000 A 
ENDBRANCH  11  25
BRANCH  17  21
ATOM      1  S   UNL     1      -3.090  -2.473  24.306  0.00  0.00    -0.092 S 
ATOM     21  C   UNL     1      -2.786  -0.908  24.929  0.00  0.00    +0.074 A 
ATOM     24  C   UNL     1      -3.080  -0.821  26.273  0.00  0.00    +0.021 A 
ATOM     28  C   UNL     1      -3.561  -2.055  26.796  0.00  0.00    +0.008 A 
ATOM     29  C   UNL     1      -3.617  -3.039  25.834  0.00  0.00    +0.046 A 
ENDBRANCH  17  21
BRANCH  12  16
ATOM      2  O   UNL     1       0.002   3.344  22.807  0.00  0.00    -0.274 OA
ATOM     10  N   UNL     1       0.049   2.073  24.756  0.00  0.00    -0.301 N 
ATOM     16  C   UNL     1      -0.105   2.271  23.395  0.00  0.00    +0.236 C 
ATOM     40  H   UNL     1       0.023   1.125  25.121  0.00  0.00    +0.150 HD
BRANCH  10  19
ATOM     19  C   UNL     1       0.365   3.138  25.680  0.00  0.00    +0.186 C 
BRANCH  19  22
ATOM      6  O   UNL     1      -0.555   2.049  27.631  0.00  0.00    -0.249 OA
ATOM     22  C   UNL     1       0.379   2.664  27.128  0.00  0.00    +0.328 C 
BRANCH  22   5
ATOM      5  O   UNL     1       1.525   3.019  27.774  0.00  0.00    -0.467 OA
ATOM     35  C   UNL     1       1.684   2.487  29.093  0.00  0.00    +0.280 C 
ENDBRANCH  22   5
ENDBRANCH  19  22
BRANCH  19  20
ATOM     20  C   UNL     1      -0.562   4.346  25.479  0.00  0.00    +0.069 C 
BRANCH  20  23
ATOM     23  C   UNL     1      -2.036   4.011  25.434  0.00  0.00    -0.045 A 
ATOM     26  C   UNL     1      -2.747   4.150  24.242  0.00  0.00    +0.007 A 
ATOM     27  C   UNL     1      -2.684   3.563  26.586  0.00  0.00    +0.007 A 
ATOM     32  C   UNL     1      -4.106   3.841  24.201  0.00  0.00    +0.046 A 
ATOM     33  C   UNL     1      -4.044   3.255  26.545  0.00  0.00    +0.046 A 
ATOM     34  C   UNL     1      -4.754   3.393  25.353  0.00  0.00    +0.120 A 
BRANCH  34   7
ATOM      7  O   UNL     1      -6.081   3.093  25.312  0.00  0.00    -0.495 OA
ATOM     39  C   UNL     1      -6.432   1.731  25.070  0.00  0.00    +0.277 C 
ENDBRANCH  34   7
ENDBRANCH  20  23
ENDBRANCH  19  20
ENDBRANCH  10  19
ENDBRANCH  12  16
TORSDOF 9
ENDMDL
MODEL 2
REMARK VINA RESULT:      12.8      1.127      1.820
REMARK  Name = 7164881
REMARK  11 active torsions:
REMARK  status: ('A' for Active; 'I' for Inactive)
REMARK    1  A    between atoms: O_5  and  C_22
REMARK    2  A    between atoms: O_5  and  C_35
REMARK    3  A    between atoms: O_7  and  C_34
REMARK    4  A    between atoms: O_7  and  C_39
REMARK    5  A    between atoms: N_10  and  C_19
REMARK    6  A    between atoms: N_11  and  C_25
REMARK    7  A    between atoms: C_12  and  C_16
REMARK    8  A    between atoms: C_17  and  C_21
REMARK    9  A    between atoms: C_19  and  C_20
REMARK   10  A    between atoms: C_19  and  C_22
REMARK   11  A    between atoms: C_20  and  C_23
REMARK                            x       y       z     vdW  Elec       q    Type
REMARK                         _______ _______ _______ _____ _____    ______ ____
ROOT
ATOM      3  O   UNL     1      -3.131   0.546  23.507  0.00  0.00    -0.269 OA
ATOM      4  O   UNL     1       3.486   0.540  21.420  0.00  0.00    -0.252 OA
ATOM      8  N   UNL     1      -0.982  -0.312  23.619  0.00  0.00    -0.283 N 
ATOM      9  N   UNL     1       1.839  -0.173  22.881  0.00  0.00    -0.282 N 
ATOM     11  N   UNL     1       4.104  -0.221  23.531  0.00  0.00    -0.269 N 
ATOM     12  C   UNL     1      -0.511   0.585  22.562  0.00  0.00    +0.179 C 
ATOM     13  C   UNL     1       0.780   0.101  21.904  0.00  0.00    +0.141 C 
ATOM     14  C   UNL     1      -0.007  -1.272  24.156  0.00  0.00    +0.128 C 
ATOM     15  C   UNL     1       1.414  -0.720  24.175  0.00  0.00    +0.128 C 
ATOM     17  C   UNL     1      -2.347  -0.276  23.982  0.00  0.00    +0.254 C 
ATOM     18  C   UNL     1       3.185   0.080  22.524  0.00  0.00    +0.307 C 
ATOM     41  H   UNL     1       3.755  -0.554  24.424  0.00  0.00    +0.156 HD
ENDROOT
BRANCH  11  25
ATOM     25  C   UNL     1       5.514  -0.083  23.489  0.00  0.00    +0.035 A 
ATOM     30  C   UNL     1       6.131   0.974  24.159  0.00  0.00    +0.023 A 
ATOM     31  C   UNL     1       6.283  -1.002  22.777  0.00  0.00    +0.023 A 
ATOM     36  C   UNL     1       7.519   1.110  24.117  0.00  0.00    +0.002 A 
ATOM     37  C   UNL     1       7.671  -0.865  22.735  0.00  0.00    +0.002 A 
ATOM     38  C   UNL     1       8.289   0.190  23.405  0.00  0.00    +0.000 A 
ENDBRANCH  11  25
BRANCH  17  21
ATOM      1  S   UNL     1      -3.065  -2.872  24.472  0.00  0.00    -0.092 S 
ATOM     21  C   UNL     1      -2.807  -1.252  24.964  0.00  0.00    +0.074 A 
ATOM     24  C   UNL     1      -3.085  -1.068  26.301  0.00  0.00    +0.021 A 
ATOM     28  C   UNL     1      -3.513  -2.273  26.929  0.00  0.00    +0.008 A 
ATOM     29  C   UNL     1      -3.548  -3.332  26.049  0.00  0.00    +0.046 A 
ENDBRANCH  17  21
BRANCH  12  16
ATOM      2  O   UNL     1       0.789   2.326  23.555  0.00  0.00    -0.274 OA
ATOM     10  N   UNL     1      -1.495   2.659  23.254  0.00  0.00    -0.301 N 
ATOM     16  C   UNL     1      -0.313   1.943  23.171  0.00  0.00    +0.236 C 
ATOM     40  H   UNL     1      -2.363   2.207  22.983  0.00  0.00    +0.150 HD
BRANCH  10  19
ATOM     19  C   UNL     1      -1.578   3.985  23.822  0.00  0.00    +0.186 C 
BRANCH  19  22
ATOM      6  O   UNL     1      -0.430   5.025  25.676  0.00  0.00    -0.249 OA
ATOM     22  C   UNL     1      -1.022   4.045  25.240  0.00  0.00    +0.328 C 
BRANCH  22   5
ATOM      5  O   UNL     1      -1.250   2.892  25.930  0.00  0.00    -0.467 OA
ATOM     35  C   UNL     1      -0.125   2.359  26.636  0.00  0.00    +0.280 C 
ENDBRANCH  22   5
ENDBRANCH  19  22
BRANCH  19  20
ATOM     20  C   UNL     1      -3.008   4.538  23.741  0.00  0.00    +0.069 C 
BRANCH  20  23
ATOM     23  C   UNL     1      -4.053   3.694  24.436  0.00  0.00    -0.045 A 
ATOM     26  C   UNL     1      -4.659   2.636  23.757  0.00  0.00    +0.007 A 
ATOM     27  C   UNL     1      -4.412   3.973  25.755  0.00  0.00    +0.007 A 
ATOM     32  C   UNL     1      -5.622   1.857  24.398  0.00  0.00    +0.046 A 
ATOM     33  C   UNL     1      -5.375   3.194  26.395  0.00  0.00    +0.046 A 
ATOM     34  C   UNL     1      -5.980   2.136  25.717  0.00  0.00    +0.120 A 
BRANCH  34   7
ATOM      7  O   UNL     1      -6.921   1.377  26.341  0.00  0.00    -0.495 OA
ATOM     39  C   UNL     1      -6.819   1.252  27.759  0.00  0.00    +0.277 C 
ENDBRANCH  34   7
ENDBRANCH  20  23
ENDBRANCH  19  20
ENDBRANCH  10  19
ENDBRANCH  12  16
TORSDOF 9
ENDMDL
MODEL 3
REMARK VINA RESULT:      15.1      2.524      7.469
REMARK  Name = 7164881
REMARK  11 active torsions:
REMARK  status: ('A' for Active; 'I' for Inactive)
REMARK    1  A    between atoms: O_5  and  C_22
REMARK    2  A    between atoms: O_5  and  C_35
REMARK    3  A    between atoms: O_7  and  C_34
REMARK    4  A    between atoms: O_7  and  C_39
REMARK    5  A    between atoms: N_10  and  C_19
REMARK    6  A    between atoms: N_11  and  C_25
REMARK    7  A    between atoms: C_12  and  C_16
REMARK    8  A    between atoms: C_17  and  C_21
REMARK    9  A    between atoms: C_19  and  C_20
REMARK   10  A    between atoms: C_19  and  C_22
REMARK   11  A    between atoms: C_20  and  C_23
REMARK                            x       y       z     vdW  Elec       q    Type
REMARK                         _______ _______ _______ _____ _____    ______ ____
ROOT
ATOM      3  O   UNL     1       3.081  -2.014  22.759  0.00  0.00    -0.269 OA
ATOM      4  O   UNL     1      -2.737   1.762  22.880  0.00  0.00    -0.252 OA
ATOM      8  N   UNL     1       1.985  -0.011  23.152  0.00  0.00    -0.283 N 
ATOM      9  N   UNL     1      -0.495   1.511  23.390  0.00  0.00    -0.282 N 
ATOM     11  N   UNL     1      -1.824   3.033  24.603  0.00  0.00    -0.269 N 
ATOM     12  C   UNL     1       0.702  -0.567  22.719  0.00  0.00    +0.179 C 
ATOM     13  C   UNL     1      -0.313   0.509  22.336  0.00  0.00    +0.141 C 
ATOM     14  C   UNL     1       1.998   1.409  23.530  0.00  0.00    +0.128 C 
ATOM     15  C   UNL     1       0.693   1.857  24.180  0.00  0.00    +0.128 C 
ATOM     17  C   UNL     1       3.136  -0.826  23.081  0.00  0.00    +0.254 C 
ATOM     18  C   UNL     1      -1.772   2.092  23.574  0.00  0.00    +0.307 C 
ATOM     41  H   UNL     1      -0.986   3.203  25.149  0.00  0.00    +0.156 HD
ENDROOT
BRANCH  11  25
ATOM     25  C   UNL     1      -2.945   3.786  25.034  0.00  0.00    +0.035 A 
ATOM     30  C   UNL     1      -3.849   4.289  24.098  0.00  0.00    +0.023 A 
ATOM     31  C   UNL     1      -3.143   4.023  26.393  0.00  0.00    +0.023 A 
ATOM     36  C   UNL     1      -4.952   5.029  24.523  0.00  0.00    +0.002 A 
ATOM     37  C   UNL     1      -4.247   4.764  26.817  0.00  0.00    +0.002 A 
ATOM     38  C   UNL     1      -5.151   5.267  25.883  0.00  0.00    +0.000 A 
ENDBRANCH  11  25
BRANCH  17  21
ATOM      1  S   UNL     1       5.615  -1.160  24.194  0.00  0.00    -0.092 S 
ATOM     21  C   UNL     1       4.417  -0.213  23.420  0.00  0.00    +0.074 A 
ATOM     24  C   UNL     1       4.840   1.081  23.205  0.00  0.00    +0.021 A 
ATOM     28  C   UNL     1       6.165   1.296  23.680  0.00  0.00    +0.008 A 
ATOM     29  C   UNL     1       6.705   0.161  24.242  0.00  0.00    +0.046 A 
ENDBRANCH  17  21
BRANCH  12  16
ATOM      2  O   UNL     1       0.760  -1.510  24.914  0.00  0.00    -0.274 OA
ATOM     10  N   UNL     1      -1.009  -2.053  23.502  0.00  0.00    -0.301 N 
ATOM     16  C   UNL     1       0.170  -1.413  23.841  0.00  0.00    +0.236 C 
ATOM     40  H   UNL     1      -1.361  -1.966  22.553  0.00  0.00    +0.150 HD
BRANCH  10  19
ATOM     19  C   UNL     1      -1.712  -2.943  24.398  0.00  0.00    +0.186 C 
BRANCH  19  22
ATOM      6  O   UNL     1      -2.641  -4.409  22.717  0.00  0.00    -0.249 OA
ATOM     22  C   UNL     1      -2.834  -3.701  23.700  0.00  0.00    +0.328 C 
BRANCH  22   5
ATOM      5  O   UNL     1      -4.044  -3.482  24.285  0.00  0.00    -0.467 OA
ATOM     35  C   UNL     1      -5.154  -3.363  23.389  0.00  0.00    +0.280 C 
ENDBRANCH  22   5
ENDBRANCH  19  22
BRANCH  19  20
ATOM     20  C   UNL     1      -2.210  -2.199  25.646  0.00  0.00    +0.069 C 
BRANCH  20  23
ATOM     23  C   UNL     1      -3.239  -1.125  25.373  0.00  0.00    -0.045 A 
ATOM     26  C   UNL     1      -3.680  -0.896  24.069  0.00  0.00    +0.007 A 
ATOM     27  C   UNL     1      -3.745  -0.361  26.425  0.00  0.00    +0.007 A 
ATOM     32  C   UNL     1      -4.628   0.095  23.817  0.00  0.00    +0.046 A 
ATOM     33  C   UNL     1      -4.693   0.631  26.173  0.00  0.00    +0.046 A 
ATOM     34  C   UNL     1      -5.135   0.858  24.870  0.00  0.00    +0.120 A 
BRANCH  34   7
ATOM      7  O   UNL     1      -6.059   1.826  24.623  0.00  0.00    -0.495 OA
ATOM     39  C   UNL     1      -6.810   2.306  25.739  0.00  0.00    +0.277 C 
ENDBRANCH  34   7
ENDBRANCH  20  23
ENDBRANCH  19  20
ENDBRANCH  10  19
ENDBRANCH  12  16
TORSDOF 9
ENDMDL
