MODEL 1
REMARK VINA RESULT:      -7.0      0.000      0.000
REMARK  Name = 56775536
REMARK  8 active torsions:
REMARK  status: ('A' for Active; 'I' for Inactive)
REMARK    1  A    between atoms: O_4  and  C_18
REMARK    2  A    between atoms: O_4  and  C_22
REMARK    3  A    between atoms: N_5  and  C_7
REMARK    4  A    between atoms: N_5  and  C_11
REMARK    5  A    between atoms: C_7  and  C_10
REMARK    6  A    between atoms: C_10  and  C_12
REMARK    7  A    between atoms: C_11  and  C_13
REMARK    8  A    between atoms: C_15  and  C_18
REMARK                            x       y       z     vdW  Elec       q    Type
REMARK                         _______ _______ _______ _____ _____    ______ ____
ROOT
ATOM      2  O   UNL     1      -3.210  -2.890  24.935  0.00  0.00    -0.376 OA
ATOM      7  C   UNL     1      -2.454  -0.901  24.765  0.00  0.00    +0.072 C 
ATOM      8  C   UNL     1      -3.589  -1.612  25.493  0.00  0.00    +0.184 C 
ATOM      9  C   UNL     1      -2.059  -2.296  24.292  0.00  0.00    +0.184 C 
ENDROOT
BRANCH   7   5
ATOM      5  N   UNL     1      -3.012  -0.159  23.630  0.00  0.00    -0.302 NA
ATOM     23  H   UNL     1      -2.708  -0.479  22.712  0.00  0.00    +0.123 HD
BRANCH   5  11
ATOM     11  C   UNL     1      -2.712   1.262  23.793  0.00  0.00    +0.118 C 
BRANCH  11  13
ATOM      1 CL   UNL     1      -2.072   4.042  24.966  0.00  0.00    -0.083 Cl
ATOM     13  C   UNL     1      -3.811   1.996  24.493  0.00  0.00    -0.015 A 
ATOM     16  C   UNL     1      -3.607   3.258  25.052  0.00  0.00    +0.045 A 
ATOM     17  C   UNL     1      -5.063   1.389  24.579  0.00  0.00    +0.006 A 
ATOM     19  C   UNL     1      -4.658   3.911  25.697  0.00  0.00    +0.020 A 
ATOM     20  C   UNL     1      -6.113   2.043  25.223  0.00  0.00    +0.000 A 
ATOM     21  C   UNL     1      -5.910   3.304  25.782  0.00  0.00    +0.001 A 
ENDBRANCH  11  13
ENDBRANCH   5  11
ENDBRANCH   7   5
BRANCH   7  10
ATOM     10  C   UNL     1      -1.470  -0.099  25.560  0.00  0.00    +0.085 C 
BRANCH  10  12
ATOM      3  O   UNL     1       1.267   1.548  23.873  0.00  0.00    -0.357 OA
ATOM      6  N   UNL     1       0.193   1.538  24.753  0.00  0.00    -0.083 NA
ATOM     12  C   UNL     1      -0.278   0.288  24.709  0.00  0.00    +0.086 A 
ATOM     14  C   UNL     1       0.451  -0.527  23.827  0.00  0.00    +0.073 A 
ATOM     15  C   UNL     1       1.411   0.313  23.326  0.00  0.00    +0.163 A 
BRANCH  15  18
ATOM     18  C   UNL     1       2.508   0.145  22.366  0.00  0.00    +0.236 C 
BRANCH  18   4
ATOM      4  O   UNL     1       3.592   1.021  22.691  0.00  0.00    -0.375 OA
ATOM     22  C   UNL     1       4.732   0.292  23.112  0.00  0.00    +0.194 C 
ENDBRANCH  18   4
ENDBRANCH  15  18
ENDBRANCH  10  12
ENDBRANCH   7  10
TORSDOF 7
ENDMDL
MODEL 2
REMARK VINA RESULT:      -7.0      2.172      3.030
REMARK  Name = 56775536
REMARK  8 active torsions:
REMARK  status: ('A' for Active; 'I' for Inactive)
REMARK    1  A    between atoms: O_4  and  C_18
REMARK    2  A    between atoms: O_4  and  C_22
REMARK    3  A    between atoms: N_5  and  C_7
REMARK    4  A    between atoms: N_5  and  C_11
REMARK    5  A    between atoms: C_7  and  C_10
REMARK    6  A    between atoms: C_10  and  C_12
REMARK    7  A    between atoms: C_11  and  C_13
REMARK    8  A    between atoms: C_15  and  C_18
REMARK                            x       y       z     vdW  Elec       q    Type
REMARK                         _______ _______ _______ _____ _____    ______ ____
ROOT
ATOM      2  O   UNL     1      -3.319  -3.307  24.800  0.00  0.00    -0.376 OA
ATOM      7  C   UNL     1      -2.331  -1.418  24.908  0.00  0.00    +0.072 C 
ATOM      8  C   UNL     1      -3.589  -2.060  25.480  0.00  0.00    +0.184 C 
ATOM      9  C   UNL     1      -2.065  -2.790  24.299  0.00  0.00    +0.184 C 
ENDROOT
BRANCH   7   5
ATOM      5  N   UNL     1      -2.718  -0.495  23.837  0.00  0.00    -0.302 NA
ATOM     23  H   UNL     1      -2.180   0.369  23.793  0.00  0.00    +0.123 HD
BRANCH   5  11
ATOM     11  C   UNL     1      -4.144  -0.194  23.955  0.00  0.00    +0.118 C 
BRANCH  11  13
ATOM      1 CL   UNL     1      -2.746   2.055  22.375  0.00  0.00    -0.083 Cl
ATOM     13  C   UNL     1      -4.391   1.218  24.380  0.00  0.00    -0.015 A 
ATOM     16  C   UNL     1      -3.799   2.295  23.721  0.00  0.00    +0.045 A 
ATOM     17  C   UNL     1      -5.239   1.444  25.464  0.00  0.00    +0.006 A 
ATOM     19  C   UNL     1      -4.055   3.599  24.147  0.00  0.00    +0.020 A 
ATOM     20  C   UNL     1      -5.494   2.748  25.890  0.00  0.00    +0.000 A 
ATOM     21  C   UNL     1      -4.903   3.825  25.231  0.00  0.00    +0.001 A 
ENDBRANCH  11  13
ENDBRANCH   5  11
ENDBRANCH   7   5
BRANCH   7  10
ATOM     10  C   UNL     1      -1.321  -0.832  25.846  0.00  0.00    +0.085 C 
BRANCH  10  12
ATOM      3  O   UNL     1       0.347   1.841  24.079  0.00  0.00    -0.357 OA
ATOM      6  N   UNL     1       0.082   0.497  24.311  0.00  0.00    -0.083 NA
ATOM     12  C   UNL     1      -0.796   0.486  25.318  0.00  0.00    +0.086 A 
ATOM     14  C   UNL     1      -1.120   1.781  25.757  0.00  0.00    +0.073 A 
ATOM     15  C   UNL     1      -0.375   2.596  24.946  0.00  0.00    +0.163 A 
BRANCH  15  18
ATOM     18  C   UNL     1      -0.214   4.051  24.838  0.00  0.00    +0.236 C 
BRANCH  18   4
ATOM      4  O   UNL     1      -1.316   4.720  25.460  0.00  0.00    -0.375 OA
ATOM     22  C   UNL     1      -1.481   6.028  24.940  0.00  0.00    +0.194 C 
ENDBRANCH  18   4
ENDBRANCH  15  18
ENDBRANCH  10  12
ENDBRANCH   7  10
TORSDOF 7
ENDMDL
MODEL 3
REMARK VINA RESULT:      -6.9      1.189      1.602
REMARK  Name = 56775536
REMARK  8 active torsions:
REMARK  status: ('A' for Active; 'I' for Inactive)
REMARK    1  A    between atoms: O_4  and  C_18
REMARK    2  A    between atoms: O_4  and  C_22
REMARK    3  A    between atoms: N_5  and  C_7
REMARK    4  A    between atoms: N_5  and  C_11
REMARK    5  A    between atoms: C_7  and  C_10
REMARK    6  A    between atoms: C_10  and  C_12
REMARK    7  A    between atoms: C_11  and  C_13
REMARK    8  A    between atoms: C_15  and  C_18
REMARK                            x       y       z     vdW  Elec       q    Type
REMARK                         _______ _______ _______ _____ _____    ______ ____
ROOT
ATOM      2  O   UNL     1      -1.323  -2.564  25.300  0.00  0.00    -0.376 OA
ATOM      7  C   UNL     1      -1.128  -0.619  24.444  0.00  0.00    +0.072 C 
ATOM      8  C   UNL     1      -0.241  -1.614  25.183  0.00  0.00    +0.184 C 
ATOM      9  C   UNL     1      -2.192  -1.707  24.523  0.00  0.00    +0.184 C 
ENDROOT
BRANCH   7   5
ATOM      5  N   UNL     1      -1.492   0.463  25.364  0.00  0.00    -0.302 NA
ATOM     23  H   UNL     1      -2.224   0.235  26.034  0.00  0.00    +0.123 HD
BRANCH   5  11
ATOM     11  C   UNL     1      -1.869   1.644  24.590  0.00  0.00    +0.118 C 
BRANCH  11  13
ATOM      1 CL   UNL     1      -2.166   4.551  25.578  0.00  0.00    -0.083 Cl
ATOM     13  C   UNL     1      -3.241   2.131  24.932  0.00  0.00    -0.015 A 
ATOM     16  C   UNL     1      -3.464   3.431  25.385  0.00  0.00    +0.045 A 
ATOM     17  C   UNL     1      -4.312   1.249  24.787  0.00  0.00    +0.006 A 
ATOM     19  C   UNL     1      -4.760   3.848  25.694  0.00  0.00    +0.020 A 
ATOM     20  C   UNL     1      -5.606   1.667  25.095  0.00  0.00    +0.000 A 
ATOM     21  C   UNL     1      -5.830   2.966  25.549  0.00  0.00    +0.001 A 
ENDBRANCH  11  13
ENDBRANCH   5  11
ENDBRANCH   7   5
BRANCH   7  10
ATOM     10  C   UNL     1      -0.697  -0.120  23.099  0.00  0.00    +0.085 C 
BRANCH  10  12
ATOM      3  O   UNL     1       2.453   1.554  23.664  0.00  0.00    -0.357 OA
ATOM      6  N   UNL     1       1.084   1.415  23.850  0.00  0.00    -0.083 NA
ATOM     12  C   UNL     1       0.745   0.340  23.131  0.00  0.00    +0.086 A 
ATOM     14  C   UNL     1       1.848  -0.234  22.477  0.00  0.00    +0.073 A 
ATOM     15  C   UNL     1       2.898   0.566  22.845  0.00  0.00    +0.163 A 
BRANCH  15  18
ATOM     18  C   UNL     1       4.334   0.563  22.541  0.00  0.00    +0.236 C 
BRANCH  18   4
ATOM      4  O   UNL     1       5.095   0.711  23.743  0.00  0.00    -0.375 OA
ATOM     22  C   UNL     1       5.488  -0.550  24.260  0.00  0.00    +0.194 C 
ENDBRANCH  18   4
ENDBRANCH  15  18
ENDBRANCH  10  12
ENDBRANCH   7  10
TORSDOF 7
ENDMDL
MODEL 4
REMARK VINA RESULT:      -6.8      2.548      4.621
REMARK  Name = 56775536
REMARK  8 active torsions:
REMARK  status: ('A' for Active; 'I' for Inactive)
REMARK    1  A    between atoms: O_4  and  C_18
REMARK    2  A    between atoms: O_4  and  C_22
REMARK    3  A    between atoms: N_5  and  C_7
REMARK    4  A    between atoms: N_5  and  C_11
REMARK    5  A    between atoms: C_7  and  C_10
REMARK    6  A    between atoms: C_10  and  C_12
REMARK    7  A    between atoms: C_11  and  C_13
REMARK    8  A    between atoms: C_15  and  C_18
REMARK                            x       y       z     vdW  Elec       q    Type
REMARK                         _______ _______ _______ _____ _____    ______ ____
ROOT
ATOM      2  O   UNL     1      -6.268   3.380  25.734  0.00  0.00    -0.376 OA
ATOM      7  C   UNL     1      -4.500   2.509  24.914  0.00  0.00    +0.072 C 
ATOM      8  C   UNL     1      -6.005   2.282  24.832  0.00  0.00    +0.184 C 
ATOM      9  C   UNL     1      -4.861   3.710  25.782  0.00  0.00    +0.184 C 
ENDROOT
BRANCH   7   5
ATOM      5  N   UNL     1      -3.912   1.472  25.765  0.00  0.00    -0.302 NA
ATOM     23  H   UNL     1      -2.902   1.529  25.884  0.00  0.00    +0.123 HD
BRANCH   5  11
ATOM     11  C   UNL     1      -4.283   0.157  25.245  0.00  0.00    +0.118 C 
BRANCH  11  13
ATOM      1 CL   UNL     1      -4.609  -2.424  23.588  0.00  0.00    -0.083 Cl
ATOM     13  C   UNL     1      -3.109  -0.764  25.145  0.00  0.00    -0.015 A 
ATOM     16  C   UNL     1      -3.171  -1.952  24.416  0.00  0.00    +0.045 A 
ATOM     17  C   UNL     1      -1.932  -0.410  25.804  0.00  0.00    +0.006 A 
ATOM     19  C   UNL     1      -2.053  -2.785  24.347  0.00  0.00    +0.020 A 
ATOM     20  C   UNL     1      -0.815  -1.244  25.733  0.00  0.00    +0.000 A 
ATOM     21  C   UNL     1      -0.876  -2.431  25.005  0.00  0.00    +0.001 A 
ENDBRANCH  11  13
ENDBRANCH   5  11
ENDBRANCH   7   5
BRANCH   7  10
ATOM     10  C   UNL     1      -3.729   2.734  23.650  0.00  0.00    +0.085 C 
BRANCH  10  12
ATOM      3  O   UNL     1      -0.296   3.029  24.735  0.00  0.00    -0.357 OA
ATOM      6  N   UNL     1      -1.627   3.427  24.742  0.00  0.00    -0.083 NA
ATOM     12  C   UNL     1      -2.241   2.595  23.895  0.00  0.00    +0.086 A 
ATOM     14  C   UNL     1      -1.357   1.661  23.330  0.00  0.00    +0.073 A 
ATOM     15  C   UNL     1      -0.147   1.977  23.890  0.00  0.00    +0.163 A 
BRANCH  15  18
ATOM     18  C   UNL     1       1.207   1.426  23.761  0.00  0.00    +0.236 C 
BRANCH  18   4
ATOM      4  O   UNL     1       1.174   0.186  23.049  0.00  0.00    -0.375 OA
ATOM     22  C   UNL     1       2.387  -0.039  22.352  0.00  0.00    +0.194 C 
ENDBRANCH  18   4
ENDBRANCH  15  18
ENDBRANCH  10  12
ENDBRANCH   7  10
TORSDOF 7
ENDMDL
MODEL 5
REMARK VINA RESULT:      -6.4      2.217      4.140
REMARK  Name = 56775536
REMARK  8 active torsions:
REMARK  status: ('A' for Active; 'I' for Inactive)
REMARK    1  A    between atoms: O_4  and  C_18
REMARK    2  A    between atoms: O_4  and  C_22
REMARK    3  A    between atoms: N_5  and  C_7
REMARK    4  A    between atoms: N_5  and  C_11
REMARK    5  A    between atoms: C_7  and  C_10
REMARK    6  A    between atoms: C_10  and  C_12
REMARK    7  A    between atoms: C_11  and  C_13
REMARK    8  A    between atoms: C_15  and  C_18
REMARK                            x       y       z     vdW  Elec       q    Type
REMARK                         _______ _______ _______ _____ _____    ______ ____
ROOT
ATOM      2  O   UNL     1      -5.451   3.597  25.611  0.00  0.00    -0.376 OA
ATOM      7  C   UNL     1      -3.793   2.562  24.753  0.00  0.00    +0.072 C 
ATOM      8  C   UNL     1      -5.314   2.480  24.705  0.00  0.00    +0.184 C 
ATOM      9  C   UNL     1      -4.018   3.790  25.628  0.00  0.00    +0.184 C 
ENDROOT
BRANCH   7   5
ATOM      5  N   UNL     1      -3.288   1.472  25.593  0.00  0.00    -0.302 NA
ATOM     23  H   UNL     1      -2.362   1.127  25.346  0.00  0.00    +0.123 HD
BRANCH   5  11
ATOM     11  C   UNL     1      -4.253   0.373  25.584  0.00  0.00    +0.118 C 
BRANCH  11  13
ATOM      1 CL   UNL     1      -1.381  -0.418  26.382  0.00  0.00    -0.083 Cl
ATOM     13  C   UNL     1      -3.681  -0.877  24.995  0.00  0.00    -0.015 A 
ATOM     16  C   UNL     1      -2.391  -1.307  25.302  0.00  0.00    +0.045 A 
ATOM     17  C   UNL     1      -4.474  -1.618  24.119  0.00  0.00    +0.006 A 
ATOM     19  C   UNL     1      -1.894  -2.480  24.732  0.00  0.00    +0.020 A 
ATOM     20  C   UNL     1      -3.976  -2.790  23.550  0.00  0.00    +0.000 A 
ATOM     21  C   UNL     1      -2.686  -3.221  23.856  0.00  0.00    +0.001 A 
ENDBRANCH  11  13
ENDBRANCH   5  11
ENDBRANCH   7   5
BRANCH   7  10
ATOM     10  C   UNL     1      -3.031   2.713  23.473  0.00  0.00    +0.085 C 
BRANCH  10  12
ATOM      3  O   UNL     1       0.412   1.883  24.184  0.00  0.00    -0.357 OA
ATOM      6  N   UNL     1      -0.697   2.714  24.277  0.00  0.00    -0.083 NA
ATOM     12  C   UNL     1      -1.656   2.089  23.587  0.00  0.00    +0.086 A 
ATOM     14  C   UNL     1      -1.214   0.871  23.043  0.00  0.00    +0.073 A 
ATOM     15  C   UNL     1       0.092   0.789  23.447  0.00  0.00    +0.163 A 
BRANCH  15  18
ATOM     18  C   UNL     1       1.157  -0.201  23.248  0.00  0.00    +0.236 C 
BRANCH  18   4
ATOM      4  O   UNL     1       2.031   0.213  22.194  0.00  0.00    -0.375 OA
ATOM     22  C   UNL     1       3.319   0.534  22.691  0.00  0.00    +0.194 C 
ENDBRANCH  18   4
ENDBRANCH  15  18
ENDBRANCH  10  12
ENDBRANCH   7  10
TORSDOF 7
ENDMDL
MODEL 6
REMARK VINA RESULT:      -5.7      2.622      5.793
REMARK  Name = 56775536
REMARK  8 active torsions:
REMARK  status: ('A' for Active; 'I' for Inactive)
REMARK    1  A    between atoms: O_4  and  C_18
REMARK    2  A    between atoms: O_4  and  C_22
REMARK    3  A    between atoms: N_5  and  C_7
REMARK    4  A    between atoms: N_5  and  C_11
REMARK    5  A    between atoms: C_7  and  C_10
REMARK    6  A    between atoms: C_10  and  C_12
REMARK    7  A    between atoms: C_11  and  C_13
REMARK    8  A    between atoms: C_15  and  C_18
REMARK                            x       y       z     vdW  Elec       q    Type
REMARK                         _______ _______ _______ _____ _____    ______ ____
ROOT
ATOM      2  O   UNL     1       0.849   0.159  22.550  0.00  0.00    -0.376 OA
ATOM      7  C   UNL     1       0.129   1.298  24.205  0.00  0.00    +0.072 C 
ATOM      8  C   UNL     1       1.479   0.915  23.609  0.00  0.00    +0.184 C 
ATOM      9  C   UNL     1      -0.462   0.562  23.008  0.00  0.00    +0.184 C 
ENDROOT
BRANCH   7   5
ATOM      5  N   UNL     1      -0.099   0.496  25.411  0.00  0.00    -0.302 NA
ATOM     23  H   UNL     1       0.201  -0.476  25.348  0.00  0.00    +0.123 HD
BRANCH   5  11
ATOM     11  C   UNL     1      -1.514   0.563  25.771  0.00  0.00    +0.118 C 
BRANCH  11  13
ATOM      1 CL   UNL     1      -0.163  -2.199  25.531  0.00  0.00    -0.083 Cl
ATOM     13  C   UNL     1      -2.306  -0.554  25.169  0.00  0.00    -0.015 A 
ATOM     16  C   UNL     1      -1.772  -1.834  25.024  0.00  0.00    +0.045 A 
ATOM     17  C   UNL     1      -3.609  -0.290  24.749  0.00  0.00    +0.006 A 
ATOM     19  C   UNL     1      -2.542  -2.850  24.458  0.00  0.00    +0.020 A 
ATOM     20  C   UNL     1      -4.379  -1.306  24.184  0.00  0.00    +0.000 A 
ATOM     21  C   UNL     1      -3.846  -2.586  24.038  0.00  0.00    +0.001 A 
ENDBRANCH  11  13
ENDBRANCH   5  11
ENDBRANCH   7   5
BRANCH   7  10
ATOM     10  C   UNL     1      -0.195   2.747  24.399  0.00  0.00    +0.085 C 
BRANCH  10  12
ATOM      3  O   UNL     1      -3.704   2.995  23.574  0.00  0.00    -0.357 OA
ATOM      6  N   UNL     1      -2.387   2.677  23.266  0.00  0.00    -0.083 NA
ATOM     12  C   UNL     1      -1.693   2.972  24.369  0.00  0.00    +0.086 A 
ATOM     14  C   UNL     1      -2.510   3.475  25.395  0.00  0.00    +0.073 A 
ATOM     15  C   UNL     1      -3.765   3.470  24.845  0.00  0.00    +0.163 A 
BRANCH  15  18
ATOM     18  C   UNL     1      -5.092   3.857  25.337  0.00  0.00    +0.236 C 
BRANCH  18   4
ATOM      4  O   UNL     1      -5.563   2.905  26.296  0.00  0.00    -0.375 OA
ATOM     22  C   UNL     1      -6.234   1.829  25.663  0.00  0.00    +0.194 C 
ENDBRANCH  18   4
ENDBRANCH  15  18
ENDBRANCH  10  12
ENDBRANCH   7  10
TORSDOF 7
ENDMDL
MODEL 7
REMARK VINA RESULT:      -5.2      3.056      4.991
REMARK  Name = 56775536
REMARK  8 active torsions:
REMARK  status: ('A' for Active; 'I' for Inactive)
REMARK    1  A    between atoms: O_4  and  C_18
REMARK    2  A    between atoms: O_4  and  C_22
REMARK    3  A    between atoms: N_5  and  C_7
REMARK    4  A    between atoms: N_5  and  C_11
REMARK    5  A    between atoms: C_7  and  C_10
REMARK    6  A    between atoms: C_10  and  C_12
REMARK    7  A    between atoms: C_11  and  C_13
REMARK    8  A    between atoms: C_15  and  C_18
REMARK                            x       y       z     vdW  Elec       q    Type
REMARK                         _______ _______ _______ _____ _____    ______ ____
ROOT
ATOM      2  O   UNL     1      -5.876   3.497  25.624  0.00  0.00    -0.376 OA
ATOM      7  C   UNL     1      -3.916   2.918  25.007  0.00  0.00    +0.072 C 
ATOM      8  C   UNL     1      -5.308   3.002  24.390  0.00  0.00    +0.184 C 
ATOM      9  C   UNL     1      -4.569   3.531  26.241  0.00  0.00    +0.184 C 
ENDROOT
BRANCH   7   5
ATOM      5  N   UNL     1      -3.608   1.513  25.285  0.00  0.00    -0.302 NA
ATOM     23  H   UNL     1      -2.898   1.358  26.000  0.00  0.00    +0.123 HD
BRANCH   5  11
ATOM     11  C   UNL     1      -3.220   0.851  24.041  0.00  0.00    +0.118 C 
BRANCH  11  13
ATOM      1 CL   UNL     1      -0.593  -0.447  25.002  0.00  0.00    -0.083 Cl
ATOM     13  C   UNL     1      -3.184  -0.638  24.178  0.00  0.00    -0.015 A 
ATOM     16  C   UNL     1      -2.037  -1.305  24.607  0.00  0.00    +0.045 A 
ATOM     17  C   UNL     1      -4.336  -1.359  23.867  0.00  0.00    +0.006 A 
ATOM     19  C   UNL     1      -2.043  -2.696  24.723  0.00  0.00    +0.020 A 
ATOM     20  C   UNL     1      -4.342  -2.749  23.984  0.00  0.00    +0.000 A 
ATOM     21  C   UNL     1      -3.195  -3.418  24.412  0.00  0.00    +0.001 A 
ENDBRANCH  11  13
ENDBRANCH   5  11
ENDBRANCH   7   5
BRANCH   7  10
ATOM     10  C   UNL     1      -2.784   3.645  24.348  0.00  0.00    +0.085 C 
BRANCH  10  12
ATOM      3  O   UNL     1       0.619   2.667  25.063  0.00  0.00    -0.357 OA
ATOM      6  N   UNL     1      -0.413   2.978  24.187  0.00  0.00    -0.083 NA
ATOM     12  C   UNL     1      -1.460   3.255  24.970  0.00  0.00    +0.086 A 
ATOM     14  C   UNL     1      -1.151   3.136  26.336  0.00  0.00    +0.073 A 
ATOM     15  C   UNL     1       0.168   2.764  26.340  0.00  0.00    +0.163 A 
BRANCH  15  18
ATOM     18  C   UNL     1       1.137   2.467  27.402  0.00  0.00    +0.236 C 
BRANCH  18   4
ATOM      4  O   UNL     1       0.500   2.515  28.682  0.00  0.00    -0.375 OA
ATOM     22  C   UNL     1       1.447   2.396  29.731  0.00  0.00    +0.194 C 
ENDBRANCH  18   4
ENDBRANCH  15  18
ENDBRANCH  10  12
ENDBRANCH   7  10
TORSDOF 7
ENDMDL
MODEL 8
REMARK VINA RESULT:      -5.1     15.657     17.842
REMARK  Name = 56775536
REMARK  8 active torsions:
REMARK  status: ('A' for Active; 'I' for Inactive)
REMARK    1  A    between atoms: O_4  and  C_18
REMARK    2  A    between atoms: O_4  and  C_22
REMARK    3  A    between atoms: N_5  and  C_7
REMARK    4  A    between atoms: N_5  and  C_11
REMARK    5  A    between atoms: C_7  and  C_10
REMARK    6  A    between atoms: C_10  and  C_12
REMARK    7  A    between atoms: C_11  and  C_13
REMARK    8  A    between atoms: C_15  and  C_18
REMARK                            x       y       z     vdW  Elec       q    Type
REMARK                         _______ _______ _______ _____ _____    ______ ____
ROOT
ATOM      2  O   UNL     1      -3.558  -8.808  10.247  0.00  0.00    -0.376 OA
ATOM      7  C   UNL     1      -5.507  -9.484  10.794  0.00  0.00    +0.072 C 
ATOM      8  C   UNL     1      -4.888  -8.254  10.140  0.00  0.00    +0.184 C 
ATOM      9  C   UNL     1      -4.088 -10.041  10.787  0.00  0.00    +0.184 C 
ENDROOT
BRANCH   7   5
ATOM      5  N   UNL     1      -5.875  -9.149  12.173  0.00  0.00    -0.302 NA
ATOM     23  H   UNL     1      -5.192  -8.589  12.681  0.00  0.00    +0.123 HD
BRANCH   5  11
ATOM     11  C   UNL     1      -6.159 -10.382  12.906  0.00  0.00    +0.118 C 
BRANCH  11  13
ATOM      1 CL   UNL     1      -8.097  -9.635  15.185  0.00  0.00    -0.083 Cl
ATOM     13  C   UNL     1      -5.620 -10.349  14.301  0.00  0.00    -0.015 A 
ATOM     16  C   UNL     1      -6.428 -10.021  15.389  0.00  0.00    +0.045 A 
ATOM     17  C   UNL     1      -4.275 -10.657  14.498  0.00  0.00    +0.006 A 
ATOM     19  C   UNL     1      -5.888 -10.002  16.676  0.00  0.00    +0.020 A 
ATOM     20  C   UNL     1      -3.736 -10.637  15.784  0.00  0.00    +0.000 A 
ATOM     21  C   UNL     1      -4.542 -10.309  16.873  0.00  0.00    +0.001 A 
ENDBRANCH  11  13
ENDBRANCH   5  11
ENDBRANCH   7   5
BRANCH   7  10
ATOM     10  C   UNL     1      -6.583 -10.230  10.068  0.00  0.00    +0.085 C 
BRANCH  10  12
ATOM      3  O   UNL     1      -9.750  -8.497  10.209  0.00  0.00    -0.357 OA
ATOM      6  N   UNL     1      -8.831  -9.420  10.690  0.00  0.00    -0.083 NA
ATOM     12  C   UNL     1      -7.796  -9.349   9.848  0.00  0.00    +0.086 A 
ATOM     14  C   UNL     1      -8.003  -8.408   8.826  0.00  0.00    +0.073 A 
ATOM     15  C   UNL     1      -9.246  -7.900   9.098  0.00  0.00    +0.163 A 
BRANCH  15  18
ATOM     18  C   UNL     1     -10.094  -6.889   8.455  0.00  0.00    +0.236 C 
BRANCH  18   4
ATOM      4  O   UNL     1      -9.391  -5.648   8.347  0.00  0.00    -0.375 OA
ATOM     22  C   UNL     1     -10.154  -4.578   8.880  0.00  0.00    +0.194 C 
ENDBRANCH  18   4
ENDBRANCH  15  18
ENDBRANCH  10  12
ENDBRANCH   7  10
TORSDOF 7
ENDMDL
MODEL 9
REMARK VINA RESULT:      -5.1      2.896      5.330
REMARK  Name = 56775536
REMARK  8 active torsions:
REMARK  status: ('A' for Active; 'I' for Inactive)
REMARK    1  A    between atoms: O_4  and  C_18
REMARK    2  A    between atoms: O_4  and  C_22
REMARK    3  A    between atoms: N_5  and  C_7
REMARK    4  A    between atoms: N_5  and  C_11
REMARK    5  A    between atoms: C_7  and  C_10
REMARK    6  A    between atoms: C_10  and  C_12
REMARK    7  A    between atoms: C_11  and  C_13
REMARK    8  A    between atoms: C_15  and  C_18
REMARK                            x       y       z     vdW  Elec       q    Type
REMARK                         _______ _______ _______ _____ _____    ______ ____
ROOT
ATOM      2  O   UNL     1      -3.406  -3.404  24.575  0.00  0.00    -0.376 OA
ATOM      7  C   UNL     1      -3.000  -1.318  24.384  0.00  0.00    +0.072 C 
ATOM      8  C   UNL     1      -2.235  -2.628  24.239  0.00  0.00    +0.184 C 
ATOM      9  C   UNL     1      -4.213  -2.206  24.637  0.00  0.00    +0.184 C 
ENDROOT
BRANCH   7   5
ATOM      5  N   UNL     1      -2.611  -0.681  25.646  0.00  0.00    -0.302 NA
ATOM     23  H   UNL     1      -3.028   0.233  25.818  0.00  0.00    +0.123 HD
BRANCH   5  11
ATOM     11  C   UNL     1      -1.153  -0.588  25.707  0.00  0.00    +0.118 C 
BRANCH  11  13
ATOM      1 CL   UNL     1       0.561  -0.422  23.149  0.00  0.00    -0.083 Cl
ATOM     13  C   UNL     1      -0.653   0.756  25.285  0.00  0.00    -0.015 A 
ATOM     16  C   UNL     1       0.127   0.921  24.142  0.00  0.00    +0.045 A 
ATOM     17  C   UNL     1      -0.987   1.862  26.067  0.00  0.00    +0.006 A 
ATOM     19  C   UNL     1       0.575   2.193  23.781  0.00  0.00    +0.020 A 
ATOM     20  C   UNL     1      -0.540   3.132  25.706  0.00  0.00    +0.000 A 
ATOM     21  C   UNL     1       0.241   3.298  24.563  0.00  0.00    +0.001 A 
ENDBRANCH  11  13
ENDBRANCH   5  11
ENDBRANCH   7   5
BRANCH   7  10
ATOM     10  C   UNL     1      -3.029  -0.360  23.233  0.00  0.00    +0.085 C 
BRANCH  10  12
ATOM      3  O   UNL     1      -3.816   3.134  23.699  0.00  0.00    -0.357 OA
ATOM      6  N   UNL     1      -3.125   2.101  23.079  0.00  0.00    -0.083 NA
ATOM     12  C   UNL     1      -3.571   0.986  23.665  0.00  0.00    +0.086 A 
ATOM     14  C   UNL     1      -4.535   1.250  24.652  0.00  0.00    +0.073 A 
ATOM     15  C   UNL     1      -4.653   2.616  24.634  0.00  0.00    +0.163 A 
BRANCH  15  18
ATOM     18  C   UNL     1      -5.467   3.575  25.390  0.00  0.00    +0.236 C 
BRANCH  18   4
ATOM      4  O   UNL     1      -4.904   3.791  26.687  0.00  0.00    -0.375 OA
ATOM     22  C   UNL     1      -3.591   4.319  26.595  0.00  0.00    +0.194 C 
ENDBRANCH  18   4
ENDBRANCH  15  18
ENDBRANCH  10  12
ENDBRANCH   7  10
TORSDOF 7
ENDMDL
MODEL 10
REMARK VINA RESULT:      -5.1      2.237      4.037
REMARK  Name = 56775536
REMARK  8 active torsions:
REMARK  status: ('A' for Active; 'I' for Inactive)
REMARK    1  A    between atoms: O_4  and  C_18
REMARK    2  A    between atoms: O_4  and  C_22
REMARK    3  A    between atoms: N_5  and  C_7
REMARK    4  A    between atoms: N_5  and  C_11
REMARK    5  A    between atoms: C_7  and  C_10
REMARK    6  A    between atoms: C_10  and  C_12
REMARK    7  A    between atoms: C_11  and  C_13
REMARK    8  A    between atoms: C_15  and  C_18
REMARK                            x       y       z     vdW  Elec       q    Type
REMARK                         _______ _______ _______ _____ _____    ______ ____
ROOT
ATOM      2  O   UNL     1      -1.622   4.766  25.511  0.00  0.00    -0.376 OA
ATOM      7  C   UNL     1      -1.674   2.816  24.643  0.00  0.00    +0.072 C 
ATOM      8  C   UNL     1      -2.643   3.971  24.867  0.00  0.00    +0.184 C 
ATOM      9  C   UNL     1      -0.629   3.748  25.247  0.00  0.00    +0.184 C 
ENDROOT
BRANCH   7   5
ATOM      5  N   UNL     1      -1.974   1.755  25.609  0.00  0.00    -0.302 NA
ATOM     23  H   UNL     1      -1.323   0.972  25.609  0.00  0.00    +0.123 HD
BRANCH   5  11
ATOM     11  C   UNL     1      -3.337   1.276  25.387  0.00  0.00    +0.118 C 
BRANCH  11  13
ATOM      1 CL   UNL     1      -1.155  -0.581  26.528  0.00  0.00    -0.083 Cl
ATOM     13  C   UNL     1      -3.374  -0.168  25.000  0.00  0.00    -0.015 A 
ATOM     16  C   UNL     1      -2.426  -1.076  25.471  0.00  0.00    +0.045 A 
ATOM     17  C   UNL     1      -4.389  -0.599  24.147  0.00  0.00    +0.006 A 
ATOM     19  C   UNL     1      -2.494  -2.416  25.087  0.00  0.00    +0.020 A 
ATOM     20  C   UNL     1      -4.457  -1.938  23.763  0.00  0.00    +0.000 A 
ATOM     21  C   UNL     1      -3.510  -2.847  24.233  0.00  0.00    +0.001 A 
ENDBRANCH  11  13
ENDBRANCH   5  11
ENDBRANCH   7   5
BRANCH   7  10
ATOM     10  C   UNL     1      -1.468   2.298  23.253  0.00  0.00    +0.085 C 
BRANCH  10  12
ATOM      3  O   UNL     1       0.565  -0.683  23.086  0.00  0.00    -0.357 OA
ATOM      6  N   UNL     1      -0.659  -0.027  23.074  0.00  0.00    -0.083 NA
ATOM     12  C   UNL     1      -0.359   1.267  23.222  0.00  0.00    +0.086 A 
ATOM     14  C   UNL     1       1.024   1.485  23.330  0.00  0.00    +0.073 A 
ATOM     15  C   UNL     1       1.561   0.227  23.239  0.00  0.00    +0.163 A 
BRANCH  15  18
ATOM     18  C   UNL     1       2.930  -0.299  23.272  0.00  0.00    +0.236 C 
BRANCH  18   4
ATOM      4  O   UNL     1       3.854   0.694  22.817  0.00  0.00    -0.375 OA
ATOM     22  C   UNL     1       5.147   0.479  23.359  0.00  0.00    +0.194 C 
ENDBRANCH  18   4
ENDBRANCH  15  18
ENDBRANCH  10  12
ENDBRANCH   7  10
TORSDOF 7
ENDMDL
