MODEL 1
REMARK VINA RESULT:      -3.5      0.000      0.000
REMARK  Name = 56775498
REMARK  7 active torsions:
REMARK  status: ('A' for Active; 'I' for Inactive)
REMARK    1  A    between atoms: O_4  and  C_16
REMARK    2  A    between atoms: N_5  and  C_7
REMARK    3  A    between atoms: N_5  and  C_11
REMARK    4  A    between atoms: C_7  and  C_10
REMARK    5  A    between atoms: C_10  and  C_12
REMARK    6  A    between atoms: C_11  and  C_13
REMARK    7  A    between atoms: C_15  and  C_18
REMARK                            x       y       z     vdW  Elec       q    Type
REMARK                         _______ _______ _______ _____ _____    ______ ____
ROOT
ATOM      2  O   UNL     1      -6.400   3.306  25.947  0.00  0.00    -0.376 OA
ATOM      7  C   UNL     1      -4.705   2.424  24.995  0.00  0.00    +0.072 C 
ATOM      8  C   UNL     1      -6.220   2.253  24.974  0.00  0.00    +0.184 C 
ATOM      9  C   UNL     1      -4.981   3.584  25.945  0.00  0.00    +0.184 C 
ENDROOT
BRANCH   7   5
ATOM      5  N   UNL     1      -4.121   1.328  25.754  0.00  0.00    -0.302 NA
ATOM     27  H   UNL     1      -4.384   1.293  26.739  0.00  0.00    +0.123 HD
BRANCH   5  11
ATOM     11  C   UNL     1      -4.445   0.055  25.112  0.00  0.00    +0.120 C 
BRANCH  11  13
ATOM     13  C   UNL     1      -3.250  -0.860  25.049  0.00  0.00    +0.008 A 
ATOM     16  C   UNL     1      -3.297  -2.045  24.314  0.00  0.00    +0.121 A 
ATOM     17  C   UNL     1      -2.087  -0.511  25.735  0.00  0.00    +0.008 A 
ATOM     19  C   UNL     1      -2.183  -2.880  24.264  0.00  0.00    +0.046 A 
ATOM     20  C   UNL     1      -0.971  -1.347  25.686  0.00  0.00    +0.001 A 
ATOM     21  C   UNL     1      -1.019  -2.531  24.951  0.00  0.00    +0.004 A 
BRANCH  16   4
ATOM      4  O   UNL     1      -4.426  -2.400  23.638  0.00  0.00    -0.506 OA
ATOM     28  H   UNL     1      -4.929  -3.039  24.172  0.00  0.00    +0.292 HD
ENDBRANCH  16   4
ENDBRANCH  11  13
ENDBRANCH   5  11
ENDBRANCH   7   5
BRANCH   7  10
ATOM     10  C   UNL     1      -3.968   2.701  23.679  0.00  0.00    +0.085 C 
BRANCH  10  12
ATOM      3  O   UNL     1      -0.525   2.620  24.625  0.00  0.00    -0.354 OA
ATOM      6  N   UNL     1      -1.829   3.074  24.776  0.00  0.00    -0.083 NA
ATOM     12  C   UNL     1      -2.524   2.453  23.817  0.00  0.00    +0.086 A 
ATOM     14  C   UNL     1      -1.717   1.604  23.039  0.00  0.00    +0.076 A 
ATOM     15  C   UNL     1      -0.471   1.747  23.588  0.00  0.00    +0.167 A 
BRANCH  15  18
ATOM      1  F   UNL     1       4.546  -0.423  22.505  0.00  0.00    -0.205 F 
ATOM     18  C   UNL     1       0.829   1.185  23.309  0.00  0.00    +0.020 A 
ATOM     22  C   UNL     1       1.969   1.983  23.403  0.00  0.00    +0.014 A 
ATOM     23  C   UNL     1       0.944  -0.156  22.942  0.00  0.00    +0.014 A 
ATOM     24  C   UNL     1       3.225   1.440  23.131  0.00  0.00    +0.039 A 
ATOM     25  C   UNL     1       2.200  -0.699  22.671  0.00  0.00    +0.039 A 
ATOM     26  C   UNL     1       3.341   0.099  22.766  0.00  0.00    +0.123 A 
ENDBRANCH  15  18
ENDBRANCH  10  12
ENDBRANCH   7  10
TORSDOF 7
ENDMDL
MODEL 2
REMARK VINA RESULT:      -3.2      1.886      2.840
REMARK  Name = 56775498
REMARK  7 active torsions:
REMARK  status: ('A' for Active; 'I' for Inactive)
REMARK    1  A    between atoms: O_4  and  C_16
REMARK    2  A    between atoms: N_5  and  C_7
REMARK    3  A    between atoms: N_5  and  C_11
REMARK    4  A    between atoms: C_7  and  C_10
REMARK    5  A    between atoms: C_10  and  C_12
REMARK    6  A    between atoms: C_11  and  C_13
REMARK    7  A    between atoms: C_15  and  C_18
REMARK                            x       y       z     vdW  Elec       q    Type
REMARK                         _______ _______ _______ _____ _____    ______ ____
ROOT
ATOM      2  O   UNL     1      -2.279   4.680  25.719  0.00  0.00    -0.376 OA
ATOM      7  C   UNL     1      -2.150   2.770  24.774  0.00  0.00    +0.072 C 
ATOM      8  C   UNL     1      -3.217   3.833  25.018  0.00  0.00    +0.184 C 
ATOM      9  C   UNL     1      -1.200   3.759  25.441  0.00  0.00    +0.184 C 
ENDROOT
BRANCH   7   5
ATOM      5  N   UNL     1      -2.381   1.657  25.683  0.00  0.00    -0.302 NA
ATOM     27  H   UNL     1      -2.354   1.894  26.675  0.00  0.00    +0.123 HD
BRANCH   5  11
ATOM     11  C   UNL     1      -3.655   1.015  25.364  0.00  0.00    +0.120 C 
BRANCH  11  13
ATOM     13  C   UNL     1      -3.472  -0.428  24.972  0.00  0.00    +0.008 A 
ATOM     16  C   UNL     1      -2.355  -1.147  25.399  0.00  0.00    +0.121 A 
ATOM     17  C   UNL     1      -4.436  -1.044  24.175  0.00  0.00    +0.008 A 
ATOM     19  C   UNL     1      -2.202  -2.481  25.028  0.00  0.00    +0.046 A 
ATOM     20  C   UNL     1      -4.282  -2.380  23.803  0.00  0.00    +0.001 A 
ATOM     21  C   UNL     1      -3.165  -3.099  24.230  0.00  0.00    +0.004 A 
BRANCH  16   4
ATOM      4  O   UNL     1      -1.405  -0.559  26.179  0.00  0.00    -0.506 OA
ATOM     28  H   UNL     1      -0.546  -0.610  25.726  0.00  0.00    +0.292 HD
ENDBRANCH  16   4
ENDBRANCH  11  13
ENDBRANCH   5  11
ENDBRANCH   7   5
BRANCH   7  10
ATOM     10  C   UNL     1      -1.862   2.319  23.336  0.00  0.00    +0.085 C 
BRANCH  10  12
ATOM      3  O   UNL     1       0.494  -0.351  23.060  0.00  0.00    -0.354 OA
ATOM      6  N   UNL     1      -0.803   0.148  23.051  0.00  0.00    -0.083 NA
ATOM     12  C   UNL     1      -0.670   1.459  23.278  0.00  0.00    +0.086 A 
ATOM     14  C   UNL     1       0.675   1.839  23.437  0.00  0.00    +0.076 A 
ATOM     15  C   UNL     1       1.364   0.664  23.291  0.00  0.00    +0.167 A 
BRANCH  15  18
ATOM      1  F   UNL     1       6.752  -0.749  23.435  0.00  0.00    -0.205 F 
ATOM     18  C   UNL     1       2.759   0.297  23.328  0.00  0.00    +0.020 A 
ATOM     22  C   UNL     1       3.131  -1.000  23.682  0.00  0.00    +0.014 A 
ATOM     23  C   UNL     1       3.735   1.241  23.010  0.00  0.00    +0.014 A 
ATOM     24  C   UNL     1       4.480  -1.353  23.719  0.00  0.00    +0.039 A 
ATOM     25  C   UNL     1       5.085   0.887  23.046  0.00  0.00    +0.039 A 
ATOM     26  C   UNL     1       5.457  -0.410  23.400  0.00  0.00    +0.123 A 
ENDBRANCH  15  18
ENDBRANCH  10  12
ENDBRANCH   7  10
TORSDOF 7
ENDMDL
MODEL 3
REMARK VINA RESULT:      -3.0      3.186      6.274
REMARK  Name = 56775498
REMARK  7 active torsions:
REMARK  status: ('A' for Active; 'I' for Inactive)
REMARK    1  A    between atoms: O_4  and  C_16
REMARK    2  A    between atoms: N_5  and  C_7
REMARK    3  A    between atoms: N_5  and  C_11
REMARK    4  A    between atoms: C_7  and  C_10
REMARK    5  A    between atoms: C_10  and  C_12
REMARK    6  A    between atoms: C_11  and  C_13
REMARK    7  A    between atoms: C_15  and  C_18
REMARK                            x       y       z     vdW  Elec       q    Type
REMARK                         _______ _______ _______ _____ _____    ______ ____
ROOT
ATOM      2  O   UNL     1       3.439  -0.784  22.375  0.00  0.00    -0.376 OA
ATOM      7  C   UNL     1       1.783   0.335  23.124  0.00  0.00    +0.072 C 
ATOM      8  C   UNL     1       2.914  -0.515  23.694  0.00  0.00    +0.184 C 
ATOM      9  C   UNL     1       2.451   0.084  21.776  0.00  0.00    +0.184 C 
ENDROOT
BRANCH   7   5
ATOM      5  N   UNL     1       0.546  -0.431  23.183  0.00  0.00    -0.302 NA
ATOM     27  H   UNL     1       0.405  -1.087  22.415  0.00  0.00    +0.123 HD
BRANCH   5  11
ATOM     11  C   UNL     1       0.465  -1.141  24.458  0.00  0.00    +0.120 C 
BRANCH  11  13
ATOM     13  C   UNL     1      -0.952  -1.515  24.802  0.00  0.00    +0.008 A 
ATOM     16  C   UNL     1      -1.540  -1.071  25.986  0.00  0.00    +0.121 A 
ATOM     17  C   UNL     1      -1.679  -2.314  23.919  0.00  0.00    +0.008 A 
ATOM     19  C   UNL     1      -2.854  -1.426  26.288  0.00  0.00    +0.046 A 
ATOM     20  C   UNL     1      -2.994  -2.670  24.222  0.00  0.00    +0.001 A 
ATOM     21  C   UNL     1      -3.581  -2.226  25.407  0.00  0.00    +0.004 A 
BRANCH  16   4
ATOM      4  O   UNL     1      -0.844  -0.289  26.858  0.00  0.00    -0.506 OA
ATOM     28  H   UNL     1      -0.997   0.646  26.638  0.00  0.00    +0.292 HD
ENDBRANCH  16   4
ENDBRANCH  11  13
ENDBRANCH   5  11
ENDBRANCH   7   5
BRANCH   7  10
ATOM     10  C   UNL     1       1.617   1.780  23.613  0.00  0.00    +0.085 C 
BRANCH  10  12
ATOM      3  O   UNL     1      -1.089   2.394  25.862  0.00  0.00    -0.354 OA
ATOM      6  N   UNL     1       0.266   2.293  25.569  0.00  0.00    -0.083 NA
ATOM     12  C   UNL     1       0.315   1.970  24.273  0.00  0.00    +0.086 A 
ATOM     14  C   UNL     1      -0.964   1.853  23.703  0.00  0.00    +0.076 A 
ATOM     15  C   UNL     1      -1.810   2.129  24.744  0.00  0.00    +0.167 A 
BRANCH  15  18
ATOM      1  F   UNL     1      -7.346   2.387  25.322  0.00  0.00    -0.205 F 
ATOM     18  C   UNL     1      -3.244   2.197  24.893  0.00  0.00    +0.020 A 
ATOM     22  C   UNL     1      -3.834   3.322  25.469  0.00  0.00    +0.014 A 
ATOM     23  C   UNL     1      -4.040   1.136  24.462  0.00  0.00    +0.014 A 
ATOM     24  C   UNL     1      -5.220   3.386  25.615  0.00  0.00    +0.039 A 
ATOM     25  C   UNL     1      -5.426   1.200  24.607  0.00  0.00    +0.039 A 
ATOM     26  C   UNL     1      -6.016   2.325  25.183  0.00  0.00    +0.123 A 
ENDBRANCH  15  18
ENDBRANCH  10  12
ENDBRANCH   7  10
TORSDOF 7
ENDMDL
MODEL 4
REMARK VINA RESULT:      -2.9      1.036      1.696
REMARK  Name = 56775498
REMARK  7 active torsions:
REMARK  status: ('A' for Active; 'I' for Inactive)
REMARK    1  A    between atoms: O_4  and  C_16
REMARK    2  A    between atoms: N_5  and  C_7
REMARK    3  A    between atoms: N_5  and  C_11
REMARK    4  A    between atoms: C_7  and  C_10
REMARK    5  A    between atoms: C_10  and  C_12
REMARK    6  A    between atoms: C_11  and  C_13
REMARK    7  A    between atoms: C_15  and  C_18
REMARK                            x       y       z     vdW  Elec       q    Type
REMARK                         _______ _______ _______ _____ _____    ______ ____
ROOT
ATOM      2  O   UNL     1      -5.860   3.625  25.740  0.00  0.00    -0.376 OA
ATOM      7  C   UNL     1      -4.239   2.542  24.870  0.00  0.00    +0.072 C 
ATOM      8  C   UNL     1      -5.763   2.494  24.845  0.00  0.00    +0.184 C 
ATOM      9  C   UNL     1      -4.423   3.785  25.734  0.00  0.00    +0.184 C 
ENDROOT
BRANCH   7   5
ATOM      5  N   UNL     1      -3.750   1.457  25.709  0.00  0.00    -0.302 NA
ATOM     27  H   UNL     1      -3.772   1.642  26.712  0.00  0.00    +0.123 HD
BRANCH   5  11
ATOM     11  C   UNL     1      -4.494   0.234  25.417  0.00  0.00    +0.120 C 
BRANCH  11  13
ATOM     13  C   UNL     1      -3.583  -0.886  24.988  0.00  0.00    +0.008 A 
ATOM     16  C   UNL     1      -2.234  -0.883  25.342  0.00  0.00    +0.121 A 
ATOM     17  C   UNL     1      -4.103  -1.935  24.230  0.00  0.00    +0.008 A 
ATOM     19  C   UNL     1      -1.405  -1.928  24.938  0.00  0.00    +0.046 A 
ATOM     20  C   UNL     1      -3.273  -2.981  23.825  0.00  0.00    +0.001 A 
ATOM     21  C   UNL     1      -1.924  -2.977  24.179  0.00  0.00    +0.004 A 
BRANCH  16   4
ATOM      4  O   UNL     1      -1.711   0.134  26.083  0.00  0.00    -0.506 OA
ATOM     28  H   UNL     1      -0.753  -0.006  26.183  0.00  0.00    +0.292 HD
ENDBRANCH  16   4
ENDBRANCH  11  13
ENDBRANCH   5  11
ENDBRANCH   7   5
BRANCH   7  10
ATOM     10  C   UNL     1      -3.476   2.665  23.545  0.00  0.00    +0.085 C 
BRANCH  10  12
ATOM      3  O   UNL     1      -0.061   2.558  24.586  0.00  0.00    -0.354 OA
ATOM      6  N   UNL     1      -1.359   3.043  24.683  0.00  0.00    -0.083 NA
ATOM     12  C   UNL     1      -2.041   2.396  23.733  0.00  0.00    +0.086 A 
ATOM     14  C   UNL     1      -1.232   1.499  23.012  0.00  0.00    +0.076 A 
ATOM     15  C   UNL     1       0.002   1.640  23.589  0.00  0.00    +0.167 A 
BRANCH  15  18
ATOM      1  F   UNL     1       5.003  -0.666  22.741  0.00  0.00    -0.205 F 
ATOM     18  C   UNL     1       1.297   1.042  23.368  0.00  0.00    +0.020 A 
ATOM     22  C   UNL     1       1.426  -0.346  23.322  0.00  0.00    +0.014 A 
ATOM     23  C   UNL     1       2.419   1.853  23.202  0.00  0.00    +0.014 A 
ATOM     24  C   UNL     1       2.678  -0.923  23.110  0.00  0.00    +0.039 A 
ATOM     25  C   UNL     1       3.672   1.276  22.990  0.00  0.00    +0.039 A 
ATOM     26  C   UNL     1       3.801  -0.112  22.944  0.00  0.00    +0.123 A 
ENDBRANCH  15  18
ENDBRANCH  10  12
ENDBRANCH   7  10
TORSDOF 7
ENDMDL
MODEL 5
REMARK VINA RESULT:      -2.5      1.487      4.302
REMARK  Name = 56775498
REMARK  7 active torsions:
REMARK  status: ('A' for Active; 'I' for Inactive)
REMARK    1  A    between atoms: O_4  and  C_16
REMARK    2  A    between atoms: N_5  and  C_7
REMARK    3  A    between atoms: N_5  and  C_11
REMARK    4  A    between atoms: C_7  and  C_10
REMARK    5  A    between atoms: C_10  and  C_12
REMARK    6  A    between atoms: C_11  and  C_13
REMARK    7  A    between atoms: C_15  and  C_18
REMARK                            x       y       z     vdW  Elec       q    Type
REMARK                         _______ _______ _______ _____ _____    ______ ____
ROOT
ATOM      2  O   UNL     1      -2.040  -2.767  25.424  0.00  0.00    -0.376 OA
ATOM      7  C   UNL     1      -2.795  -0.929  24.644  0.00  0.00    +0.072 C 
ATOM      8  C   UNL     1      -1.741  -1.371  25.653  0.00  0.00    +0.184 C 
ATOM      9  C   UNL     1      -2.987  -2.419  24.388  0.00  0.00    +0.184 C 
ENDROOT
BRANCH   7   5
ATOM      5  N   UNL     1      -3.954  -0.425  25.368  0.00  0.00    -0.302 NA
ATOM     27  H   UNL     1      -3.740   0.151  26.181  0.00  0.00    +0.123 HD
BRANCH   5  11
ATOM     11  C   UNL     1      -4.824   0.314  24.455  0.00  0.00    +0.120 C 
BRANCH  11  13
ATOM     13  C   UNL     1      -4.758   1.799  24.699  0.00  0.00    +0.008 A 
ATOM     16  C   UNL     1      -5.577   2.401  25.654  0.00  0.00    +0.121 A 
ATOM     17  C   UNL     1      -3.866   2.572  23.957  0.00  0.00    +0.008 A 
ATOM     19  C   UNL     1      -5.503   3.777  25.868  0.00  0.00    +0.046 A 
ATOM     20  C   UNL     1      -3.792   3.949  24.171  0.00  0.00    +0.001 A 
ATOM     21  C   UNL     1      -4.611   4.551  25.126  0.00  0.00    +0.004 A 
BRANCH  16   4
ATOM      4  O   UNL     1      -6.454   1.659  26.387  0.00  0.00    -0.506 OA
ATOM     28  H   UNL     1      -7.362   1.903  26.137  0.00  0.00    +0.292 HD
ENDBRANCH  16   4
ENDBRANCH  11  13
ENDBRANCH   5  11
ENDBRANCH   7   5
BRANCH   7  10
ATOM     10  C   UNL     1      -2.377  -0.023  23.479  0.00  0.00    +0.085 C 
BRANCH  10  12
ATOM      3  O   UNL     1       0.816   1.505  23.956  0.00  0.00    -0.354 OA
ATOM      6  N   UNL     1      -0.573   1.518  24.011  0.00  0.00    -0.083 NA
ATOM     12  C   UNL     1      -0.948   0.318  23.558  0.00  0.00    +0.086 A 
ATOM     14  C   UNL     1       0.150  -0.486  23.206  0.00  0.00    +0.076 A 
ATOM     15  C   UNL     1       1.234   0.308  23.474  0.00  0.00    +0.167 A 
BRANCH  15  18
ATOM      1  F   UNL     1       6.753  -0.325  23.035  0.00  0.00    -0.205 F 
ATOM     18  C   UNL     1       2.663   0.143  23.360  0.00  0.00    +0.020 A 
ATOM     22  C   UNL     1       3.260  -1.057  23.745  0.00  0.00    +0.014 A 
ATOM     23  C   UNL     1       3.447   1.184  22.864  0.00  0.00    +0.014 A 
ATOM     24  C   UNL     1       4.642  -1.215  23.636  0.00  0.00    +0.039 A 
ATOM     25  C   UNL     1       4.828   1.026  22.754  0.00  0.00    +0.039 A 
ATOM     26  C   UNL     1       5.426  -0.174  23.140  0.00  0.00    +0.123 A 
ENDBRANCH  15  18
ENDBRANCH  10  12
ENDBRANCH   7  10
TORSDOF 7
ENDMDL
MODEL 6
REMARK VINA RESULT:      -2.2      1.689      4.076
REMARK  Name = 56775498
REMARK  7 active torsions:
REMARK  status: ('A' for Active; 'I' for Inactive)
REMARK    1  A    between atoms: O_4  and  C_16
REMARK    2  A    between atoms: N_5  and  C_7
REMARK    3  A    between atoms: N_5  and  C_11
REMARK    4  A    between atoms: C_7  and  C_10
REMARK    5  A    between atoms: C_10  and  C_12
REMARK    6  A    between atoms: C_11  and  C_13
REMARK    7  A    between atoms: C_15  and  C_18
REMARK                            x       y       z     vdW  Elec       q    Type
REMARK                         _______ _______ _______ _____ _____    ______ ____
ROOT
ATOM      2  O   UNL     1      -3.140  -2.395  25.275  0.00  0.00    -0.376 OA
ATOM      7  C   UNL     1      -3.379  -0.400  24.556  0.00  0.00    +0.072 C 
ATOM      8  C   UNL     1      -2.446  -1.148  25.503  0.00  0.00    +0.184 C 
ATOM      9  C   UNL     1      -3.998  -1.769  24.295  0.00  0.00    +0.184 C 
ENDROOT
BRANCH   7   5
ATOM      5  N   UNL     1      -4.311   0.392  25.345  0.00  0.00    -0.302 NA
ATOM     27  H   UNL     1      -3.957   0.707  26.248  0.00  0.00    +0.123 HD
BRANCH   5  11
ATOM     11  C   UNL     1      -4.765   1.543  24.566  0.00  0.00    +0.120 C 
BRANCH  11  13
ATOM     13  C   UNL     1      -3.944   2.772  24.854  0.00  0.00    +0.008 A 
ATOM     16  C   UNL     1      -3.559   3.631  23.825  0.00  0.00    +0.121 A 
ATOM     17  C   UNL     1      -3.570   3.049  26.169  0.00  0.00    +0.008 A 
ATOM     19  C   UNL     1      -2.801   4.765  24.109  0.00  0.00    +0.046 A 
ATOM     20  C   UNL     1      -2.811   4.184  26.454  0.00  0.00    +0.001 A 
ATOM     21  C   UNL     1      -2.426   5.042  25.424  0.00  0.00    +0.004 A 
BRANCH  16   4
ATOM      4  O   UNL     1      -3.917   3.375  22.535  0.00  0.00    -0.506 OA
ATOM     28  H   UNL     1      -3.560   4.076  21.961  0.00  0.00    +0.292 HD
ENDBRANCH  16   4
ENDBRANCH  11  13
ENDBRANCH   5  11
ENDBRANCH   7   5
BRANCH   7  10
ATOM     10  C   UNL     1      -2.777   0.380  23.379  0.00  0.00    +0.085 C 
BRANCH  10  12
ATOM      3  O   UNL     1       0.477   1.509  24.323  0.00  0.00    -0.354 OA
ATOM      6  N   UNL     1      -0.910   1.584  24.369  0.00  0.00    -0.083 NA
ATOM     12  C   UNL     1      -1.335   0.599  23.571  0.00  0.00    +0.086 A 
ATOM     14  C   UNL     1      -0.271  -0.122  23.000  0.00  0.00    +0.076 A 
ATOM     15  C   UNL     1       0.845   0.491  23.506  0.00  0.00    +0.167 A 
BRANCH  15  18
ATOM      1  F   UNL     1       6.333  -0.291  22.942  0.00  0.00    -0.205 F 
ATOM     18  C   UNL     1       2.266   0.287  23.359  0.00  0.00    +0.020 A 
ATOM     22  C   UNL     1       2.835  -0.938  23.705  0.00  0.00    +0.014 A 
ATOM     23  C   UNL     1       3.070   1.317  22.872  0.00  0.00    +0.014 A 
ATOM     24  C   UNL     1       4.209  -1.133  23.565  0.00  0.00    +0.039 A 
ATOM     25  C   UNL     1       4.444   1.121  22.730  0.00  0.00    +0.039 A 
ATOM     26  C   UNL     1       5.014  -0.104  23.077  0.00  0.00    +0.123 A 
ENDBRANCH  15  18
ENDBRANCH  10  12
ENDBRANCH   7  10
TORSDOF 7
ENDMDL
MODEL 7
REMARK VINA RESULT:      -2.1      3.153      6.249
REMARK  Name = 56775498
REMARK  7 active torsions:
REMARK  status: ('A' for Active; 'I' for Inactive)
REMARK    1  A    between atoms: O_4  and  C_16
REMARK    2  A    between atoms: N_5  and  C_7
REMARK    3  A    between atoms: N_5  and  C_11
REMARK    4  A    between atoms: C_7  and  C_10
REMARK    5  A    between atoms: C_10  and  C_12
REMARK    6  A    between atoms: C_11  and  C_13
REMARK    7  A    between atoms: C_15  and  C_18
REMARK                            x       y       z     vdW  Elec       q    Type
REMARK                         _______ _______ _______ _____ _____    ______ ____
ROOT
ATOM      2  O   UNL     1       3.284  -1.070  22.514  0.00  0.00    -0.376 OA
ATOM      7  C   UNL     1       1.752   0.275  23.149  0.00  0.00    +0.072 C 
ATOM      8  C   UNL     1       2.775  -0.650  23.800  0.00  0.00    +0.184 C 
ATOM      9  C   UNL     1       2.404  -0.144  21.836  0.00  0.00    +0.184 C 
ENDROOT
BRANCH   7   5
ATOM      5  N   UNL     1       0.437  -0.344  23.236  0.00  0.00    -0.302 NA
ATOM     27  H   UNL     1       0.182  -0.934  22.444  0.00  0.00    +0.123 HD
BRANCH   5  11
ATOM     11  C   UNL     1       0.335  -1.113  24.476  0.00  0.00    +0.120 C 
BRANCH  11  13
ATOM     13  C   UNL     1      -1.098  -1.376  24.855  0.00  0.00    +0.008 A 
ATOM     16  C   UNL     1      -1.818  -2.408  24.254  0.00  0.00    +0.121 A 
ATOM     17  C   UNL     1      -1.705  -0.573  25.821  0.00  0.00    +0.008 A 
ATOM     19  C   UNL     1      -3.143  -2.639  24.617  0.00  0.00    +0.046 A 
ATOM     20  C   UNL     1      -3.032  -0.803  26.185  0.00  0.00    +0.001 A 
ATOM     21  C   UNL     1      -3.751  -1.836  25.582  0.00  0.00    +0.004 A 
BRANCH  16   4
ATOM      4  O   UNL     1      -1.238  -3.202  23.309  0.00  0.00    -0.506 OA
ATOM     28  H   UNL     1      -1.464  -4.131  23.493  0.00  0.00    +0.292 HD
ENDBRANCH  16   4
ENDBRANCH  11  13
ENDBRANCH   5  11
ENDBRANCH   7   5
BRANCH   7  10
ATOM     10  C   UNL     1       1.741   1.761  23.531  0.00  0.00    +0.085 C 
BRANCH  10  12
ATOM      3  O   UNL     1      -0.741   2.511  25.988  0.00  0.00    -0.354 OA
ATOM      6  N   UNL     1       0.552   2.164  25.614  0.00  0.00    -0.083 NA
ATOM     12  C   UNL     1       0.522   2.107  24.279  0.00  0.00    +0.086 A 
ATOM     14  C   UNL     1      -0.751   2.406  23.761  0.00  0.00    +0.076 A 
ATOM     15  C   UNL     1      -1.506   2.651  24.877  0.00  0.00    +0.167 A 
BRANCH  15  18
ATOM      1  F   UNL     1      -6.825   4.059  25.762  0.00  0.00    -0.205 F 
ATOM     18  C   UNL     1      -2.884   3.015  25.106  0.00  0.00    +0.020 A 
ATOM     22  C   UNL     1      -3.910   2.230  24.581  0.00  0.00    +0.014 A 
ATOM     23  C   UNL     1      -3.189   4.152  25.854  0.00  0.00    +0.014 A 
ATOM     24  C   UNL     1      -5.241   2.583  24.802  0.00  0.00    +0.039 A 
ATOM     25  C   UNL     1      -4.520   4.505  26.075  0.00  0.00    +0.039 A 
ATOM     26  C   UNL     1      -5.547   3.720  25.550  0.00  0.00    +0.123 A 
ENDBRANCH  15  18
ENDBRANCH  10  12
ENDBRANCH   7  10
TORSDOF 7
ENDMDL
MODEL 8
REMARK VINA RESULT:      -1.7      2.210      4.506
REMARK  Name = 56775498
REMARK  7 active torsions:
REMARK  status: ('A' for Active; 'I' for Inactive)
REMARK    1  A    between atoms: O_4  and  C_16
REMARK    2  A    between atoms: N_5  and  C_7
REMARK    3  A    between atoms: N_5  and  C_11
REMARK    4  A    between atoms: C_7  and  C_10
REMARK    5  A    between atoms: C_10  and  C_12
REMARK    6  A    between atoms: C_11  and  C_13
REMARK    7  A    between atoms: C_15  and  C_18
REMARK                            x       y       z     vdW  Elec       q    Type
REMARK                         _______ _______ _______ _____ _____    ______ ____
ROOT
ATOM      2  O   UNL     1      -5.092  -0.667  24.647  0.00  0.00    -0.376 OA
ATOM      7  C   UNL     1      -2.968  -0.610  24.441  0.00  0.00    +0.072 C 
ATOM      8  C   UNL     1      -3.988  -0.539  25.572  0.00  0.00    +0.184 C 
ATOM      9  C   UNL     1      -4.177  -0.835  23.540  0.00  0.00    +0.184 C 
ENDROOT
BRANCH   7   5
ATOM      5  N   UNL     1      -2.445   0.727  24.197  0.00  0.00    -0.302 NA
ATOM     27  H   UNL     1      -3.058   1.341  23.660  0.00  0.00    +0.123 HD
BRANCH   5  11
ATOM     11  C   UNL     1      -2.101   1.362  25.467  0.00  0.00    +0.120 C 
BRANCH  11  13
ATOM     13  C   UNL     1      -1.806   2.830  25.298  0.00  0.00    +0.008 A 
ATOM     16  C   UNL     1      -0.624   3.254  24.691  0.00  0.00    +0.121 A 
ATOM     17  C   UNL     1      -2.732   3.767  25.754  0.00  0.00    +0.008 A 
ATOM     19  C   UNL     1      -0.367   4.616  24.541  0.00  0.00    +0.046 A 
ATOM     20  C   UNL     1      -2.475   5.131  25.605  0.00  0.00    +0.001 A 
ATOM     21  C   UNL     1      -1.292   5.554  24.998  0.00  0.00    +0.004 A 
BRANCH  16   4
ATOM      4  O   UNL     1       0.290   2.350  24.239  0.00  0.00    -0.506 OA
ATOM     28  H   UNL     1       0.968   2.214  24.924  0.00  0.00    +0.292 HD
ENDBRANCH  16   4
ENDBRANCH  11  13
ENDBRANCH   5  11
ENDBRANCH   7   5
BRANCH   7  10
ATOM     10  C   UNL     1      -1.871  -1.682  24.493  0.00  0.00    +0.085 C 
BRANCH  10  12
ATOM      3  O   UNL     1       0.727  -0.108  22.614  0.00  0.00    -0.354 OA
ATOM      6  N   UNL     1      -0.609  -0.413  22.846  0.00  0.00    -0.083 NA
ATOM     12  C   UNL     1      -0.603  -1.170  23.948  0.00  0.00    +0.086 A 
ATOM     14  C   UNL     1       0.694  -1.375  24.449  0.00  0.00    +0.076 A 
ATOM     15  C   UNL     1       1.493  -0.687  23.573  0.00  0.00    +0.167 A 
BRANCH  15  18
ATOM      1  F   UNL     1       6.977   0.205  23.158  0.00  0.00    -0.205 F 
ATOM     18  C   UNL     1       2.913  -0.457  23.465  0.00  0.00    +0.020 A 
ATOM     22  C   UNL     1       3.813  -1.422  23.918  0.00  0.00    +0.014 A 
ATOM     23  C   UNL     1       3.386   0.731  22.909  0.00  0.00    +0.014 A 
ATOM     24  C   UNL     1       5.186  -1.198  23.815  0.00  0.00    +0.039 A 
ATOM     25  C   UNL     1       4.759   0.954  22.805  0.00  0.00    +0.039 A 
ATOM     26  C   UNL     1       5.659  -0.010  23.257  0.00  0.00    +0.123 A 
ENDBRANCH  15  18
ENDBRANCH  10  12
ENDBRANCH   7  10
TORSDOF 7
ENDMDL
MODEL 9
REMARK VINA RESULT:      -1.5      3.048      5.325
REMARK  Name = 56775498
REMARK  7 active torsions:
REMARK  status: ('A' for Active; 'I' for Inactive)
REMARK    1  A    between atoms: O_4  and  C_16
REMARK    2  A    between atoms: N_5  and  C_7
REMARK    3  A    between atoms: N_5  and  C_11
REMARK    4  A    between atoms: C_7  and  C_10
REMARK    5  A    between atoms: C_10  and  C_12
REMARK    6  A    between atoms: C_11  and  C_13
REMARK    7  A    between atoms: C_15  and  C_18
REMARK                            x       y       z     vdW  Elec       q    Type
REMARK                         _______ _______ _______ _____ _____    ______ ____
ROOT
ATOM      2  O   UNL     1      -3.942  -3.950  24.191  0.00  0.00    -0.376 OA
ATOM      7  C   UNL     1      -2.753  -2.344  24.944  0.00  0.00    +0.072 C 
ATOM      8  C   UNL     1      -3.331  -3.655  25.467  0.00  0.00    +0.184 C 
ATOM      9  C   UNL     1      -3.346  -2.770  23.605  0.00  0.00    +0.184 C 
ENDROOT
BRANCH   7   5
ATOM      5  N   UNL     1      -3.540  -1.240  25.474  0.00  0.00    -0.302 NA
ATOM     27  H   UNL     1      -3.002  -0.502  25.927  0.00  0.00    +0.123 HD
BRANCH   5  11
ATOM     11  C   UNL     1      -4.365  -0.667  24.412  0.00  0.00    +0.120 C 
BRANCH  11  13
ATOM     13  C   UNL     1      -4.715   0.771  24.690  0.00  0.00    +0.008 A 
ATOM     16  C   UNL     1      -4.228   1.794  23.877  0.00  0.00    +0.121 A 
ATOM     17  C   UNL     1      -5.538   1.074  25.775  0.00  0.00    +0.008 A 
ATOM     19  C   UNL     1      -4.562   3.120  24.148  0.00  0.00    +0.046 A 
ATOM     20  C   UNL     1      -5.873   2.401  26.046  0.00  0.00    +0.001 A 
ATOM     21  C   UNL     1      -5.385   3.424  25.232  0.00  0.00    +0.004 A 
BRANCH  16   4
ATOM      4  O   UNL     1      -3.423   1.514  22.813  0.00  0.00    -0.506 OA
ATOM     28  H   UNL     1      -3.274   0.553  22.773  0.00  0.00    +0.292 HD
ENDBRANCH  16   4
ENDBRANCH  11  13
ENDBRANCH   5  11
ENDBRANCH   7   5
BRANCH   7  10
ATOM     10  C   UNL     1      -1.241  -2.104  25.043  0.00  0.00    +0.085 C 
BRANCH  10  12
ATOM      3  O   UNL     1       0.141   1.013  23.978  0.00  0.00    -0.354 OA
ATOM      6  N   UNL     1       0.110  -0.377  23.992  0.00  0.00    -0.083 NA
ATOM     12  C   UNL     1      -0.911  -0.692  24.795  0.00  0.00    +0.086 A 
ATOM     14  C   UNL     1      -1.555   0.447  25.310  0.00  0.00    +0.076 A 
ATOM     15  C   UNL     1      -0.855   1.491  24.767  0.00  0.00    +0.167 A 
BRANCH  15  18
ATOM      1  F   UNL     1      -1.229   7.041  25.089  0.00  0.00    -0.205 F 
ATOM     18  C   UNL     1      -0.951   2.928  24.851  0.00  0.00    +0.020 A 
ATOM     22  C   UNL     1      -1.839   3.516  25.752  0.00  0.00    +0.014 A 
ATOM     23  C   UNL     1      -0.157   3.729  24.031  0.00  0.00    +0.014 A 
ATOM     24  C   UNL     1      -1.934   4.906  25.832  0.00  0.00    +0.039 A 
ATOM     25  C   UNL     1      -0.251   5.119  24.112  0.00  0.00    +0.039 A 
ATOM     26  C   UNL     1      -1.139   5.707  25.012  0.00  0.00    +0.123 A 
ENDBRANCH  15  18
ENDBRANCH  10  12
ENDBRANCH   7  10
TORSDOF 7
ENDMDL
MODEL 10
REMARK VINA RESULT:      -0.6      2.669      5.207
REMARK  Name = 56775498
REMARK  7 active torsions:
REMARK  status: ('A' for Active; 'I' for Inactive)
REMARK    1  A    between atoms: O_4  and  C_16
REMARK    2  A    between atoms: N_5  and  C_7
REMARK    3  A    between atoms: N_5  and  C_11
REMARK    4  A    between atoms: C_7  and  C_10
REMARK    5  A    between atoms: C_10  and  C_12
REMARK    6  A    between atoms: C_11  and  C_13
REMARK    7  A    between atoms: C_15  and  C_18
REMARK                            x       y       z     vdW  Elec       q    Type
REMARK                         _______ _______ _______ _____ _____    ______ ____
ROOT
ATOM      2  O   UNL     1      -0.591   5.992  24.589  0.00  0.00    -0.376 OA
ATOM      7  C   UNL     1      -2.062   4.496  24.981  0.00  0.00    +0.072 C 
ATOM      8  C   UNL     1      -1.740   5.906  25.463  0.00  0.00    +0.184 C 
ATOM      9  C   UNL     1      -0.894   4.698  24.022  0.00  0.00    +0.184 C 
ENDROOT
BRANCH   7   5
ATOM      5  N   UNL     1      -1.662   3.547  26.011  0.00  0.00    -0.302 NA
ATOM     27  H   UNL     1      -2.273   2.737  26.115  0.00  0.00    +0.123 HD
BRANCH   5  11
ATOM     11  C   UNL     1      -0.292   3.101  25.767  0.00  0.00    +0.120 C 
BRANCH  11  13
ATOM     13  C   UNL     1      -0.241   1.659  25.333  0.00  0.00    +0.008 A 
ATOM     16  C   UNL     1       0.387   1.294  24.143  0.00  0.00    +0.121 A 
ATOM     17  C   UNL     1      -0.829   0.685  26.139  0.00  0.00    +0.008 A 
ATOM     19  C   UNL     1       0.426  -0.045  23.757  0.00  0.00    +0.046 A 
ATOM     20  C   UNL     1      -0.791  -0.655  25.753  0.00  0.00    +0.001 A 
ATOM     21  C   UNL     1      -0.163  -1.020  24.562  0.00  0.00    +0.004 A 
BRANCH  16   4
ATOM      4  O   UNL     1       0.967   2.234  23.345  0.00  0.00    -0.506 OA
ATOM     28  H   UNL     1       1.319   1.801  22.547  0.00  0.00    +0.292 HD
ENDBRANCH  16   4
ENDBRANCH  11  13
ENDBRANCH   5  11
ENDBRANCH   7   5
BRANCH   7  10
ATOM     10  C   UNL     1      -3.454   4.204  24.406  0.00  0.00    +0.085 C 
BRANCH  10  12
ATOM      3  O   UNL     1      -4.945   1.134  25.460  0.00  0.00    -0.354 OA
ATOM      6  N   UNL     1      -4.848   2.520  25.473  0.00  0.00    -0.083 NA
ATOM     12  C   UNL     1      -3.842   2.803  24.640  0.00  0.00    +0.086 A 
ATOM     14  C   UNL     1      -3.272   1.647  24.079  0.00  0.00    +0.076 A 
ATOM     15  C   UNL     1      -4.002   0.626  24.628  0.00  0.00    +0.167 A 
BRANCH  15  18
ATOM      1  F   UNL     1      -3.914  -4.926  24.166  0.00  0.00    -0.205 F 
ATOM     18  C   UNL     1      -3.979  -0.812  24.509  0.00  0.00    +0.020 A 
ATOM     22  C   UNL     1      -3.536  -1.594  25.576  0.00  0.00    +0.014 A 
ATOM     23  C   UNL     1      -4.401  -1.420  23.327  0.00  0.00    +0.014 A 
ATOM     24  C   UNL     1      -3.513  -2.984  25.460  0.00  0.00    +0.039 A 
ATOM     25  C   UNL     1      -4.379  -2.810  23.211  0.00  0.00    +0.039 A 
ATOM     26  C   UNL     1      -3.935  -3.592  24.278  0.00  0.00    +0.123 A 
ENDBRANCH  15  18
ENDBRANCH  10  12
ENDBRANCH   7  10
TORSDOF 7
ENDMDL
