MODEL 1
REMARK VINA RESULT:       4.7      0.000      0.000
REMARK  Name = 28961874
REMARK  8 active torsions:
REMARK  status: ('A' for Active; 'I' for Inactive)
REMARK    1  A    between atoms: O_4  and  C_13
REMARK    2  A    between atoms: O_5  and  C_20
REMARK    3  A    between atoms: N_7  and  C_11
REMARK    4  A    between atoms: N_8  and  C_21
REMARK    5  A    between atoms: N_9  and  C_17
REMARK    6  A    between atoms: N_10  and  C_28
REMARK    7  A    between atoms: C_12  and  C_17
REMARK    8  A    between atoms: C_14  and  C_20
REMARK                            x       y       z     vdW  Elec       q    Type
REMARK                         _______ _______ _______ _____ _____    ______ ____
ROOT
ATOM      3  O   UNL     1      -5.127   4.709  24.666  0.00  0.00    -0.365 OA
ATOM     11  C   UNL     1      -2.869   4.651  25.419  0.00  0.00    +0.118 C 
ATOM     12  C   UNL     1      -3.767   4.812  24.186  0.00  0.00    +0.155 C 
ATOM     13  C   UNL     1      -3.734   3.836  26.368  0.00  0.00    +0.165 C 
ATOM     14  C   UNL     1      -5.107   4.429  26.079  0.00  0.00    +0.174 C 
ENDROOT
BRANCH  11   7
ATOM      7  N   UNL     1      -1.540   4.119  25.180  0.00  0.00    -0.292 NA
ATOM      8  N   UNL     1       0.386   2.277  24.150  0.00  0.00    -0.327 N 
ATOM     15  C   UNL     1      -1.409   2.778  25.764  0.00  0.00    +0.104 C 
ATOM     16  C   UNL     1      -1.256   4.067  23.741  0.00  0.00    +0.104 C 
ATOM     18  C   UNL     1       0.006   2.229  25.567  0.00  0.00    +0.120 C 
ATOM     19  C   UNL     1       0.164   3.561  23.477  0.00  0.00    +0.120 C 
BRANCH   8  21
ATOM      2  F   UNL     1       4.455  -1.050  22.436  0.00  0.00    -0.205 F 
ATOM     21  C   UNL     1       1.416   1.436  23.717  0.00  0.00    +0.030 A 
ATOM     23  C   UNL     1       1.199   0.061  23.620  0.00  0.00    +0.026 A 
ATOM     24  C   UNL     1       2.660   1.971  23.380  0.00  0.00    +0.026 A 
ATOM     25  C   UNL     1       2.225  -0.779  23.188  0.00  0.00    +0.040 A 
ATOM     26  C   UNL     1       3.686   1.130  22.947  0.00  0.00    +0.040 A 
ATOM     27  C   UNL     1       3.468  -0.244  22.851  0.00  0.00    +0.124 A 
ENDBRANCH   8  21
ENDBRANCH  11   7
BRANCH  13   4
ATOM      4  O   UNL     1      -3.711   2.453  26.035  0.00  0.00    -0.388 OA
ATOM     34  H   UNL     1      -2.927   2.062  26.458  0.00  0.00    +0.210 HD
ENDBRANCH  13   4
BRANCH  12  17
ATOM     17  C   UNL     1      -3.599   3.779  23.078  0.00  0.00    +0.139 C 
BRANCH  17   9
ATOM      6  O   UNL     1      -2.113   1.331  23.109  0.00  0.00    -0.253 OA
ATOM      9  N   UNL     1      -4.075   2.494  23.496  0.00  0.00    -0.297 N 
ATOM     10  N   UNL     1      -4.012   0.232  23.944  0.00  0.00    -0.269 N 
ATOM     22  C   UNL     1      -3.284   1.332  23.483  0.00  0.00    +0.304 C 
ATOM     35  H   UNL     1      -5.031   2.423  23.830  0.00  0.00    +0.150 HD
ATOM     37  H   UNL     1      -4.977   0.406  24.215  0.00  0.00    +0.156 HD
BRANCH  10  28
ATOM      1 CL   UNL     1      -0.285  -3.026  25.303  0.00  0.00    -0.083 Cl
ATOM     28  C   UNL     1      -3.573  -1.105  24.080  0.00  0.00    +0.036 A 
ATOM     29  C   UNL     1      -2.295  -1.375  24.567  0.00  0.00    +0.043 A 
ATOM     30  C   UNL     1      -4.421  -2.156  23.727  0.00  0.00    +0.023 A 
ATOM     31  C   UNL     1      -1.863  -2.694  24.701  0.00  0.00    +0.043 A 
ATOM     32  C   UNL     1      -3.989  -3.475  23.862  0.00  0.00    +0.003 A 
ATOM     33  C   UNL     1      -2.710  -3.744  24.348  0.00  0.00    +0.020 A 
ENDBRANCH  10  28
ENDBRANCH  17   9
ENDBRANCH  12  17
BRANCH  14  20
ATOM     20  C   UNL     1      -6.288   3.544  26.430  0.00  0.00    +0.190 C 
BRANCH  20   5
ATOM      5  O   UNL     1      -6.369   2.490  25.483  0.00  0.00    -0.392 OA
ATOM     36  H   UNL     1      -7.040   1.865  25.805  0.00  0.00    +0.210 HD
ENDBRANCH  20   5
ENDBRANCH  14  20
TORSDOF 8
ENDMDL
MODEL 2
REMARK VINA RESULT:       6.1      2.839      4.891
REMARK  Name = 28961874
REMARK  8 active torsions:
REMARK  status: ('A' for Active; 'I' for Inactive)
REMARK    1  A    between atoms: O_4  and  C_13
REMARK    2  A    between atoms: O_5  and  C_20
REMARK    3  A    between atoms: N_7  and  C_11
REMARK    4  A    between atoms: N_8  and  C_21
REMARK    5  A    between atoms: N_9  and  C_17
REMARK    6  A    between atoms: N_10  and  C_28
REMARK    7  A    between atoms: C_12  and  C_17
REMARK    8  A    between atoms: C_14  and  C_20
REMARK                            x       y       z     vdW  Elec       q    Type
REMARK                         _______ _______ _______ _____ _____    ______ ____
ROOT
ATOM      3  O   UNL     1      -4.696   1.141  24.715  0.00  0.00    -0.365 OA
ATOM     11  C   UNL     1      -3.037   1.532  23.053  0.00  0.00    +0.118 C 
ATOM     12  C   UNL     1      -3.596   0.494  24.035  0.00  0.00    +0.155 C 
ATOM     13  C   UNL     1      -3.421   2.855  23.697  0.00  0.00    +0.165 C 
ATOM     14  C   UNL     1      -4.791   2.505  24.263  0.00  0.00    +0.174 C 
ENDROOT
BRANCH  11   7
ATOM      7  N   UNL     1      -1.634   1.395  22.705  0.00  0.00    -0.292 NA
ATOM      8  N   UNL     1       1.094   0.651  23.114  0.00  0.00    -0.327 N 
ATOM     15  C   UNL     1      -0.794   2.142  23.650  0.00  0.00    +0.104 C 
ATOM     16  C   UNL     1      -1.239  -0.018  22.696  0.00  0.00    +0.104 C 
ATOM     18  C   UNL     1       0.683   2.053  23.261  0.00  0.00    +0.120 C 
ATOM     19  C   UNL     1       0.223  -0.180  22.276  0.00  0.00    +0.120 C 
BRANCH   8  21
ATOM      2  F   UNL     1       6.483  -0.529  23.484  0.00  0.00    -0.205 F 
ATOM     21  C   UNL     1       2.457   0.352  23.207  0.00  0.00    +0.030 A 
ATOM     23  C   UNL     1       3.407   1.332  22.920  0.00  0.00    +0.026 A 
ATOM     24  C   UNL     1       2.867  -0.926  23.589  0.00  0.00    +0.026 A 
ATOM     25  C   UNL     1       4.767   1.036  23.013  0.00  0.00    +0.040 A 
ATOM     26  C   UNL     1       4.228  -1.222  23.682  0.00  0.00    +0.040 A 
ATOM     27  C   UNL     1       5.177  -0.242  23.394  0.00  0.00    +0.124 A 
ENDBRANCH   8  21
ENDBRANCH  11   7
BRANCH  13   4
ATOM      4  O   UNL     1      -2.524   3.203  24.744  0.00  0.00    -0.388 OA
ATOM     34  H   UNL     1      -1.634   2.917  24.477  0.00  0.00    +0.210 HD
ENDBRANCH  13   4
BRANCH  12  17
ATOM     17  C   UNL     1      -2.640  -0.017  25.106  0.00  0.00    +0.139 C 
BRANCH  17   9
ATOM      6  O   UNL     1      -0.665  -0.221  27.170  0.00  0.00    -0.253 OA
ATOM      9  N   UNL     1      -1.863   1.053  25.657  0.00  0.00    -0.297 N 
ATOM     10  N   UNL     1      -0.309   2.093  27.007  0.00  0.00    -0.269 N 
ATOM     22  C   UNL     1      -0.908   0.876  26.673  0.00  0.00    +0.304 C 
ATOM     35  H   UNL     1      -2.002   1.987  25.284  0.00  0.00    +0.150 HD
ATOM     37  H   UNL     1      -0.628   2.912  26.497  0.00  0.00    +0.156 HD
BRANCH  10  28
ATOM      1 CL   UNL     1       1.075   2.096  31.952  0.00  0.00    -0.083 Cl
ATOM     28  C   UNL     1       0.693   2.330  27.977  0.00  0.00    +0.036 A 
ATOM     29  C   UNL     1       0.421   2.121  29.328  0.00  0.00    +0.043 A 
ATOM     30  C   UNL     1       1.955   2.774  27.580  0.00  0.00    +0.023 A 
ATOM     31  C   UNL     1       1.410   2.355  30.284  0.00  0.00    +0.043 A 
ATOM     32  C   UNL     1       2.944   3.007  28.534  0.00  0.00    +0.003 A 
ATOM     33  C   UNL     1       2.672   2.799  29.886  0.00  0.00    +0.020 A 
ENDBRANCH  10  28
ENDBRANCH  17   9
ENDBRANCH  12  17
BRANCH  14  20
ATOM     20  C   UNL     1      -5.266   3.380  25.410  0.00  0.00    +0.190 C 
BRANCH  20   5
ATOM      5  O   UNL     1      -6.236   2.665  26.160  0.00  0.00    -0.392 OA
ATOM     36  H   UNL     1      -5.865   1.785  26.342  0.00  0.00    +0.210 HD
ENDBRANCH  20   5
ENDBRANCH  14  20
TORSDOF 8
ENDMDL
MODEL 3
REMARK VINA RESULT:       6.7      3.665      7.555
REMARK  Name = 28961874
REMARK  8 active torsions:
REMARK  status: ('A' for Active; 'I' for Inactive)
REMARK    1  A    between atoms: O_4  and  C_13
REMARK    2  A    between atoms: O_5  and  C_20
REMARK    3  A    between atoms: N_7  and  C_11
REMARK    4  A    between atoms: N_8  and  C_21
REMARK    5  A    between atoms: N_9  and  C_17
REMARK    6  A    between atoms: N_10  and  C_28
REMARK    7  A    between atoms: C_12  and  C_17
REMARK    8  A    between atoms: C_14  and  C_20
REMARK                            x       y       z     vdW  Elec       q    Type
REMARK                         _______ _______ _______ _____ _____    ______ ____
ROOT
ATOM      3  O   UNL     1       4.634   0.886  22.849  0.00  0.00    -0.365 OA
ATOM     11  C   UNL     1       2.675  -0.346  22.292  0.00  0.00    +0.118 C 
ATOM     12  C   UNL     1       3.212   1.046  22.649  0.00  0.00    +0.155 C 
ATOM     13  C   UNL     1       3.684  -1.279  22.943  0.00  0.00    +0.165 C 
ATOM     14  C   UNL     1       4.976  -0.506  22.708  0.00  0.00    +0.174 C 
ENDROOT
BRANCH  11   7
ATOM      7  N   UNL     1       1.286  -0.604  22.627  0.00  0.00    -0.292 NA
ATOM      8  N   UNL     1      -1.255  -0.061  23.815  0.00  0.00    -0.327 N 
ATOM     15  C   UNL     1       1.114  -0.687  24.083  0.00  0.00    +0.104 C 
ATOM     16  C   UNL     1       0.420   0.448  22.081  0.00  0.00    +0.104 C 
ATOM     18  C   UNL     1      -0.336  -1.015  24.447  0.00  0.00    +0.120 C 
ATOM     19  C   UNL     1      -1.053   0.158  22.378  0.00  0.00    +0.120 C 
BRANCH   8  21
ATOM      2  F   UNL     1      -6.304   0.520  25.990  0.00  0.00    -0.205 F 
ATOM     21  C   UNL     1      -2.532   0.086  24.366  0.00  0.00    +0.030 A 
ATOM     23  C   UNL     1      -3.486   0.868  23.714  0.00  0.00    +0.026 A 
ATOM     24  C   UNL     1      -2.852  -0.549  25.566  0.00  0.00    +0.026 A 
ATOM     25  C   UNL     1      -4.760   1.015  24.262  0.00  0.00    +0.040 A 
ATOM     26  C   UNL     1      -4.127  -0.402  26.114  0.00  0.00    +0.040 A 
ATOM     27  C   UNL     1      -5.081   0.380  25.462  0.00  0.00    +0.124 A 
ENDBRANCH   8  21
ENDBRANCH  11   7
BRANCH  13   4
ATOM      4  O   UNL     1       3.437  -1.422  24.336  0.00  0.00    -0.388 OA
ATOM     34  H   UNL     1       2.552  -1.062  24.516  0.00  0.00    +0.210 HD
ENDBRANCH  13   4
BRANCH  12  17
ATOM     17  C   UNL     1       2.647   1.694  23.908  0.00  0.00    +0.139 C 
BRANCH  17   9
ATOM      6  O   UNL     1       0.471   2.135  25.717  0.00  0.00    -0.253 OA
ATOM      9  N   UNL     1       1.428   2.391  23.627  0.00  0.00    -0.297 N 
ATOM     10  N   UNL     1      -0.662   3.286  24.014  0.00  0.00    -0.269 N 
ATOM     22  C   UNL     1       0.400   2.569  24.570  0.00  0.00    +0.304 C 
ATOM     35  H   UNL     1       1.307   2.789  22.701  0.00  0.00    +0.150 HD
ATOM     37  H   UNL     1      -0.560   3.573  23.044  0.00  0.00    +0.156 HD
BRANCH  10  28
ATOM      1 CL   UNL     1      -3.286   4.061  28.359  0.00  0.00    -0.083 Cl
ATOM     28  C   UNL     1      -1.874   3.665  24.637  0.00  0.00    +0.036 A 
ATOM     29  C   UNL     1      -1.971   3.674  26.028  0.00  0.00    +0.043 A 
ATOM     30  C   UNL     1      -2.973   4.032  23.859  0.00  0.00    +0.023 A 
ATOM     31  C   UNL     1      -3.166   4.050  26.642  0.00  0.00    +0.043 A 
ATOM     32  C   UNL     1      -4.167   4.407  24.472  0.00  0.00    +0.003 A 
ATOM     33  C   UNL     1      -4.264   4.416  25.863  0.00  0.00    +0.020 A 
ENDBRANCH  10  28
ENDBRANCH  17   9
ENDBRANCH  12  17
BRANCH  14  20
ATOM     20  C   UNL     1       6.117  -0.839  23.651  0.00  0.00    +0.190 C 
BRANCH  20   5
ATOM      5  O   UNL     1       5.743  -0.475  24.970  0.00  0.00    -0.392 OA
ATOM     36  H   UNL     1       5.166  -1.181  25.310  0.00  0.00    +0.210 HD
ENDBRANCH  20   5
ENDBRANCH  14  20
TORSDOF 8
ENDMDL
MODEL 4
REMARK VINA RESULT:       7.6      2.545      5.458
REMARK  Name = 28961874
REMARK  8 active torsions:
REMARK  status: ('A' for Active; 'I' for Inactive)
REMARK    1  A    between atoms: O_4  and  C_13
REMARK    2  A    between atoms: O_5  and  C_20
REMARK    3  A    between atoms: N_7  and  C_11
REMARK    4  A    between atoms: N_8  and  C_21
REMARK    5  A    between atoms: N_9  and  C_17
REMARK    6  A    between atoms: N_10  and  C_28
REMARK    7  A    between atoms: C_12  and  C_17
REMARK    8  A    between atoms: C_14  and  C_20
REMARK                            x       y       z     vdW  Elec       q    Type
REMARK                         _______ _______ _______ _____ _____    ______ ____
ROOT
ATOM      3  O   UNL     1      -4.090  -1.346  25.741  0.00  0.00    -0.365 OA
ATOM     11  C   UNL     1      -2.490  -2.058  24.128  0.00  0.00    +0.118 C 
ATOM     12  C   UNL     1      -2.777  -1.939  25.630  0.00  0.00    +0.155 C 
ATOM     13  C   UNL     1      -3.349  -0.955  23.527  0.00  0.00    +0.165 C 
ATOM     14  C   UNL     1      -4.580  -1.037  24.422  0.00  0.00    +0.174 C 
ENDROOT
BRANCH  11   7
ATOM      7  N   UNL     1      -1.093  -2.038  23.737  0.00  0.00    -0.292 NA
ATOM      8  N   UNL     1       1.583  -1.038  23.671  0.00  0.00    -0.327 N 
ATOM     15  C   UNL     1      -0.779  -0.802  23.008  0.00  0.00    +0.104 C 
ATOM     16  C   UNL     1      -0.225  -2.155  24.915  0.00  0.00    +0.104 C 
ATOM     18  C   UNL     1       0.678  -0.794  22.541  0.00  0.00    +0.120 C 
ATOM     19  C   UNL     1       1.250  -2.192  24.512  0.00  0.00    +0.120 C 
BRANCH   8  21
ATOM      2  F   UNL     1       6.852   0.561  23.175  0.00  0.00    -0.205 F 
ATOM     21  C   UNL     1       2.916  -0.633  23.545  0.00  0.00    +0.030 A 
ATOM     23  C   UNL     1       3.942  -1.466  23.991  0.00  0.00    +0.026 A 
ATOM     24  C   UNL     1       3.219   0.603  22.975  0.00  0.00    +0.026 A 
ATOM     25  C   UNL     1       5.272  -1.064  23.867  0.00  0.00    +0.040 A 
ATOM     26  C   UNL     1       4.550   1.006  22.850  0.00  0.00    +0.040 A 
ATOM     27  C   UNL     1       5.575   0.173  23.296  0.00  0.00    +0.124 A 
ENDBRANCH   8  21
ENDBRANCH  11   7
BRANCH  13   4
ATOM      4  O   UNL     1      -2.726   0.317  23.657  0.00  0.00    -0.388 OA
ATOM     34  H   UNL     1      -2.476   0.429  24.590  0.00  0.00    +0.210 HD
ENDBRANCH  13   4
BRANCH  12  17
ATOM     17  C   UNL     1      -1.820  -1.074  26.442  0.00  0.00    +0.139 C 
BRANCH  17   9
ATOM      6  O   UNL     1      -0.512   1.083  25.086  0.00  0.00    -0.253 OA
ATOM      9  N   UNL     1      -2.226   0.299  26.425  0.00  0.00    -0.297 N 
ATOM     10  N   UNL     1      -2.159   2.544  25.899  0.00  0.00    -0.269 N 
ATOM     22  C   UNL     1      -1.531   1.307  25.734  0.00  0.00    +0.304 C 
ATOM     35  H   UNL     1      -3.069   0.555  26.930  0.00  0.00    +0.150 HD
ATOM     37  H   UNL     1      -3.000   2.555  26.471  0.00  0.00    +0.156 HD
BRANCH  10  28
ATOM      1 CL   UNL     1       0.826   5.166  22.647  0.00  0.00    -0.083 Cl
ATOM     28  C   UNL     1      -1.769   3.793  25.364  0.00  0.00    +0.036 A 
ATOM     29  C   UNL     1      -0.779   3.856  24.384  0.00  0.00    +0.043 A 
ATOM     30  C   UNL     1      -2.377   4.965  25.817  0.00  0.00    +0.023 A 
ATOM     31  C   UNL     1      -0.396   5.089  23.857  0.00  0.00    +0.043 A 
ATOM     32  C   UNL     1      -1.993   6.198  25.290  0.00  0.00    +0.003 A 
ATOM     33  C   UNL     1      -1.002   6.260  24.311  0.00  0.00    +0.020 A 
ENDBRANCH  10  28
ENDBRANCH  17   9
ENDBRANCH  12  17
BRANCH  14  20
ATOM     20  C   UNL     1      -5.427   0.220  24.484  0.00  0.00    +0.190 C 
BRANCH  20   5
ATOM      5  O   UNL     1      -4.819   1.139  25.379  0.00  0.00    -0.392 OA
ATOM     36  H   UNL     1      -3.883   1.210  25.125  0.00  0.00    +0.210 HD
ENDBRANCH  20   5
ENDBRANCH  14  20
TORSDOF 8
ENDMDL
MODEL 5
REMARK VINA RESULT:       7.9      2.586      5.477
REMARK  Name = 28961874
REMARK  8 active torsions:
REMARK  status: ('A' for Active; 'I' for Inactive)
REMARK    1  A    between atoms: O_4  and  C_13
REMARK    2  A    between atoms: O_5  and  C_20
REMARK    3  A    between atoms: N_7  and  C_11
REMARK    4  A    between atoms: N_8  and  C_21
REMARK    5  A    between atoms: N_9  and  C_17
REMARK    6  A    between atoms: N_10  and  C_28
REMARK    7  A    between atoms: C_12  and  C_17
REMARK    8  A    between atoms: C_14  and  C_20
REMARK                            x       y       z     vdW  Elec       q    Type
REMARK                         _______ _______ _______ _____ _____    ______ ____
ROOT
ATOM      3  O   UNL     1      -2.348   5.227  26.371  0.00  0.00    -0.365 OA
ATOM     11  C   UNL     1      -3.870   3.869  25.144  0.00  0.00    +0.118 C 
ATOM     12  C   UNL     1      -3.084   3.986  26.456  0.00  0.00    +0.155 C 
ATOM     13  C   UNL     1      -3.038   4.691  24.172  0.00  0.00    +0.165 C 
ATOM     14  C   UNL     1      -2.580   5.824  25.081  0.00  0.00    +0.174 C 
ENDROOT
BRANCH  11   7
ATOM      7  N   UNL     1      -4.188   2.522  24.704  0.00  0.00    -0.292 NA
ATOM      8  N   UNL     1      -3.704  -0.258  24.258  0.00  0.00    -0.327 N 
ATOM     15  C   UNL     1      -3.255   2.090  23.655  0.00  0.00    +0.104 C 
ATOM     16  C   UNL     1      -4.139   1.586  25.833  0.00  0.00    +0.104 C 
ATOM     18  C   UNL     1      -3.614   0.693  23.143  0.00  0.00    +0.120 C 
ATOM     19  C   UNL     1      -4.527   0.172  25.394  0.00  0.00    +0.120 C 
BRANCH   8  21
ATOM      2  F   UNL     1      -3.193  -5.646  23.129  0.00  0.00    -0.205 F 
ATOM     21  C   UNL     1      -3.576  -1.621  23.972  0.00  0.00    +0.030 A 
ATOM     23  C   UNL     1      -2.340  -2.251  24.121  0.00  0.00    +0.026 A 
ATOM     24  C   UNL     1      -4.683  -2.352  23.539  0.00  0.00    +0.026 A 
ATOM     25  C   UNL     1      -2.210  -3.610  23.836  0.00  0.00    +0.040 A 
ATOM     26  C   UNL     1      -4.553  -3.712  23.255  0.00  0.00    +0.040 A 
ATOM     27  C   UNL     1      -3.316  -4.340  23.403  0.00  0.00    +0.124 A 
ENDBRANCH   8  21
ENDBRANCH  11   7
BRANCH  13   4
ATOM      4  O   UNL     1      -1.919   3.954  23.694  0.00  0.00    -0.388 OA
ATOM     34  H   UNL     1      -1.801   4.174  22.754  0.00  0.00    +0.210 HD
ENDBRANCH  13   4
BRANCH  12  17
ATOM     17  C   UNL     1      -2.076   2.882  26.750  0.00  0.00    +0.139 C 
BRANCH  17   9
ATOM      6  O   UNL     1      -0.852   0.617  25.494  0.00  0.00    -0.253 OA
ATOM      9  N   UNL     1      -0.997   2.904  25.807  0.00  0.00    -0.297 N 
ATOM     10  N   UNL     1       0.588   2.076  24.351  0.00  0.00    -0.269 N 
ATOM     22  C   UNL     1      -0.446   1.746  25.231  0.00  0.00    +0.304 C 
ATOM     35  H   UNL     1      -0.621   3.806  25.532  0.00  0.00    +0.150 HD
ATOM     37  H   UNL     1       0.799   3.065  24.247  0.00  0.00    +0.156 HD
BRANCH  10  28
ATOM      1 CL   UNL     1       5.277   0.418  23.074  0.00  0.00    -0.083 Cl
ATOM     28  C   UNL     1       1.386   1.199  23.581  0.00  0.00    +0.036 A 
ATOM     29  C   UNL     1       2.775   1.237  23.694  0.00  0.00    +0.043 A 
ATOM     30  C   UNL     1       0.782   0.292  22.709  0.00  0.00    +0.023 A 
ATOM     31  C   UNL     1       3.562   0.370  22.934  0.00  0.00    +0.043 A 
ATOM     32  C   UNL     1       1.568  -0.574  21.950  0.00  0.00    +0.003 A 
ATOM     33  C   UNL     1       2.958  -0.535  22.062  0.00  0.00    +0.020 A 
ENDBRANCH  10  28
ENDBRANCH  17   9
ENDBRANCH  12  17
BRANCH  14  20
ATOM     20  C   UNL     1      -1.326   6.553  24.634  0.00  0.00    +0.190 C 
BRANCH  20   5
ATOM      5  O   UNL     1      -0.227   5.657  24.697  0.00  0.00    -0.392 OA
ATOM     36  H   UNL     1       0.402   5.925  24.006  0.00  0.00    +0.210 HD
ENDBRANCH  20   5
ENDBRANCH  14  20
TORSDOF 8
ENDMDL
