MODEL 1
REMARK VINA RESULT:      -6.6      0.000      0.000
REMARK  Name = 56775645
REMARK  8 active torsions:
REMARK  status: ('A' for Active; 'I' for Inactive)
REMARK    1  A    between atoms: O_3  and  C_20
REMARK    2  A    between atoms: O_3  and  C_21
REMARK    3  A    between atoms: N_4  and  C_6
REMARK    4  A    between atoms: N_4  and  C_8
REMARK    5  A    between atoms: C_6  and  C_13
REMARK    6  A    between atoms: C_7  and  C_8
REMARK    7  A    between atoms: C_13  and  C_17
REMARK    8  A    between atoms: C_19  and  C_20
REMARK                            x       y       z     vdW  Elec       q    Type
REMARK                         _______ _______ _______ _____ _____    ______ ____
ROOT
ATOM     13  C   UNL     1      -3.004   3.189  23.755  0.00  0.00    +0.085 C 
ENDROOT
BRANCH  13  17
ATOM      2  O   UNL     1       0.281   1.796  24.316  0.00  0.00    -0.356 OA
ATOM      5  N   UNL     1      -0.685   2.777  24.495  0.00  0.00    -0.083 NA
ATOM     17  C   UNL     1      -1.740   2.356  23.791  0.00  0.00    +0.086 A 
ATOM     18  C   UNL     1      -1.500   1.127  23.153  0.00  0.00    +0.074 A 
ATOM     19  C   UNL     1      -0.215   0.818  23.515  0.00  0.00    +0.175 A 
BRANCH  19  20
ATOM     20  C   UNL     1       0.682  -0.306  23.221  0.00  0.00    +0.306 C 
BRANCH  20   3
ATOM      3  O   UNL     1       1.762   0.126  22.390  0.00  0.00    -0.484 OA
BRANCH   3  21
ATOM     21  C   UNL     1       3.022  -0.050  22.888  0.00  0.00    +0.121 A 
ATOM     22  C   UNL     1       3.393  -1.281  23.429  0.00  0.00    +0.045 A 
ATOM     23  C   UNL     1       3.937   1.002  22.859  0.00  0.00    +0.045 A 
ATOM     24  C   UNL     1       4.679  -1.461  23.939  0.00  0.00    +0.004 A 
ATOM     25  C   UNL     1       5.224   0.822  23.368  0.00  0.00    +0.004 A 
ATOM     26  C   UNL     1       5.595  -0.408  23.909  0.00  0.00    +0.000 A 
ENDBRANCH   3  21
ENDBRANCH  20   3
ENDBRANCH  19  20
ENDBRANCH  13  17
BRANCH  13   6
ATOM      1  O   UNL     1      -5.648   3.853  25.589  0.00  0.00    -0.376 OA
ATOM      6  C   UNL     1      -3.917   2.822  24.884  0.00  0.00    +0.072 C 
ATOM     11  C   UNL     1      -4.246   3.871  25.940  0.00  0.00    +0.184 C 
ATOM     12  C   UNL     1      -5.421   2.789  24.637  0.00  0.00    +0.184 C 
BRANCH   6   4
ATOM      4  N   UNL     1      -3.522   1.581  25.559  0.00  0.00    -0.306 NA
ATOM     27  H   UNL     1      -2.615   1.208  25.280  0.00  0.00    +0.123 HD
BRANCH   4   8
ATOM      8  C   UNL     1      -4.553   0.572  25.364  0.00  0.00    +0.085 C 
BRANCH   8   7
ATOM      7  C   UNL     1      -3.945  -0.829  25.337  0.00  0.00    +0.003 C 
ATOM      9  C   UNL     1      -4.218  -1.513  23.990  0.00  0.00    +0.005 C 
ATOM     10  C   UNL     1      -2.439  -0.771  25.626  0.00  0.00    +0.005 C 
ATOM     14  C   UNL     1      -3.575  -2.895  23.920  0.00  0.00    +0.000 C 
ATOM     15  C   UNL     1      -1.798  -2.155  25.551  0.00  0.00    +0.000 C 
ATOM     16  C   UNL     1      -2.079  -2.836  24.215  0.00  0.00    +0.000 C 
ENDBRANCH   8   7
ENDBRANCH   4   8
ENDBRANCH   6   4
ENDBRANCH  13   6
TORSDOF 8
ENDMDL
MODEL 2
REMARK VINA RESULT:      -4.8      1.882      2.626
REMARK  Name = 56775645
REMARK  8 active torsions:
REMARK  status: ('A' for Active; 'I' for Inactive)
REMARK    1  A    between atoms: O_3  and  C_20
REMARK    2  A    between atoms: O_3  and  C_21
REMARK    3  A    between atoms: N_4  and  C_6
REMARK    4  A    between atoms: N_4  and  C_8
REMARK    5  A    between atoms: C_6  and  C_13
REMARK    6  A    between atoms: C_7  and  C_8
REMARK    7  A    between atoms: C_13  and  C_17
REMARK    8  A    between atoms: C_19  and  C_20
REMARK                            x       y       z     vdW  Elec       q    Type
REMARK                         _______ _______ _______ _____ _____    ______ ____
ROOT
ATOM     13  C   UNL     1      -0.962   2.844  26.137  0.00  0.00    +0.085 C 
ENDROOT
BRANCH  13  17
ATOM      2  O   UNL     1      -0.446  -0.512  24.904  0.00  0.00    -0.356 OA
ATOM      5  N   UNL     1      -0.965   0.396  25.818  0.00  0.00    -0.083 NA
ATOM     17  C   UNL     1      -0.572   1.595  25.376  0.00  0.00    +0.086 A 
ATOM     18  C   UNL     1       0.190   1.505  24.199  0.00  0.00    +0.074 A 
ATOM     19  C   UNL     1       0.239   0.161  23.944  0.00  0.00    +0.175 A 
BRANCH  19  20
ATOM     20  C   UNL     1       0.858  -0.653  22.890  0.00  0.00    +0.306 C 
BRANCH  20   3
ATOM      3  O   UNL     1       1.937   0.061  22.281  0.00  0.00    -0.484 OA
BRANCH   3  21
ATOM     21  C   UNL     1       3.169  -0.096  22.850  0.00  0.00    +0.121 A 
ATOM     22  C   UNL     1       3.523  -1.319  23.421  0.00  0.00    +0.045 A 
ATOM     23  C   UNL     1       4.073   0.966  22.861  0.00  0.00    +0.045 A 
ATOM     24  C   UNL     1       4.781  -1.479  24.003  0.00  0.00    +0.004 A 
ATOM     25  C   UNL     1       5.331   0.805  23.442  0.00  0.00    +0.004 A 
ATOM     26  C   UNL     1       5.685  -0.417  24.013  0.00  0.00    +0.000 A 
ENDBRANCH   3  21
ENDBRANCH  20   3
ENDBRANCH  19  20
ENDBRANCH  13  17
BRANCH  13   6
ATOM      1  O   UNL     1      -0.582   5.279  23.964  0.00  0.00    -0.376 OA
ATOM      6  C   UNL     1      -1.567   3.861  25.219  0.00  0.00    +0.072 C 
ATOM     11  C   UNL     1      -1.104   5.310  25.312  0.00  0.00    +0.184 C 
ATOM     12  C   UNL     1      -1.080   3.935  23.776  0.00  0.00    +0.184 C 
BRANCH   6   4
ATOM      4  N   UNL     1      -3.034   3.833  25.222  0.00  0.00    -0.306 NA
ATOM     27  H   UNL     1      -3.453   3.238  25.935  0.00  0.00    +0.123 HD
BRANCH   4   8
ATOM      8  C   UNL     1      -3.515   3.440  23.905  0.00  0.00    +0.085 C 
BRANCH   8   7
ATOM      7  C   UNL     1      -4.122   2.038  23.944  0.00  0.00    +0.003 C 
ATOM      9  C   UNL     1      -3.185   1.024  23.272  0.00  0.00    +0.005 C 
ATOM     10  C   UNL     1      -4.432   1.623  25.388  0.00  0.00    +0.005 C 
ATOM     14  C   UNL     1      -3.745  -0.394  23.345  0.00  0.00    +0.000 C 
ATOM     15  C   UNL     1      -4.989   0.203  25.458  0.00  0.00    +0.000 C 
ATOM     16  C   UNL     1      -4.061  -0.801  24.782  0.00  0.00    +0.000 C 
ENDBRANCH   8   7
ENDBRANCH   4   8
ENDBRANCH   6   4
ENDBRANCH  13   6
TORSDOF 8
ENDMDL
MODEL 3
REMARK VINA RESULT:      -4.8      1.678      3.824
REMARK  Name = 56775645
REMARK  8 active torsions:
REMARK  status: ('A' for Active; 'I' for Inactive)
REMARK    1  A    between atoms: O_3  and  C_20
REMARK    2  A    between atoms: O_3  and  C_21
REMARK    3  A    between atoms: N_4  and  C_6
REMARK    4  A    between atoms: N_4  and  C_8
REMARK    5  A    between atoms: C_6  and  C_13
REMARK    6  A    between atoms: C_7  and  C_8
REMARK    7  A    between atoms: C_13  and  C_17
REMARK    8  A    between atoms: C_19  and  C_20
REMARK                            x       y       z     vdW  Elec       q    Type
REMARK                         _______ _______ _______ _____ _____    ______ ____
ROOT
ATOM     13  C   UNL     1      -1.851  -1.028  26.226  0.00  0.00    +0.085 C 
ENDROOT
BRANCH  13  17
ATOM      2  O   UNL     1       0.032   1.773  24.937  0.00  0.00    -0.356 OA
ATOM      5  N   UNL     1      -0.848   1.195  25.844  0.00  0.00    -0.083 NA
ATOM     17  C   UNL     1      -0.957  -0.079  25.455  0.00  0.00    +0.086 A 
ATOM     18  C   UNL     1      -0.178  -0.360  24.321  0.00  0.00    +0.074 A 
ATOM     19  C   UNL     1       0.424   0.837  24.035  0.00  0.00    +0.175 A 
BRANCH  19  20
ATOM     20  C   UNL     1       1.363   1.282  22.997  0.00  0.00    +0.306 C 
BRANCH  20   3
ATOM      3  O   UNL     1       2.069   0.163  22.454  0.00  0.00    -0.484 OA
BRANCH   3  21
ATOM     21  C   UNL     1       3.310  -0.083  22.970  0.00  0.00    +0.121 A 
ATOM     22  C   UNL     1       3.611  -1.340  23.493  0.00  0.00    +0.045 A 
ATOM     23  C   UNL     1       4.275   0.924  22.976  0.00  0.00    +0.045 A 
ATOM     24  C   UNL     1       4.878  -1.591  24.021  0.00  0.00    +0.004 A 
ATOM     25  C   UNL     1       5.542   0.673  23.503  0.00  0.00    +0.004 A 
ATOM     26  C   UNL     1       5.844  -0.584  24.026  0.00  0.00    +0.000 A 
ENDBRANCH   3  21
ENDBRANCH  20   3
ENDBRANCH  19  20
ENDBRANCH  13  17
BRANCH  13   6
ATOM      1  O   UNL     1      -3.230  -3.056  24.041  0.00  0.00    -0.376 OA
ATOM      6  C   UNL     1      -3.039  -1.427  25.406  0.00  0.00    +0.072 C 
ATOM     11  C   UNL     1      -2.858  -1.665  23.911  0.00  0.00    +0.184 C 
ATOM     12  C   UNL     1      -3.511  -2.876  25.447  0.00  0.00    +0.184 C 
BRANCH   6   4
ATOM      4  N   UNL     1      -4.195  -0.547  25.608  0.00  0.00    -0.306 NA
ATOM     27  H   UNL     1      -4.962  -0.957  26.140  0.00  0.00    +0.123 HD
BRANCH   4   8
ATOM      8  C   UNL     1      -4.682  -0.081  24.317  0.00  0.00    +0.085 C 
BRANCH   8   7
ATOM      7  C   UNL     1      -4.859   1.436  24.318  0.00  0.00    +0.003 C 
ATOM      9  C   UNL     1      -5.436   1.914  25.658  0.00  0.00    +0.005 C 
ATOM     10  C   UNL     1      -3.527   2.136  24.016  0.00  0.00    +0.005 C 
ATOM     14  C   UNL     1      -5.572   3.434  25.703  0.00  0.00    +0.000 C 
ATOM     15  C   UNL     1      -3.666   3.656  24.065  0.00  0.00    +0.000 C 
ATOM     16  C   UNL     1      -4.248   4.127  25.393  0.00  0.00    +0.000 C 
ENDBRANCH   8   7
ENDBRANCH   4   8
ENDBRANCH   6   4
ENDBRANCH  13   6
TORSDOF 8
ENDMDL
MODEL 4
REMARK VINA RESULT:      -4.6      1.962      6.458
REMARK  Name = 56775645
REMARK  8 active torsions:
REMARK  status: ('A' for Active; 'I' for Inactive)
REMARK    1  A    between atoms: O_3  and  C_20
REMARK    2  A    between atoms: O_3  and  C_21
REMARK    3  A    between atoms: N_4  and  C_6
REMARK    4  A    between atoms: N_4  and  C_8
REMARK    5  A    between atoms: C_6  and  C_13
REMARK    6  A    between atoms: C_7  and  C_8
REMARK    7  A    between atoms: C_13  and  C_17
REMARK    8  A    between atoms: C_19  and  C_20
REMARK                            x       y       z     vdW  Elec       q    Type
REMARK                         _______ _______ _______ _____ _____    ______ ____
ROOT
ATOM     13  C   UNL     1       1.346   1.924  23.784  0.00  0.00    +0.085 C 
ENDROOT
BRANCH  13  17
ATOM      2  O   UNL     1      -0.800   3.229  26.381  0.00  0.00    -0.356 OA
ATOM      5  N   UNL     1       0.228   2.411  25.931  0.00  0.00    -0.083 NA
ATOM     17  C   UNL     1       0.313   2.652  24.620  0.00  0.00    +0.086 A 
ATOM     18  C   UNL     1      -0.627   3.604  24.190  0.00  0.00    +0.074 A 
ATOM     19  C   UNL     1      -1.301   3.935  25.335  0.00  0.00    +0.175 A 
BRANCH  19  20
ATOM     20  C   UNL     1      -2.404   4.857  25.636  0.00  0.00    +0.306 C 
BRANCH  20   3
ATOM      3  O   UNL     1      -3.456   4.700  24.681  0.00  0.00    -0.484 OA
BRANCH   3  21
ATOM     21  C   UNL     1      -4.265   3.611  24.839  0.00  0.00    +0.121 A 
ATOM     22  C   UNL     1      -5.230   3.599  25.847  0.00  0.00    +0.045 A 
ATOM     23  C   UNL     1      -4.125   2.509  23.996  0.00  0.00    +0.045 A 
ATOM     24  C   UNL     1      -6.056   2.486  26.009  0.00  0.00    +0.004 A 
ATOM     25  C   UNL     1      -4.951   1.396  24.158  0.00  0.00    +0.004 A 
ATOM     26  C   UNL     1      -5.916   1.384  25.164  0.00  0.00    +0.000 A 
ENDBRANCH   3  21
ENDBRANCH  20   3
ENDBRANCH  19  20
ENDBRANCH  13  17
BRANCH  13   6
ATOM      1  O   UNL     1       1.108  -0.657  21.766  0.00  0.00    -0.376 OA
ATOM      6  C   UNL     1       0.936   0.502  23.549  0.00  0.00    +0.072 C 
ATOM     11  C   UNL     1       0.072   0.174  22.338  0.00  0.00    +0.184 C 
ATOM     12  C   UNL     1       1.940  -0.463  22.931  0.00  0.00    +0.184 C 
BRANCH   6   4
ATOM      4  N   UNL     1       0.344  -0.126  24.736  0.00  0.00    -0.306 NA
ATOM     27  H   UNL     1       0.884  -0.022  25.594  0.00  0.00    +0.123 HD
BRANCH   4   8
ATOM      8  C   UNL     1       0.107  -1.538  24.470  0.00  0.00    +0.085 C 
BRANCH   8   7
ATOM      7  C   UNL     1      -1.270  -1.963  24.977  0.00  0.00    +0.003 C 
ATOM      9  C   UNL     1      -2.059  -0.749  25.487  0.00  0.00    +0.005 C 
ATOM     10  C   UNL     1      -2.048  -2.698  23.879  0.00  0.00    +0.005 C 
ATOM     14  C   UNL     1      -3.459  -1.141  25.950  0.00  0.00    +0.000 C 
ATOM     15  C   UNL     1      -3.449  -3.087  24.344  0.00  0.00    +0.000 C 
ATOM     16  C   UNL     1      -4.228  -1.880  24.858  0.00  0.00    +0.000 C 
ENDBRANCH   8   7
ENDBRANCH   4   8
ENDBRANCH   6   4
ENDBRANCH  13   6
TORSDOF 8
ENDMDL
MODEL 5
REMARK VINA RESULT:      -4.6      2.822      5.681
REMARK  Name = 56775645
REMARK  8 active torsions:
REMARK  status: ('A' for Active; 'I' for Inactive)
REMARK    1  A    between atoms: O_3  and  C_20
REMARK    2  A    between atoms: O_3  and  C_21
REMARK    3  A    between atoms: N_4  and  C_6
REMARK    4  A    between atoms: N_4  and  C_8
REMARK    5  A    between atoms: C_6  and  C_13
REMARK    6  A    between atoms: C_7  and  C_8
REMARK    7  A    between atoms: C_13  and  C_17
REMARK    8  A    between atoms: C_19  and  C_20
REMARK                            x       y       z     vdW  Elec       q    Type
REMARK                         _______ _______ _______ _____ _____    ______ ____
ROOT
ATOM     13  C   UNL     1      -1.309  -2.359  24.955  0.00  0.00    +0.085 C 
ENDROOT
BRANCH  13  17
ATOM      2  O   UNL     1       0.490   0.115  23.032  0.00  0.00    -0.356 OA
ATOM      5  N   UNL     1      -0.048  -1.153  23.207  0.00  0.00    -0.083 NA
ATOM     17  C   UNL     1      -0.612  -1.126  24.419  0.00  0.00    +0.086 A 
ATOM     18  C   UNL     1      -0.462   0.122  25.049  0.00  0.00    +0.074 A 
ATOM     19  C   UNL     1       0.237   0.865  24.135  0.00  0.00    +0.175 A 
BRANCH  19  20
ATOM     20  C   UNL     1       0.740   2.245  24.118  0.00  0.00    +0.306 C 
BRANCH  20   3
ATOM      3  O   UNL     1       0.546   2.860  25.394  0.00  0.00    -0.484 OA
BRANCH   3  21
ATOM     21  C   UNL     1      -0.564   3.645  25.529  0.00  0.00    +0.121 A 
ATOM     22  C   UNL     1      -0.666   4.837  24.812  0.00  0.00    +0.045 A 
ATOM     23  C   UNL     1      -1.593   3.257  26.385  0.00  0.00    +0.045 A 
ATOM     24  C   UNL     1      -1.799   5.640  24.950  0.00  0.00    +0.004 A 
ATOM     25  C   UNL     1      -2.727   4.059  26.524  0.00  0.00    +0.004 A 
ATOM     26  C   UNL     1      -2.829   5.251  25.806  0.00  0.00    +0.000 A 
ENDBRANCH   3  21
ENDBRANCH  20   3
ENDBRANCH  19  20
ENDBRANCH  13  17
BRANCH  13   6
ATOM      1  O   UNL     1      -4.263  -3.247  23.822  0.00  0.00    -0.376 OA
ATOM      6  C   UNL     1      -2.796  -2.177  24.944  0.00  0.00    +0.072 C 
ATOM     11  C   UNL     1      -3.513  -2.029  23.608  0.00  0.00    +0.184 C 
ATOM     12  C   UNL     1      -3.690  -3.396  25.141  0.00  0.00    +0.184 C 
BRANCH   6   4
ATOM      4  N   UNL     1      -3.248  -1.109  25.844  0.00  0.00    -0.306 NA
ATOM     27  H   UNL     1      -3.473  -1.410  26.792  0.00  0.00    +0.123 HD
BRANCH   4   8
ATOM      8  C   UNL     1      -4.394  -0.432  25.255  0.00  0.00    +0.085 C 
BRANCH   8   7
ATOM      7  C   UNL     1      -4.046   1.011  24.893  0.00  0.00    +0.003 C 
ATOM      9  C   UNL     1      -3.321   1.070  23.541  0.00  0.00    +0.005 C 
ATOM     10  C   UNL     1      -5.308   1.884  24.875  0.00  0.00    +0.005 C 
ATOM     14  C   UNL     1      -3.009   2.507  23.131  0.00  0.00    +0.000 C 
ATOM     15  C   UNL     1      -4.993   3.320  24.462  0.00  0.00    +0.000 C 
ATOM     16  C   UNL     1      -4.265   3.375  23.123  0.00  0.00    +0.000 C 
ENDBRANCH   8   7
ENDBRANCH   4   8
ENDBRANCH   6   4
ENDBRANCH  13   6
TORSDOF 8
ENDMDL
MODEL 6
REMARK VINA RESULT:      -4.4      1.611      6.957
REMARK  Name = 56775645
REMARK  8 active torsions:
REMARK  status: ('A' for Active; 'I' for Inactive)
REMARK    1  A    between atoms: O_3  and  C_20
REMARK    2  A    between atoms: O_3  and  C_21
REMARK    3  A    between atoms: N_4  and  C_6
REMARK    4  A    between atoms: N_4  and  C_8
REMARK    5  A    between atoms: C_6  and  C_13
REMARK    6  A    between atoms: C_7  and  C_8
REMARK    7  A    between atoms: C_13  and  C_17
REMARK    8  A    between atoms: C_19  and  C_20
REMARK                            x       y       z     vdW  Elec       q    Type
REMARK                         _______ _______ _______ _____ _____    ______ ____
ROOT
ATOM     13  C   UNL     1      -1.706  -1.115  24.200  0.00  0.00    +0.085 C 
ENDROOT
BRANCH  13  17
ATOM      2  O   UNL     1      -4.674  -0.021  25.945  0.00  0.00    -0.356 OA
ATOM      5  N   UNL     1      -3.531  -0.802  25.833  0.00  0.00    -0.083 NA
ATOM     17  C   UNL     1      -2.988  -0.455  24.662  0.00  0.00    +0.086 A 
ATOM     18  C   UNL     1      -3.737   0.531  23.998  0.00  0.00    +0.074 A 
ATOM     19  C   UNL     1      -4.785   0.770  24.847  0.00  0.00    +0.175 A 
BRANCH  19  20
ATOM     20  C   UNL     1      -5.947   1.667  24.801  0.00  0.00    +0.306 C 
BRANCH  20   3
ATOM      3  O   UNL     1      -5.711   2.826  25.604  0.00  0.00    -0.484 OA
BRANCH   3  21
ATOM     21  C   UNL     1      -4.512   3.455  25.428  0.00  0.00    +0.121 A 
ATOM     22  C   UNL     1      -3.678   3.687  26.522  0.00  0.00    +0.045 A 
ATOM     23  C   UNL     1      -4.122   3.869  24.154  0.00  0.00    +0.045 A 
ATOM     24  C   UNL     1      -2.453   4.331  26.341  0.00  0.00    +0.004 A 
ATOM     25  C   UNL     1      -2.897   4.513  23.974  0.00  0.00    +0.004 A 
ATOM     26  C   UNL     1      -2.063   4.744  25.067  0.00  0.00    +0.000 A 
ENDBRANCH   3  21
ENDBRANCH  20   3
ENDBRANCH  19  20
ENDBRANCH  13  17
BRANCH  13   6
ATOM      1  O   UNL     1      -0.616   1.958  24.602  0.00  0.00    -0.376 OA
ATOM      6  C   UNL     1      -0.568  -0.141  24.218  0.00  0.00    +0.072 C 
ATOM     11  C   UNL     1      -0.683   1.145  23.408  0.00  0.00    +0.184 C 
ATOM     12  C   UNL     1      -0.407   0.784  25.419  0.00  0.00    +0.184 C 
BRANCH   6   4
ATOM      4  N   UNL     1       0.727  -0.768  23.928  0.00  0.00    -0.306 NA
ATOM     27  H   UNL     1       1.407  -0.726  24.686  0.00  0.00    +0.123 HD
BRANCH   4   8
ATOM      8  C   UNL     1       1.292  -0.178  22.723  0.00  0.00    +0.085 C 
BRANCH   8   7
ATOM      7  C   UNL     1       2.813  -0.320  22.711  0.00  0.00    +0.003 C 
ATOM      9  C   UNL     1       3.486   1.037  22.960  0.00  0.00    +0.005 C 
ATOM     10  C   UNL     1       3.269  -1.354  23.748  0.00  0.00    +0.005 C 
ATOM     14  C   UNL     1       5.007   0.912  23.005  0.00  0.00    +0.000 C 
ATOM     15  C   UNL     1       4.790  -1.475  23.793  0.00  0.00    +0.000 C 
ATOM     16  C   UNL     1       5.457  -0.124  24.031  0.00  0.00    +0.000 C 
ENDBRANCH   8   7
ENDBRANCH   4   8
ENDBRANCH   6   4
ENDBRANCH  13   6
TORSDOF 8
ENDMDL
MODEL 7
REMARK VINA RESULT:      -4.4      2.198      6.946
REMARK  Name = 56775645
REMARK  8 active torsions:
REMARK  status: ('A' for Active; 'I' for Inactive)
REMARK    1  A    between atoms: O_3  and  C_20
REMARK    2  A    between atoms: O_3  and  C_21
REMARK    3  A    between atoms: N_4  and  C_6
REMARK    4  A    between atoms: N_4  and  C_8
REMARK    5  A    between atoms: C_6  and  C_13
REMARK    6  A    between atoms: C_7  and  C_8
REMARK    7  A    between atoms: C_13  and  C_17
REMARK    8  A    between atoms: C_19  and  C_20
REMARK                            x       y       z     vdW  Elec       q    Type
REMARK                         _______ _______ _______ _____ _____    ______ ____
ROOT
ATOM     13  C   UNL     1       0.982  -1.311  24.216  0.00  0.00    +0.085 C 
ENDROOT
BRANCH  13  17
ATOM      2  O   UNL     1      -1.991  -0.986  26.242  0.00  0.00    -0.356 OA
ATOM      5  N   UNL     1      -0.634  -0.803  26.012  0.00  0.00    -0.083 NA
ATOM     17  C   UNL     1      -0.413  -1.332  24.805  0.00  0.00    +0.086 A 
ATOM     18  C   UNL     1      -1.583  -1.858  24.231  0.00  0.00    +0.074 A 
ATOM     19  C   UNL     1      -2.546  -1.614  25.174  0.00  0.00    +0.175 A 
BRANCH  19  20
ATOM     20  C   UNL     1      -3.986  -1.888  25.250  0.00  0.00    +0.306 C 
BRANCH  20   3
ATOM      3  O   UNL     1      -4.678  -1.202  24.204  0.00  0.00    -0.484 OA
BRANCH   3  21
ATOM     21  C   UNL     1      -4.578   0.161  24.199  0.00  0.00    +0.121 A 
ATOM     22  C   UNL     1      -5.418   0.925  25.011  0.00  0.00    +0.045 A 
ATOM     23  C   UNL     1      -3.639   0.788  23.382  0.00  0.00    +0.045 A 
ATOM     24  C   UNL     1      -5.316   2.316  25.005  0.00  0.00    +0.004 A 
ATOM     25  C   UNL     1      -3.537   2.180  23.377  0.00  0.00    +0.004 A 
ATOM     26  C   UNL     1      -4.376   2.944  24.188  0.00  0.00    +0.000 A 
ENDBRANCH   3  21
ENDBRANCH  20   3
ENDBRANCH  19  20
ENDBRANCH  13  17
BRANCH  13   6
ATOM      1  O   UNL     1       2.515   0.072  21.660  0.00  0.00    -0.376 OA
ATOM      6  C   UNL     1       1.153  -0.148  23.288  0.00  0.00    +0.072 C 
ATOM     11  C   UNL     1       2.549   0.420  23.063  0.00  0.00    +0.184 C 
ATOM     12  C   UNL     1       1.153  -0.396  21.784  0.00  0.00    +0.184 C 
BRANCH   6   4
ATOM      4  N   UNL     1       0.235   0.959  23.584  0.00  0.00    -0.306 NA
ATOM     27  H   UNL     1      -0.451   1.157  22.857  0.00  0.00    +0.123 HD
BRANCH   4   8
ATOM      8  C   UNL     1       1.003   2.160  23.879  0.00  0.00    +0.085 C 
BRANCH   8   7
ATOM      7  C   UNL     1       0.238   3.073  24.837  0.00  0.00    +0.003 C 
ATOM      9  C   UNL     1      -0.373   4.260  24.081  0.00  0.00    +0.005 C 
ATOM     10  C   UNL     1      -0.844   2.285  25.586  0.00  0.00    +0.005 C 
ATOM     14  C   UNL     1      -1.188   5.159  25.008  0.00  0.00    +0.000 C 
ATOM     15  C   UNL     1      -1.659   3.187  26.510  0.00  0.00    +0.000 C 
ATOM     16  C   UNL     1      -2.258   4.371  25.758  0.00  0.00    +0.000 C 
ENDBRANCH   8   7
ENDBRANCH   4   8
ENDBRANCH   6   4
ENDBRANCH  13   6
TORSDOF 8
ENDMDL
MODEL 8
REMARK VINA RESULT:      -3.7     14.510     18.634
REMARK  Name = 56775645
REMARK  8 active torsions:
REMARK  status: ('A' for Active; 'I' for Inactive)
REMARK    1  A    between atoms: O_3  and  C_20
REMARK    2  A    between atoms: O_3  and  C_21
REMARK    3  A    between atoms: N_4  and  C_6
REMARK    4  A    between atoms: N_4  and  C_8
REMARK    5  A    between atoms: C_6  and  C_13
REMARK    6  A    between atoms: C_7  and  C_8
REMARK    7  A    between atoms: C_13  and  C_17
REMARK    8  A    between atoms: C_19  and  C_20
REMARK                            x       y       z     vdW  Elec       q    Type
REMARK                         _______ _______ _______ _____ _____    ______ ____
ROOT
ATOM     13  C   UNL     1      14.032  -6.258  29.767  0.00  0.00    +0.085 C 
ENDROOT
BRANCH  13  17
ATOM      2  O   UNL     1      11.429  -6.350  32.270  0.00  0.00    -0.356 OA
ATOM      5  N   UNL     1      12.321  -5.674  31.448  0.00  0.00    -0.083 NA
ATOM     17  C   UNL     1      12.966  -6.632  30.775  0.00  0.00    +0.086 A 
ATOM     18  C   UNL     1      12.526  -7.919  31.127  0.00  0.00    +0.074 A 
ATOM     19  C   UNL     1      11.560  -7.686  32.069  0.00  0.00    +0.175 A 
BRANCH  19  20
ATOM     20  C   UNL     1      10.684  -8.557  32.865  0.00  0.00    +0.306 C 
BRANCH  20   3
ATOM      3  O   UNL     1       9.779  -9.262  32.012  0.00  0.00    -0.484 OA
BRANCH   3  21
ATOM     21  C   UNL     1       8.493  -8.802  31.976  0.00  0.00    +0.121 A 
ATOM     22  C   UNL     1       8.079  -7.817  32.873  0.00  0.00    +0.045 A 
ATOM     23  C   UNL     1       7.593  -9.319  31.045  0.00  0.00    +0.045 A 
ATOM     24  C   UNL     1       6.766  -7.348  32.837  0.00  0.00    +0.004 A 
ATOM     25  C   UNL     1       6.279  -8.850  31.009  0.00  0.00    +0.004 A 
ATOM     26  C   UNL     1       5.865  -7.864  31.905  0.00  0.00    +0.000 A 
ENDBRANCH   3  21
ENDBRANCH  20   3
ENDBRANCH  19  20
ENDBRANCH  13  17
BRANCH  13   6
ATOM      1  O   UNL     1      15.868  -5.062  32.215  0.00  0.00    -0.376 OA
ATOM      6  C   UNL     1      15.368  -6.120  30.430  0.00  0.00    +0.072 C 
ATOM     11  C   UNL     1      15.865  -4.730  30.808  0.00  0.00    +0.184 C 
ATOM     12  C   UNL     1      15.488  -6.425  31.919  0.00  0.00    +0.184 C 
BRANCH   6   4
ATOM      4  N   UNL     1      16.437  -6.826  29.715  0.00  0.00    -0.306 NA
ATOM     27  H   UNL     1      17.371  -6.707  30.108  0.00  0.00    +0.123 HD
BRANCH   4   8
ATOM      8  C   UNL     1      16.435  -6.421  28.317  0.00  0.00    +0.085 C 
BRANCH   8   7
ATOM      7  C   UNL     1      16.705  -7.617  27.404  0.00  0.00    +0.003 C 
ATOM      9  C   UNL     1      15.841  -8.817  27.814  0.00  0.00    +0.005 C 
ATOM     10  C   UNL     1      16.459  -7.243  25.936  0.00  0.00    +0.005 C 
ATOM     14  C   UNL     1      16.054 -10.008  26.884  0.00  0.00    +0.000 C 
ATOM     15  C   UNL     1      16.670  -8.437  25.008  0.00  0.00    +0.000 C 
ATOM     16  C   UNL     1      15.817  -9.632  25.424  0.00  0.00    +0.000 C 
ENDBRANCH   8   7
ENDBRANCH   4   8
ENDBRANCH   6   4
ENDBRANCH  13   6
TORSDOF 8
ENDMDL
MODEL 9
REMARK VINA RESULT:      -3.3      2.312      5.934
REMARK  Name = 56775645
REMARK  8 active torsions:
REMARK  status: ('A' for Active; 'I' for Inactive)
REMARK    1  A    between atoms: O_3  and  C_20
REMARK    2  A    between atoms: O_3  and  C_21
REMARK    3  A    between atoms: N_4  and  C_6
REMARK    4  A    between atoms: N_4  and  C_8
REMARK    5  A    between atoms: C_6  and  C_13
REMARK    6  A    between atoms: C_7  and  C_8
REMARK    7  A    between atoms: C_13  and  C_17
REMARK    8  A    between atoms: C_19  and  C_20
REMARK                            x       y       z     vdW  Elec       q    Type
REMARK                         _______ _______ _______ _____ _____    ______ ____
ROOT
ATOM     13  C   UNL     1      -3.954  -0.891  23.558  0.00  0.00    +0.085 C 
ENDROOT
BRANCH  13  17
ATOM      2  O   UNL     1      -3.839   2.719  23.628  0.00  0.00    -0.356 OA
ATOM      5  N   UNL     1      -3.521   1.489  23.066  0.00  0.00    -0.083 NA
ATOM     17  C   UNL     1      -4.093   0.585  23.867  0.00  0.00    +0.086 A 
ATOM     18  C   UNL     1      -4.778   1.180  24.939  0.00  0.00    +0.074 A 
ATOM     19  C   UNL     1      -4.588   2.522  24.742  0.00  0.00    +0.175 A 
BRANCH  19  20
ATOM     20  C   UNL     1      -5.015   3.726  25.466  0.00  0.00    +0.306 C 
BRANCH  20   3
ATOM      3  O   UNL     1      -4.022   4.110  26.420  0.00  0.00    -0.484 OA
BRANCH   3  21
ATOM     21  C   UNL     1      -2.732   4.153  25.973  0.00  0.00    +0.121 A 
ATOM     22  C   UNL     1      -1.870   3.086  26.228  0.00  0.00    +0.045 A 
ATOM     23  C   UNL     1      -2.276   5.264  25.264  0.00  0.00    +0.045 A 
ATOM     24  C   UNL     1      -0.552   3.131  25.771  0.00  0.00    +0.004 A 
ATOM     25  C   UNL     1      -0.958   5.308  24.808  0.00  0.00    +0.004 A 
ATOM     26  C   UNL     1      -0.096   4.242  25.062  0.00  0.00    +0.000 A 
ENDBRANCH   3  21
ENDBRANCH  20   3
ENDBRANCH  19  20
ENDBRANCH  13  17
BRANCH  13   6
ATOM      1  O   UNL     1      -3.343  -2.489  26.362  0.00  0.00    -0.376 OA
ATOM      6  C   UNL     1      -2.974  -1.541  24.486  0.00  0.00    +0.072 C 
ATOM     11  C   UNL     1      -2.980  -1.149  25.959  0.00  0.00    +0.184 C 
ATOM     12  C   UNL     1      -3.261  -2.950  24.994  0.00  0.00    +0.184 C 
BRANCH   6   4
ATOM      4  N   UNL     1      -1.595  -1.490  23.989  0.00  0.00    -0.306 NA
ATOM     27  H   UNL     1      -1.026  -2.306  24.209  0.00  0.00    +0.123 HD
BRANCH   4   8
ATOM      8  C   UNL     1      -0.945  -0.286  24.486  0.00  0.00    +0.085 C 
BRANCH   8   7
ATOM      7  C   UNL     1       0.073   0.240  23.475  0.00  0.00    +0.003 C 
ATOM      9  C   UNL     1       1.232   0.947  24.190  0.00  0.00    +0.005 C 
ATOM     10  C   UNL     1       0.592  -0.900  22.588  0.00  0.00    +0.005 C 
ATOM     14  C   UNL     1       2.290   1.434  23.203  0.00  0.00    +0.000 C 
ATOM     15  C   UNL     1       1.652  -0.410  21.604  0.00  0.00    +0.000 C 
ATOM     16  C   UNL     1       2.798   0.301  22.317  0.00  0.00    +0.000 C 
ENDBRANCH   8   7
ENDBRANCH   4   8
ENDBRANCH   6   4
ENDBRANCH  13   6
TORSDOF 8
ENDMDL
