MODEL 1
REMARK VINA RESULT:      -1.3      0.000      0.000
REMARK  Name = 45783925
REMARK  10 active torsions:
REMARK  status: ('A' for Active; 'I' for Inactive)
REMARK    1  A    between atoms: N_3  and  C_13
REMARK    2  A    between atoms: C_8  and  C_12
REMARK    3  A    between atoms: C_9  and  C_13
REMARK    4  A    between atoms: C_11  and  C_18
REMARK    5  A    between atoms: C_12  and  C_22
REMARK    6  A    between atoms: C_12  and  C_23
REMARK    7  A    between atoms: C_15  and  C_24
REMARK    8  A    between atoms: C_18  and  C_25
REMARK    9  A    between atoms: C_19  and  C_26
REMARK   10  A    between atoms: C_27  and  C_28
REMARK                            x       y       z     vdW  Elec       q    Type
REMARK                         _______ _______ _______ _____ _____    ______ ____
ROOT
ATOM      8  C   UNL     1      -0.690   3.673  23.951  0.00  0.00    +0.000 C 
ATOM      9  C   UNL     1      -0.448   2.780  25.190  0.00  0.00    +0.029 C 
ATOM     10  C   UNL     1      -2.185   3.724  23.609  0.00  0.00    +0.012 C 
ATOM     11  C   UNL     1      -3.064   4.218  24.777  0.00  0.00    +0.024 C 
ATOM     14  C   UNL     1      -1.448   3.032  26.290  0.00  0.00    -0.023 C 
ATOM     15  C   UNL     1      -2.615   3.682  26.128  0.00  0.00    -0.073 C 
ATOM     24  C   UNL     1      -3.502   3.954  27.313  0.00  0.00    +0.039 C 
ENDROOT
BRANCH   8  12
ATOM     12  C   UNL     1      -0.120   5.084  24.157  0.00  0.00    -0.013 C 
ATOM     22  C   UNL     1      -1.186   6.009  24.735  0.00  0.00    +0.007 C 
ATOM     23  C   UNL     1       0.420   5.636  22.842  0.00  0.00    +0.007 C 
ENDBRANCH   8  12
BRANCH   9  13
ATOM     13  C   UNL     1      -0.462   1.292  24.828  0.00  0.00    +0.092 C 
BRANCH  13   3
ATOM      3  N   UNL     1       0.466   1.019  23.730  0.00  0.00    -0.302 NA
ATOM     16  C   UNL     1       1.728   1.741  23.933  0.00  0.00    +0.085 C 
ATOM     17  C   UNL     1       0.701  -0.425  23.604  0.00  0.00    +0.085 C 
ATOM     19  C   UNL     1       2.927   0.052  22.452  0.00  0.00    +0.077 C 
ATOM     20  C   UNL     1       2.681   1.529  22.754  0.00  0.00    +0.028 C 
ATOM     21  C   UNL     1       1.620  -0.739  22.420  0.00  0.00    +0.028 C 
BRANCH  19  26
ATOM      2  O   UNL     1       3.832  -1.705  23.802  0.00  0.00    -0.276 OA
ATOM      5  N   UNL     1       4.802   0.377  23.932  0.00  0.00    -0.329 N 
ATOM     26  C   UNL     1       3.887  -0.529  23.449  0.00  0.00    +0.214 C 
ATOM     33  H   UNL     1       5.499   0.100  24.615  0.00  0.00    +0.145 HD
ATOM     34  H   UNL     1       4.818   1.348  23.634  0.00  0.00    +0.145 HD
ENDBRANCH  19  26
ENDBRANCH  13   3
ENDBRANCH   9  13
BRANCH  11  18
ATOM     18  C   UNL     1      -4.529   3.889  24.461  0.00  0.00    +0.105 C 
BRANCH  18  25
ATOM      1  O   UNL     1      -3.951   1.518  24.487  0.00  0.00    -0.420 OA
ATOM      4  N   UNL     1      -5.922   1.990  25.434  0.00  0.00    -0.112 NA
ATOM      6  N   UNL     1      -5.724   0.625  25.518  0.00  0.00    -0.107 NA
ATOM     25  C   UNL     1      -4.863   2.471  24.826  0.00  0.00    +0.218 A 
ATOM     27  C   UNL     1      -4.562   0.395  24.953  0.00  0.00    +0.248 A 
BRANCH  27  28
ATOM      7  N   UNL     1      -2.465  -3.231  24.370  0.00  0.00    -0.263 NA
ATOM     28  C   UNL     1      -3.851  -0.836  24.756  0.00  0.00    +0.041 A 
ATOM     29  C   UNL     1      -4.395  -1.836  23.958  0.00  0.00    +0.033 A 
ATOM     30  C   UNL     1      -2.615  -1.032  25.361  0.00  0.00    +0.033 A 
ATOM     31  C   UNL     1      -3.669  -3.004  23.798  0.00  0.00    +0.111 A 
ATOM     32  C   UNL     1      -1.968  -2.236  25.139  0.00  0.00    +0.111 A 
ENDBRANCH  27  28
ENDBRANCH  18  25
ENDBRANCH  11  18
TORSDOF 7
ENDMDL
MODEL 2
REMARK VINA RESULT:      -1.0      2.029      5.308
REMARK  Name = 45783925
REMARK  10 active torsions:
REMARK  status: ('A' for Active; 'I' for Inactive)
REMARK    1  A    between atoms: N_3  and  C_13
REMARK    2  A    between atoms: C_8  and  C_12
REMARK    3  A    between atoms: C_9  and  C_13
REMARK    4  A    between atoms: C_11  and  C_18
REMARK    5  A    between atoms: C_12  and  C_22
REMARK    6  A    between atoms: C_12  and  C_23
REMARK    7  A    between atoms: C_15  and  C_24
REMARK    8  A    between atoms: C_18  and  C_25
REMARK    9  A    between atoms: C_19  and  C_26
REMARK   10  A    between atoms: C_27  and  C_28
REMARK                            x       y       z     vdW  Elec       q    Type
REMARK                         _______ _______ _______ _____ _____    ______ ____
ROOT
ATOM      8  C   UNL     1      -4.442   2.380  25.559  0.00  0.00    +0.000 C 
ATOM      9  C   UNL     1      -4.704   2.385  24.035  0.00  0.00    +0.029 C 
ATOM     10  C   UNL     1      -3.089   3.032  25.874  0.00  0.00    +0.012 C 
ATOM     11  C   UNL     1      -2.963   4.473  25.336  0.00  0.00    +0.024 C 
ATOM     14  C   UNL     1      -4.352   3.702  23.391  0.00  0.00    -0.023 C 
ATOM     15  C   UNL     1      -3.587   4.652  23.960  0.00  0.00    -0.073 C 
ATOM     24  C   UNL     1      -3.368   5.968  23.264  0.00  0.00    +0.039 C 
ENDROOT
BRANCH   8  12
ATOM     12  C   UNL     1      -5.580   3.068  26.325  0.00  0.00    -0.013 C 
ATOM     22  C   UNL     1      -6.608   2.040  26.786  0.00  0.00    +0.007 C 
ATOM     23  C   UNL     1      -6.236   4.137  25.456  0.00  0.00    +0.007 C 
ENDBRANCH   8  12
BRANCH   9  13
ATOM     13  C   UNL     1      -3.946   1.260  23.325  0.00  0.00    +0.092 C 
BRANCH  13   3
ATOM      3  N   UNL     1      -3.857   0.077  24.182  0.00  0.00    -0.302 NA
ATOM     16  C   UNL     1      -3.819  -1.145  23.368  0.00  0.00    +0.085 C 
ATOM     17  C   UNL     1      -2.678   0.163  25.053  0.00  0.00    +0.085 C 
ATOM     19  C   UNL     1      -2.677  -2.379  25.280  0.00  0.00    +0.077 C 
ATOM     20  C   UNL     1      -3.805  -2.396  24.250  0.00  0.00    +0.028 C 
ATOM     21  C   UNL     1      -2.599  -1.035  26.004  0.00  0.00    +0.028 C 
BRANCH  19  26
ATOM      2  O   UNL     1      -1.312  -3.263  23.524  0.00  0.00    -0.276 OA
ATOM      5  N   UNL     1      -0.268  -2.377  25.373  0.00  0.00    -0.329 N 
ATOM     26  C   UNL     1      -1.370  -2.716  24.624  0.00  0.00    +0.214 C 
ATOM     33  H   UNL     1       0.670  -2.562  25.033  0.00  0.00    +0.145 HD
ATOM     34  H   UNL     1      -0.343  -1.939  26.286  0.00  0.00    +0.145 HD
ENDBRANCH  19  26
ENDBRANCH  13   3
ENDBRANCH   9  13
BRANCH  11  18
ATOM     18  C   UNL     1      -1.487   4.886  25.380  0.00  0.00    +0.105 C 
BRANCH  18  25
ATOM      1  O   UNL     1      -0.268   3.079  24.281  0.00  0.00    -0.420 OA
ATOM      4  N   UNL     1      -0.039   3.117  26.506  0.00  0.00    -0.112 NA
ATOM      6  N   UNL     1       0.697   2.053  26.019  0.00  0.00    -0.107 NA
ATOM     25  C   UNL     1      -0.584   3.687  25.457  0.00  0.00    +0.218 A 
ATOM     27  C   UNL     1       0.535   2.070  24.717  0.00  0.00    +0.248 A 
BRANCH  27  28
ATOM      7  N   UNL     1       2.092  -0.480  21.724  0.00  0.00    -0.263 NA
ATOM     28  C   UNL     1       1.063   1.205  23.702  0.00  0.00    +0.041 A 
ATOM     29  C   UNL     1       0.233   0.291  23.062  0.00  0.00    +0.033 A 
ATOM     30  C   UNL     1       2.408   1.276  23.354  0.00  0.00    +0.033 A 
ATOM     31  C   UNL     1       0.791  -0.521  22.089  0.00  0.00    +0.111 A 
ATOM     32  C   UNL     1       2.869   0.421  22.368  0.00  0.00    +0.111 A 
ENDBRANCH  27  28
ENDBRANCH  18  25
ENDBRANCH  11  18
TORSDOF 7
ENDMDL
MODEL 3
REMARK VINA RESULT:       1.1      2.165      7.199
REMARK  Name = 45783925
REMARK  10 active torsions:
REMARK  status: ('A' for Active; 'I' for Inactive)
REMARK    1  A    between atoms: N_3  and  C_13
REMARK    2  A    between atoms: C_8  and  C_12
REMARK    3  A    between atoms: C_9  and  C_13
REMARK    4  A    between atoms: C_11  and  C_18
REMARK    5  A    between atoms: C_12  and  C_22
REMARK    6  A    between atoms: C_12  and  C_23
REMARK    7  A    between atoms: C_15  and  C_24
REMARK    8  A    between atoms: C_18  and  C_25
REMARK    9  A    between atoms: C_19  and  C_26
REMARK   10  A    between atoms: C_27  and  C_28
REMARK                            x       y       z     vdW  Elec       q    Type
REMARK                         _______ _______ _______ _____ _____    ______ ____
ROOT
ATOM      8  C   UNL     1      -3.871  -1.182  24.257  0.00  0.00    +0.000 C 
ATOM      9  C   UNL     1      -4.489  -0.041  25.099  0.00  0.00    +0.029 C 
ATOM     10  C   UNL     1      -2.873  -0.619  23.237  0.00  0.00    +0.012 C 
ATOM     11  C   UNL     1      -1.744   0.214  23.880  0.00  0.00    +0.024 C 
ATOM     14  C   UNL     1      -3.462   0.966  25.550  0.00  0.00    -0.023 C 
ATOM     15  C   UNL     1      -2.228   1.088  25.027  0.00  0.00    -0.073 C 
ATOM     24  C   UNL     1      -1.251   2.072  25.610  0.00  0.00    +0.039 C 
ENDROOT
BRANCH   8  12
ATOM     12  C   UNL     1      -3.211  -2.242  25.151  0.00  0.00    -0.013 C 
ATOM     22  C   UNL     1      -3.141  -1.754  26.594  0.00  0.00    +0.007 C 
ATOM     23  C   UNL     1      -1.819  -2.586  24.628  0.00  0.00    +0.007 C 
ENDBRANCH   8  12
BRANCH   9  13
ATOM     13  C   UNL     1      -5.605   0.682  24.339  0.00  0.00    +0.092 C 
BRANCH  13   3
ATOM      3  N   UNL     1      -5.482   2.132  24.498  0.00  0.00    -0.302 NA
ATOM     16  C   UNL     1      -5.463   2.492  25.922  0.00  0.00    +0.085 C 
ATOM     17  C   UNL     1      -4.277   2.621  23.818  0.00  0.00    +0.085 C 
ATOM     19  C   UNL     1      -4.254   4.659  25.354  0.00  0.00    +0.077 C 
ATOM     20  C   UNL     1      -5.414   4.010  26.106  0.00  0.00    +0.028 C 
ATOM     21  C   UNL     1      -4.161   4.145  23.917  0.00  0.00    +0.028 C 
BRANCH  19  26
ATOM      2  O   UNL     1      -2.935   3.940  27.217  0.00  0.00    -0.276 OA
ATOM      5  N   UNL     1      -1.851   4.855  25.405  0.00  0.00    -0.329 N 
ATOM     26  C   UNL     1      -2.966   4.436  26.093  0.00  0.00    +0.214 C 
ATOM     33  H   UNL     1      -0.925   4.759  25.807  0.00  0.00    +0.145 HD
ATOM     34  H   UNL     1      -1.906   5.275  24.482  0.00  0.00    +0.145 HD
ENDBRANCH  19  26
ENDBRANCH  13   3
ENDBRANCH   9  13
BRANCH  11  18
ATOM     18  C   UNL     1      -1.036   1.013  22.778  0.00  0.00    +0.105 C 
BRANCH  18  25
ATOM      1  O   UNL     1       1.328   0.531  23.146  0.00  0.00    -0.420 OA
ATOM      4  N   UNL     1       0.478  -0.407  21.301  0.00  0.00    -0.112 NA
ATOM      6  N   UNL     1       1.812  -0.760  21.385  0.00  0.00    -0.107 NA
ATOM     25  C   UNL     1       0.239   0.345  22.350  0.00  0.00    +0.218 A 
ATOM     27  C   UNL     1       2.267  -0.191  22.476  0.00  0.00    +0.248 A 
BRANCH  27  28
ATOM      7  N   UNL     1       6.130  -0.254  24.197  0.00  0.00    -0.263 NA
ATOM     28  C   UNL     1       3.578  -0.212  23.059  0.00  0.00    +0.041 A 
ATOM     29  C   UNL     1       4.387   0.916  22.999  0.00  0.00    +0.033 A 
ATOM     30  C   UNL     1       4.043  -1.362  23.688  0.00  0.00    +0.033 A 
ATOM     31  C   UNL     1       5.643   0.845  23.578  0.00  0.00    +0.111 A 
ATOM     32  C   UNL     1       5.314  -1.332  24.237  0.00  0.00    +0.111 A 
ENDBRANCH  27  28
ENDBRANCH  18  25
ENDBRANCH  11  18
TORSDOF 7
ENDMDL
MODEL 4
REMARK VINA RESULT:       1.2      1.478      4.966
REMARK  Name = 45783925
REMARK  10 active torsions:
REMARK  status: ('A' for Active; 'I' for Inactive)
REMARK    1  A    between atoms: N_3  and  C_13
REMARK    2  A    between atoms: C_8  and  C_12
REMARK    3  A    between atoms: C_9  and  C_13
REMARK    4  A    between atoms: C_11  and  C_18
REMARK    5  A    between atoms: C_12  and  C_22
REMARK    6  A    between atoms: C_12  and  C_23
REMARK    7  A    between atoms: C_15  and  C_24
REMARK    8  A    between atoms: C_18  and  C_25
REMARK    9  A    between atoms: C_19  and  C_26
REMARK   10  A    between atoms: C_27  and  C_28
REMARK                            x       y       z     vdW  Elec       q    Type
REMARK                         _______ _______ _______ _____ _____    ______ ____
ROOT
ATOM      8  C   UNL     1      -0.953  -1.066  25.487  0.00  0.00    +0.000 C 
ATOM      9  C   UNL     1      -0.969  -0.686  23.989  0.00  0.00    +0.029 C 
ATOM     10  C   UNL     1      -2.235  -0.583  26.179  0.00  0.00    +0.012 C 
ATOM     11  C   UNL     1      -3.524  -1.126  25.525  0.00  0.00    +0.024 C 
ATOM     14  C   UNL     1      -2.302  -0.952  23.338  0.00  0.00    -0.023 C 
ATOM     15  C   UNL     1      -3.451  -1.163  24.006  0.00  0.00    -0.073 C 
ATOM     24  C   UNL     1      -4.711  -1.505  23.259  0.00  0.00    +0.039 C 
ENDROOT
BRANCH   8  12
ATOM     12  C   UNL     1      -0.754  -2.577  25.680  0.00  0.00    -0.013 C 
ATOM     22  C   UNL     1       0.723  -2.938  25.560  0.00  0.00    +0.007 C 
ATOM     23  C   UNL     1      -1.586  -3.355  24.665  0.00  0.00    +0.007 C 
ENDBRANCH   8  12
BRANCH   9  13
ATOM     13  C   UNL     1      -0.587   0.782  23.772  0.00  0.00    +0.092 C 
BRANCH  13   3
ATOM      3  N   UNL     1       0.661   0.884  23.014  0.00  0.00    -0.302 NA
ATOM     16  C   UNL     1       1.687   1.575  23.806  0.00  0.00    +0.085 C 
ATOM     17  C   UNL     1       1.123  -0.448  22.605  0.00  0.00    +0.085 C 
ATOM     19  C   UNL     1       3.505   0.448  22.424  0.00  0.00    +0.077 C 
ATOM     20  C   UNL     1       2.974   1.761  22.999  0.00  0.00    +0.028 C 
ATOM     21  C   UNL     1       2.394  -0.360  21.755  0.00  0.00    +0.028 C 
BRANCH  19  26
ATOM      2  O   UNL     1       3.953  -1.546  23.670  0.00  0.00    -0.276 OA
ATOM      5  N   UNL     1       5.061   0.382  24.265  0.00  0.00    -0.329 N 
ATOM     26  C   UNL     1       4.185  -0.351  23.498  0.00  0.00    +0.214 C 
ATOM     33  H   UNL     1       5.576  -0.051  25.024  0.00  0.00    +0.145 HD
ATOM     34  H   UNL     1       5.224   1.372  24.111  0.00  0.00    +0.145 HD
ENDBRANCH  19  26
ENDBRANCH  13   3
ENDBRANCH   9  13
BRANCH  11  18
ATOM     18  C   UNL     1      -4.716  -0.313  26.046  0.00  0.00    +0.105 C 
BRANCH  18  25
ATOM      1  O   UNL     1      -3.439   1.717  25.592  0.00  0.00    -0.420 OA
ATOM      4  N   UNL     1      -5.621   1.885  25.130  0.00  0.00    -0.112 NA
ATOM      6  N   UNL     1      -5.026   3.095  24.828  0.00  0.00    -0.107 NA
ATOM     25  C   UNL     1      -4.658   1.111  25.571  0.00  0.00    +0.218 A 
ATOM     27  C   UNL     1      -3.753   2.951  25.113  0.00  0.00    +0.248 A 
BRANCH  27  28
ATOM      7  N   UNL     1      -0.540   5.680  24.780  0.00  0.00    -0.263 NA
ATOM     28  C   UNL     1      -2.664   3.877  24.999  0.00  0.00    +0.041 A 
ATOM     29  C   UNL     1      -2.892   5.243  25.126  0.00  0.00    +0.033 A 
ATOM     30  C   UNL     1      -1.375   3.412  24.762  0.00  0.00    +0.033 A 
ATOM     31  C   UNL     1      -1.806   6.095  25.010  0.00  0.00    +0.111 A 
ATOM     32  C   UNL     1      -0.357   4.346  24.662  0.00  0.00    +0.111 A 
ENDBRANCH  27  28
ENDBRANCH  18  25
ENDBRANCH  11  18
TORSDOF 7
ENDMDL
MODEL 5
REMARK VINA RESULT:       1.7      2.529      5.260
REMARK  Name = 45783925
REMARK  10 active torsions:
REMARK  status: ('A' for Active; 'I' for Inactive)
REMARK    1  A    between atoms: N_3  and  C_13
REMARK    2  A    between atoms: C_8  and  C_12
REMARK    3  A    between atoms: C_9  and  C_13
REMARK    4  A    between atoms: C_11  and  C_18
REMARK    5  A    between atoms: C_12  and  C_22
REMARK    6  A    between atoms: C_12  and  C_23
REMARK    7  A    between atoms: C_15  and  C_24
REMARK    8  A    between atoms: C_18  and  C_25
REMARK    9  A    between atoms: C_19  and  C_26
REMARK   10  A    between atoms: C_27  and  C_28
REMARK                            x       y       z     vdW  Elec       q    Type
REMARK                         _______ _______ _______ _____ _____    ______ ____
ROOT
ATOM      8  C   UNL     1      -2.734  -0.810  24.609  0.00  0.00    +0.000 C 
ATOM      9  C   UNL     1      -1.618  -0.668  23.548  0.00  0.00    +0.029 C 
ATOM     10  C   UNL     1      -2.994   0.536  25.299  0.00  0.00    +0.012 C 
ATOM     11  C   UNL     1      -3.361   1.668  24.316  0.00  0.00    +0.024 C 
ATOM     14  C   UNL     1      -1.771   0.574  22.709  0.00  0.00    -0.023 C 
ATOM     15  C   UNL     1      -2.553   1.622  23.027  0.00  0.00    -0.073 C 
ATOM     24  C   UNL     1      -2.700   2.777  22.075  0.00  0.00    +0.039 C 
ENDROOT
BRANCH   8  12
ATOM     12  C   UNL     1      -4.022  -1.375  23.993  0.00  0.00    -0.013 C 
ATOM     22  C   UNL     1      -5.243  -0.658  24.561  0.00  0.00    +0.007 C 
ATOM     23  C   UNL     1      -4.114  -2.878  24.240  0.00  0.00    +0.007 C 
ENDBRANCH   8  12
BRANCH   9  13
ATOM     13  C   UNL     1      -0.225  -0.676  24.187  0.00  0.00    +0.092 C 
BRANCH  13   3
ATOM      3  N   UNL     1       0.741   0.007  23.326  0.00  0.00    -0.302 NA
ATOM     16  C   UNL     1       1.468   1.033  24.083  0.00  0.00    +0.085 C 
ATOM     17  C   UNL     1       1.671  -0.962  22.731  0.00  0.00    +0.085 C 
ATOM     19  C   UNL     1       3.388   0.899  22.416  0.00  0.00    +0.077 C 
ATOM     20  C   UNL     1       2.428   1.810  23.179  0.00  0.00    +0.028 C 
ATOM     21  C   UNL     1       2.652  -0.277  21.775  0.00  0.00    +0.028 C 
BRANCH  19  26
ATOM      2  O   UNL     1       5.341   1.184  23.769  0.00  0.00    -0.276 OA
ATOM      5  N   UNL     1       4.443  -0.927  23.584  0.00  0.00    -0.329 N 
ATOM     26  C   UNL     1       4.484   0.423  23.324  0.00  0.00    +0.214 C 
ATOM     33  H   UNL     1       5.136  -1.363  24.182  0.00  0.00    +0.145 HD
ATOM     34  H   UNL     1       3.732  -1.536  23.193  0.00  0.00    +0.145 HD
ENDBRANCH  19  26
ENDBRANCH  13   3
ENDBRANCH   9  13
BRANCH  11  18
ATOM     18  C   UNL     1      -3.241   3.010  25.048  0.00  0.00    +0.105 C 
BRANCH  18  25
ATOM      1  O   UNL     1      -1.357   2.830  26.590  0.00  0.00    -0.420 OA
ATOM      4  N   UNL     1      -0.913   3.996  24.733  0.00  0.00    -0.112 NA
ATOM      6  N   UNL     1       0.232   3.974  25.508  0.00  0.00    -0.107 NA
ATOM     25  C   UNL     1      -1.813   3.316  25.403  0.00  0.00    +0.218 A 
ATOM     27  C   UNL     1      -0.074   3.283  26.581  0.00  0.00    +0.248 A 
BRANCH  27  28
ATOM      7  N   UNL     1       2.271   2.270  29.952  0.00  0.00    -0.263 NA
ATOM     28  C   UNL     1       0.722   2.939  27.724  0.00  0.00    +0.041 A 
ATOM     29  C   UNL     1       2.109   2.989  27.650  0.00  0.00    +0.033 A 
ATOM     30  C   UNL     1       0.108   2.554  28.911  0.00  0.00    +0.033 A 
ATOM     31  C   UNL     1       2.832   2.648  28.781  0.00  0.00    +0.111 A 
ATOM     32  C   UNL     1       0.920   2.233  29.986  0.00  0.00    +0.111 A 
ENDBRANCH  27  28
ENDBRANCH  18  25
ENDBRANCH  11  18
TORSDOF 7
ENDMDL
MODEL 6
REMARK VINA RESULT:       2.1      1.847      5.804
REMARK  Name = 45783925
REMARK  10 active torsions:
REMARK  status: ('A' for Active; 'I' for Inactive)
REMARK    1  A    between atoms: N_3  and  C_13
REMARK    2  A    between atoms: C_8  and  C_12
REMARK    3  A    between atoms: C_9  and  C_13
REMARK    4  A    between atoms: C_11  and  C_18
REMARK    5  A    between atoms: C_12  and  C_22
REMARK    6  A    between atoms: C_12  and  C_23
REMARK    7  A    between atoms: C_15  and  C_24
REMARK    8  A    between atoms: C_18  and  C_25
REMARK    9  A    between atoms: C_19  and  C_26
REMARK   10  A    between atoms: C_27  and  C_28
REMARK                            x       y       z     vdW  Elec       q    Type
REMARK                         _______ _______ _______ _____ _____    ______ ____
ROOT
ATOM      8  C   UNL     1      -4.347   2.144  25.495  0.00  0.00    +0.000 C 
ATOM      9  C   UNL     1      -4.440   2.488  23.990  0.00  0.00    +0.029 C 
ATOM     10  C   UNL     1      -2.882   2.117  25.950  0.00  0.00    +0.012 C 
ATOM     11  C   UNL     1      -2.132   3.439  25.679  0.00  0.00    +0.024 C 
ATOM     14  C   UNL     1      -3.525   3.620  23.597  0.00  0.00    -0.023 C 
ATOM     15  C   UNL     1      -2.497   4.067  24.342  0.00  0.00    -0.073 C 
ATOM     24  C   UNL     1      -1.699   5.261  23.894  0.00  0.00    +0.039 C 
ENDROOT
BRANCH   8  12
ATOM     12  C   UNL     1      -5.175   3.119  26.344  0.00  0.00    -0.013 C 
ATOM     22  C   UNL     1      -6.312   2.382  27.043  0.00  0.00    +0.007 C 
ATOM     23  C   UNL     1      -5.716   4.251  25.477  0.00  0.00    +0.007 C 
ENDBRANCH   8  12
BRANCH   9  13
ATOM     13  C   UNL     1      -4.141   1.270  23.110  0.00  0.00    +0.092 C 
BRANCH  13   3
ATOM      3  N   UNL     1      -4.185   0.039  23.901  0.00  0.00    -0.302 NA
ATOM     16  C   UNL     1      -4.029  -1.134  23.032  0.00  0.00    +0.085 C 
ATOM     17  C   UNL     1      -3.150   0.062  24.942  0.00  0.00    +0.085 C 
ATOM     19  C   UNL     1      -3.190  -2.488  25.018  0.00  0.00    +0.077 C 
ATOM     20  C   UNL     1      -4.151  -2.433  23.831  0.00  0.00    +0.028 C 
ATOM     21  C   UNL     1      -3.219  -1.190  25.822  0.00  0.00    +0.028 C 
BRANCH  19  26
ATOM      2  O   UNL     1      -1.587  -3.546  23.590  0.00  0.00    -0.276 OA
ATOM      5  N   UNL     1      -0.812  -2.203  25.290  0.00  0.00    -0.329 N 
ATOM     26  C   UNL     1      -1.800  -2.803  24.546  0.00  0.00    +0.214 C 
ATOM     33  H   UNL     1       0.167  -2.346  25.067  0.00  0.00    +0.145 HD
ATOM     34  H   UNL     1      -1.015  -1.604  26.084  0.00  0.00    +0.145 HD
ENDBRANCH  19  26
ENDBRANCH  13   3
ENDBRANCH   9  13
BRANCH  11  18
ATOM     18  C   UNL     1      -0.626   3.188  25.829  0.00  0.00    +0.105 C 
BRANCH  18  25
ATOM      1  O   UNL     1       1.204   1.939  24.806  0.00  0.00    -0.420 OA
ATOM      4  N   UNL     1      -0.802   1.522  23.909  0.00  0.00    -0.112 NA
ATOM      6  N   UNL     1       0.133   0.754  23.240  0.00  0.00    -0.107 NA
ATOM     25  C   UNL     1      -0.132   2.196  24.814  0.00  0.00    +0.218 A 
ATOM     27  C   UNL     1       1.289   1.030  23.797  0.00  0.00    +0.248 A 
BRANCH  27  28
ATOM      7  N   UNL     1       5.162  -0.444  22.951  0.00  0.00    -0.263 NA
ATOM     28  C   UNL     1       2.603   0.530  23.510  0.00  0.00    +0.041 A 
ATOM     29  C   UNL     1       2.923  -0.794  23.791  0.00  0.00    +0.033 A 
ATOM     30  C   UNL     1       3.561   1.368  22.950  0.00  0.00    +0.033 A 
ATOM     31  C   UNL     1       4.204  -1.228  23.495  0.00  0.00    +0.111 A 
ATOM     32  C   UNL     1       4.814   0.837  22.691  0.00  0.00    +0.111 A 
ENDBRANCH  27  28
ENDBRANCH  18  25
ENDBRANCH  11  18
TORSDOF 7
ENDMDL
MODEL 7
REMARK VINA RESULT:       2.2      2.030      6.163
REMARK  Name = 45783925
REMARK  10 active torsions:
REMARK  status: ('A' for Active; 'I' for Inactive)
REMARK    1  A    between atoms: N_3  and  C_13
REMARK    2  A    between atoms: C_8  and  C_12
REMARK    3  A    between atoms: C_9  and  C_13
REMARK    4  A    between atoms: C_11  and  C_18
REMARK    5  A    between atoms: C_12  and  C_22
REMARK    6  A    between atoms: C_12  and  C_23
REMARK    7  A    between atoms: C_15  and  C_24
REMARK    8  A    between atoms: C_18  and  C_25
REMARK    9  A    between atoms: C_19  and  C_26
REMARK   10  A    between atoms: C_27  and  C_28
REMARK                            x       y       z     vdW  Elec       q    Type
REMARK                         _______ _______ _______ _____ _____    ______ ____
ROOT
ATOM      8  C   UNL     1      -3.250   2.537  23.726  0.00  0.00    +0.000 C 
ATOM      9  C   UNL     1      -4.393   2.120  24.680  0.00  0.00    +0.029 C 
ATOM     10  C   UNL     1      -2.066   1.569  23.849  0.00  0.00    +0.012 C 
ATOM     11  C   UNL     1      -2.448   0.098  23.580  0.00  0.00    +0.024 C 
ATOM     14  C   UNL     1      -4.650   0.635  24.661  0.00  0.00    -0.023 C 
ATOM     15  C   UNL     1      -3.800  -0.283  24.164  0.00  0.00    -0.073 C 
ATOM     24  C   UNL     1      -4.194  -1.734  24.117  0.00  0.00    +0.039 C 
ENDROOT
BRANCH   8  12
ATOM     12  C   UNL     1      -3.739   2.633  22.274  0.00  0.00    -0.013 C 
ATOM     22  C   UNL     1      -2.613   2.280  21.308  0.00  0.00    +0.007 C 
ATOM     23  C   UNL     1      -4.280   4.030  21.986  0.00  0.00    +0.007 C 
ENDBRANCH   8  12
BRANCH   9  13
ATOM     13  C   UNL     1      -4.120   2.565  26.120  0.00  0.00    +0.092 C 
BRANCH  13   3
ATOM      3  N   UNL     1      -2.900   3.371  26.189  0.00  0.00    -0.302 NA
ATOM     16  C   UNL     1      -1.712   2.511  26.118  0.00  0.00    +0.085 C 
ATOM     17  C   UNL     1      -2.886   4.373  25.115  0.00  0.00    +0.085 C 
ATOM     19  C   UNL     1      -0.342   4.481  25.266  0.00  0.00    +0.077 C 
ATOM     20  C   UNL     1      -0.428   3.331  26.268  0.00  0.00    +0.028 C 
ATOM     21  C   UNL     1      -1.649   5.270  25.206  0.00  0.00    +0.028 C 
BRANCH  19  26
ATOM      2  O   UNL     1      -0.149   4.610  22.884  0.00  0.00    -0.276 OA
ATOM      5  N   UNL     1       0.592   2.701  23.934  0.00  0.00    -0.329 N 
ATOM     26  C   UNL     1       0.040   3.961  23.911  0.00  0.00    +0.214 C 
ATOM     33  H   UNL     1       0.885   2.245  23.077  0.00  0.00    +0.145 HD
ATOM     34  H   UNL     1       0.724   2.180  24.795  0.00  0.00    +0.145 HD
ENDBRANCH  19  26
ENDBRANCH  13   3
ENDBRANCH   9  13
BRANCH  11  18
ATOM     18  C   UNL     1      -1.309  -0.803  24.076  0.00  0.00    +0.105 C 
BRANCH  18  25
ATOM      1  O   UNL     1       1.114  -0.571  23.904  0.00  0.00    -0.420 OA
ATOM      4  N   UNL     1       0.049  -0.534  21.938  0.00  0.00    -0.112 NA
ATOM      6  N   UNL     1       1.402  -0.395  21.693  0.00  0.00    -0.107 NA
ATOM     25  C   UNL     1      -0.073  -0.634  23.240  0.00  0.00    +0.218 A 
ATOM     27  C   UNL     1       1.985  -0.422  22.869  0.00  0.00    +0.248 A 
BRANCH  27  28
ATOM      7  N   UNL     1       6.072  -0.121  23.912  0.00  0.00    -0.263 NA
ATOM     28  C   UNL     1       3.371  -0.320  23.223  0.00  0.00    +0.041 A 
ATOM     29  C   UNL     1       4.019  -1.394  23.823  0.00  0.00    +0.033 A 
ATOM     30  C   UNL     1       4.072   0.854  22.968  0.00  0.00    +0.033 A 
ATOM     31  C   UNL     1       5.358  -1.246  24.145  0.00  0.00    +0.111 A 
ATOM     32  C   UNL     1       5.409   0.902  23.328  0.00  0.00    +0.111 A 
ENDBRANCH  27  28
ENDBRANCH  18  25
ENDBRANCH  11  18
TORSDOF 7
ENDMDL
