MODEL 1
REMARK VINA RESULT:       3.0      0.000      0.000
REMARK  Name = 44716356
REMARK  7 active torsions:
REMARK  status: ('A' for Active; 'I' for Inactive)
REMARK    1  A    between atoms: N_3  and  C_18
REMARK    2  A    between atoms: N_4  and  C_13
REMARK    3  A    between atoms: N_4  and  C_17
REMARK    4  A    between atoms: C_7  and  C_14
REMARK    5  A    between atoms: C_8  and  C_13
REMARK    6  A    between atoms: C_16  and  C_19
REMARK    7  A    between atoms: C_17  and  C_20
REMARK                            x       y       z     vdW  Elec       q    Type
REMARK                         _______ _______ _______ _____ _____    ______ ____
ROOT
ATOM      2  N   UNL     1      -5.328   2.222  26.141  0.00  0.00    -0.298 NA
ATOM      6  C   UNL     1      -5.010   1.117  23.805  0.00  0.00    +0.002 C 
ATOM      7  C   UNL     1      -4.205   0.345  24.886  0.00  0.00    +0.055 C 
ATOM      8  C   UNL     1      -4.962   3.254  25.136  0.00  0.00    +0.071 C 
ATOM      9  C   UNL     1      -4.568   2.595  23.797  0.00  0.00    +0.024 C 
ATOM     10  C   UNL     1      -6.489   1.088  24.248  0.00  0.00    +0.019 C 
ATOM     11  C   UNL     1      -4.279   1.174  26.200  0.00  0.00    +0.094 C 
ATOM     12  C   UNL     1      -6.593   1.587  25.700  0.00  0.00    +0.085 C 
ENDROOT
BRANCH   7  14
ATOM      3  N   UNL     1      -2.398  -1.388  24.463  0.00  0.00    -0.270 N 
ATOM      5  N   UNL     1      -1.100  -1.553  24.160  0.00  0.00    -0.171 NA
ATOM     14  C   UNL     1      -2.782  -0.082  24.553  0.00  0.00    +0.044 A 
ATOM     15  C   UNL     1      -1.655   0.659  24.290  0.00  0.00    +0.053 A 
ATOM     16  C   UNL     1      -0.651  -0.299  24.054  0.00  0.00    +0.093 A 
ATOM     18  C   UNL     1      -3.231  -2.552  24.660  0.00  0.00    +0.172 C 
BRANCH  16  19
ATOM     19  C   UNL     1       0.728  -0.041  23.733  0.00  0.00    +0.003 A 
ATOM     21  C   UNL     1       1.699  -1.005  24.005  0.00  0.00    +0.018 A 
ATOM     22  C   UNL     1       1.092   1.170  23.150  0.00  0.00    +0.011 A 
ATOM     24  C   UNL     1       3.049  -0.769  23.696  0.00  0.00    -0.017 A 
ATOM     25  C   UNL     1       2.429   1.421  22.838  0.00  0.00    +0.009 A 
ATOM     26  C   UNL     1       3.419   0.461  23.105  0.00  0.00    -0.018 A 
ATOM     29  C   UNL     1       4.040  -1.729  23.963  0.00  0.00    +0.008 A 
ATOM     30  C   UNL     1       4.768   0.697  22.796  0.00  0.00    +0.008 A 
ATOM     31  C   UNL     1       5.376  -1.478  23.650  0.00  0.00    +0.001 A 
ATOM     32  C   UNL     1       5.739  -0.268  23.067  0.00  0.00    +0.001 A 
ENDBRANCH  16  19
ENDBRANCH   7  14
BRANCH   8  13
ATOM     13  C   UNL     1      -3.875   4.203  25.645  0.00  0.00    +0.100 C 
BRANCH  13   4
ATOM      4  N   UNL     1      -3.079   4.717  24.542  0.00  0.00    -0.308 NA
ATOM     33  H   UNL     1      -3.584   5.482  24.096  0.00  0.00    +0.122 HD
BRANCH   4  17
ATOM     17  C   UNL     1      -1.779   5.185  25.006  0.00  0.00    +0.155 C 
BRANCH  17  20
ATOM      1  O   UNL     1      -1.507   3.354  26.587  0.00  0.00    -0.467 OA
ATOM     20  C   UNL     1      -0.948   4.065  25.572  0.00  0.00    +0.119 A 
ATOM     23  C   UNL     1       0.305   3.581  25.278  0.00  0.00    +0.046 A 
ATOM     27  C   UNL     1       0.531   2.505  26.168  0.00  0.00    +0.041 A 
ATOM     28  C   UNL     1      -0.601   2.407  26.943  0.00  0.00    +0.195 A 
ENDBRANCH  17  20
ENDBRANCH   4  17
ENDBRANCH  13   4
ENDBRANCH   8  13
TORSDOF 6
ENDMDL
MODEL 2
REMARK VINA RESULT:       3.4      1.672      3.675
REMARK  Name = 44716356
REMARK  7 active torsions:
REMARK  status: ('A' for Active; 'I' for Inactive)
REMARK    1  A    between atoms: N_3  and  C_18
REMARK    2  A    between atoms: N_4  and  C_13
REMARK    3  A    between atoms: N_4  and  C_17
REMARK    4  A    between atoms: C_7  and  C_14
REMARK    5  A    between atoms: C_8  and  C_13
REMARK    6  A    between atoms: C_16  and  C_19
REMARK    7  A    between atoms: C_17  and  C_20
REMARK                            x       y       z     vdW  Elec       q    Type
REMARK                         _______ _______ _______ _____ _____    ______ ____
ROOT
ATOM      2  N   UNL     1      -5.034   4.016  24.697  0.00  0.00    -0.298 NA
ATOM      6  C   UNL     1      -2.833   3.723  26.056  0.00  0.00    +0.002 C 
ATOM      7  C   UNL     1      -2.537   3.705  24.531  0.00  0.00    +0.055 C 
ATOM      8  C   UNL     1      -5.206   2.949  25.717  0.00  0.00    +0.071 C 
ATOM      9  C   UNL     1      -3.857   2.617  26.391  0.00  0.00    +0.024 C 
ATOM     10  C   UNL     1      -3.510   5.076  26.362  0.00  0.00    +0.019 C 
ATOM     11  C   UNL     1      -3.906   3.680  23.793  0.00  0.00    +0.094 C 
ATOM     12  C   UNL     1      -4.701   5.274  25.407  0.00  0.00    +0.085 C 
ENDROOT
BRANCH   7  14
ATOM      3  N   UNL     1      -1.830   1.910  22.882  0.00  0.00    -0.270 N 
ATOM      5  N   UNL     1      -0.857   1.035  22.579  0.00  0.00    -0.171 NA
ATOM     14  C   UNL     1      -1.576   2.652  23.998  0.00  0.00    +0.044 A 
ATOM     15  C   UNL     1      -0.351   2.233  24.456  0.00  0.00    +0.053 A 
ATOM     16  C   UNL     1       0.045   1.237  23.544  0.00  0.00    +0.093 A 
ATOM     18  C   UNL     1      -3.003   1.981  22.042  0.00  0.00    +0.172 C 
BRANCH  16  19
ATOM     19  C   UNL     1       1.266   0.474  23.576  0.00  0.00    +0.003 A 
ATOM     21  C   UNL     1       2.493   1.116  23.407  0.00  0.00    +0.018 A 
ATOM     22  C   UNL     1       1.220  -0.902  23.777  0.00  0.00    +0.011 A 
ATOM     24  C   UNL     1       3.693   0.385  23.438  0.00  0.00    -0.017 A 
ATOM     25  C   UNL     1       2.403  -1.643  23.809  0.00  0.00    +0.009 A 
ATOM     26  C   UNL     1       3.647  -1.014  23.641  0.00  0.00    -0.018 A 
ATOM     29  C   UNL     1       4.937   1.015  23.269  0.00  0.00    +0.008 A 
ATOM     30  C   UNL     1       4.846  -1.743  23.671  0.00  0.00    +0.008 A 
ATOM     31  C   UNL     1       6.119   0.275  23.302  0.00  0.00    +0.001 A 
ATOM     32  C   UNL     1       6.074  -1.102  23.503  0.00  0.00    +0.001 A 
ENDBRANCH  16  19
ENDBRANCH   7  14
BRANCH   8  13
ATOM     13  C   UNL     1      -5.879   1.699  25.146  0.00  0.00    +0.100 C 
BRANCH  13   4
ATOM      4  N   UNL     1      -5.136   0.502  25.503  0.00  0.00    -0.308 NA
ATOM     33  H   UNL     1      -5.743  -0.120  26.036  0.00  0.00    +0.122 HD
BRANCH   4  17
ATOM     17  C   UNL     1      -4.644  -0.183  24.315  0.00  0.00    +0.155 C 
BRANCH  17  20
ATOM      1  O   UNL     1      -2.491  -0.457  25.417  0.00  0.00    -0.467 OA
ATOM     20  C   UNL     1      -3.429  -1.022  24.612  0.00  0.00    +0.119 A 
ATOM     23  C   UNL     1      -3.043  -2.286  24.233  0.00  0.00    +0.046 A 
ATOM     27  C   UNL     1      -1.786  -2.513  24.843  0.00  0.00    +0.041 A 
ATOM     28  C   UNL     1      -1.495  -1.371  25.552  0.00  0.00    +0.195 A 
ENDBRANCH  17  20
ENDBRANCH   4  17
ENDBRANCH  13   4
ENDBRANCH   8  13
TORSDOF 6
ENDMDL
MODEL 3
REMARK VINA RESULT:       3.9      1.719      3.818
REMARK  Name = 44716356
REMARK  7 active torsions:
REMARK  status: ('A' for Active; 'I' for Inactive)
REMARK    1  A    between atoms: N_3  and  C_18
REMARK    2  A    between atoms: N_4  and  C_13
REMARK    3  A    between atoms: N_4  and  C_17
REMARK    4  A    between atoms: C_7  and  C_14
REMARK    5  A    between atoms: C_8  and  C_13
REMARK    6  A    between atoms: C_16  and  C_19
REMARK    7  A    between atoms: C_17  and  C_20
REMARK                            x       y       z     vdW  Elec       q    Type
REMARK                         _______ _______ _______ _____ _____    ______ ____
ROOT
ATOM      2  N   UNL     1      -5.757   2.484  24.400  0.00  0.00    -0.298 NA
ATOM      6  C   UNL     1      -4.065   3.776  25.900  0.00  0.00    +0.002 C 
ATOM      7  C   UNL     1      -3.508   3.624  24.458  0.00  0.00    +0.055 C 
ATOM      8  C   UNL     1      -5.531   1.741  25.667  0.00  0.00    +0.071 C 
ATOM      9  C   UNL     1      -4.381   2.379  26.475  0.00  0.00    +0.024 C 
ATOM     10  C   UNL     1      -5.406   4.531  25.780  0.00  0.00    +0.019 C 
ATOM     11  C   UNL     1      -4.470   2.677  23.685  0.00  0.00    +0.094 C 
ATOM     12  C   UNL     1      -6.298   3.820  24.747  0.00  0.00    +0.085 C 
ENDROOT
BRANCH   7  14
ATOM      3  N   UNL     1      -1.012   4.081  24.516  0.00  0.00    -0.270 N 
ATOM      5  N   UNL     1       0.199   3.535  24.312  0.00  0.00    -0.171 NA
ATOM     14  C   UNL     1      -2.049   3.224  24.290  0.00  0.00    +0.044 A 
ATOM     15  C   UNL     1      -1.476   2.035  23.912  0.00  0.00    +0.053 A 
ATOM     16  C   UNL     1      -0.091   2.284  23.943  0.00  0.00    +0.093 A 
ATOM     18  C   UNL     1      -1.102   5.461  24.934  0.00  0.00    +0.172 C 
BRANCH  16  19
ATOM     19  C   UNL     1       0.960   1.353  23.627  0.00  0.00    +0.003 A 
ATOM     21  C   UNL     1       2.293   1.715  23.821  0.00  0.00    +0.018 A 
ATOM     22  C   UNL     1       0.645   0.091  23.129  0.00  0.00    +0.011 A 
ATOM     24  C   UNL     1       3.331   0.817  23.519  0.00  0.00    -0.017 A 
ATOM     25  C   UNL     1       1.664  -0.813  22.823  0.00  0.00    +0.009 A 
ATOM     26  C   UNL     1       3.011  -0.465  23.012  0.00  0.00    -0.018 A 
ATOM     29  C   UNL     1       4.678   1.165  23.708  0.00  0.00    +0.008 A 
ATOM     30  C   UNL     1       4.048  -1.362  22.710  0.00  0.00    +0.008 A 
ATOM     31  C   UNL     1       5.696   0.261  23.402  0.00  0.00    +0.001 A 
ATOM     32  C   UNL     1       5.381  -1.000  22.904  0.00  0.00    +0.001 A 
ENDBRANCH  16  19
ENDBRANCH   7  14
BRANCH   8  13
ATOM     13  C   UNL     1      -5.301   0.246  25.432  0.00  0.00    +0.100 C 
BRANCH  13   4
ATOM      4  N   UNL     1      -4.471   0.029  24.258  0.00  0.00    -0.308 NA
ATOM     33  H   UNL     1      -3.683   0.676  24.283  0.00  0.00    +0.122 HD
BRANCH   4  17
ATOM     17  C   UNL     1      -3.984  -1.344  24.207  0.00  0.00    +0.155 C 
BRANCH  17  20
ATOM      1  O   UNL     1      -2.274  -0.559  25.751  0.00  0.00    -0.467 OA
ATOM     20  C   UNL     1      -2.608  -1.474  24.804  0.00  0.00    +0.119 A 
ATOM     23  C   UNL     1      -1.570  -2.351  24.592  0.00  0.00    +0.046 A 
ATOM     27  C   UNL     1      -0.531  -1.949  25.465  0.00  0.00    +0.041 A 
ATOM     28  C   UNL     1      -1.009  -0.856  26.149  0.00  0.00    +0.195 A 
ENDBRANCH  17  20
ENDBRANCH   4  17
ENDBRANCH  13   4
ENDBRANCH   8  13
TORSDOF 6
ENDMDL
