MODEL 1
REMARK VINA RESULT:      -3.3      0.000      0.000
REMARK  Name = 11867500
REMARK  8 active torsions:
REMARK  status: ('A' for Active; 'I' for Inactive)
REMARK    1  A    between atoms: O_3  and  C_14
REMARK    2  A    between atoms: O_3  and  C_24
REMARK    3  A    between atoms: N_5  and  C_13
REMARK    4  A    between atoms: N_6  and  C_17
REMARK    5  A    between atoms: N_10  and  C_30
REMARK    6  A    between atoms: N_10  and  C_31
REMARK    7  A    between atoms: N_10  and  C_32
REMARK    8  A    between atoms: C_20  and  C_25
REMARK                            x       y       z     vdW  Elec       q    Type
REMARK                         _______ _______ _______ _____ _____    ______ ____
ROOT
ATOM      1  O   UNL     1      12.833  -8.128  30.924  0.00  0.00    -0.368 OA
ATOM      2  O   UNL     1      14.282  -5.656  32.084  0.00  0.00    -0.368 OA
ATOM     11  C   UNL     1      14.454  -7.074  32.305  0.00  0.00    +0.177 C 
ATOM     12  C   UNL     1      13.071  -7.694  32.272  0.00  0.00    +0.192 C 
ATOM     13  C   UNL     1      15.174  -7.688  31.119  0.00  0.00    +0.168 C 
ATOM     14  C   UNL     1      12.178  -6.535  32.651  0.00  0.00    +0.235 C 
ATOM     15  C   UNL     1      14.034  -7.985  30.152  0.00  0.00    +0.190 C 
ATOM     16  C   UNL     1      12.880  -5.368  31.996  0.00  0.00    +0.207 C 
ENDROOT
BRANCH  13   5
ATOM      5  N   UNL     1      15.994  -8.841  31.497  0.00  0.00    -0.217 N 
ATOM      7  N   UNL     1      16.482  -8.951  32.737  0.00  0.00    -0.043 NA
ATOM      8  N   UNL     1      17.108 -10.695  31.497  0.00  0.00    -0.108 NA
ATOM      9  N   UNL     1      17.163 -10.090  32.733  0.00  0.00    -0.023 NA
ATOM     20  C   UNL     1      16.377  -9.902  30.747  0.00  0.00    +0.182 A 
BRANCH  20  25
ATOM     25  C   UNL     1      16.027 -10.098  29.364  0.00  0.00    +0.021 A 
ATOM     26  C   UNL     1      14.741 -10.521  29.021  0.00  0.00    +0.013 A 
ATOM     27  C   UNL     1      16.972  -9.867  28.363  0.00  0.00    +0.013 A 
ATOM     28  C   UNL     1      14.402 -10.711  27.682  0.00  0.00    +0.024 A 
ATOM     29  C   UNL     1      16.634 -10.057  27.024  0.00  0.00    +0.024 A 
ATOM     30  C   UNL     1      15.348 -10.479  26.683  0.00  0.00    +0.029 A 
BRANCH  30  10
ATOM     10  N   UNL     1      15.005 -10.670  25.328  0.00  0.00    -0.336 N 
ATOM     31  C   UNL     1      16.037 -10.748  24.314  0.00  0.00    +0.129 C 
ATOM     32  C   UNL     1      13.615 -10.780  24.931  0.00  0.00    +0.129 C 
ENDBRANCH  30  10
ENDBRANCH  20  25
ENDBRANCH  13   5
BRANCH  14   3
ATOM      3  O   UNL     1      10.850  -6.678  32.201  0.00  0.00    -0.442 OA
BRANCH   3  24
ATOM      4  O   UNL     1      10.794  -8.873  32.873  0.00  0.00    -0.226 OA
ATOM      6  N   UNL     1       8.854  -7.651  32.523  0.00  0.00    -0.278 N 
ATOM     24  C   UNL     1      10.220  -7.835  32.563  0.00  0.00    +0.401 C 
ATOM     33  H   UNL     1       8.512  -6.749  32.203  0.00  0.00    +0.152 HD
BRANCH   6  17
ATOM     17  C   UNL     1       7.895  -8.683  32.851  0.00  0.00    +0.076 C 
ATOM     18  C   UNL     1       8.246 -10.002  32.153  0.00  0.00    +0.022 C 
ATOM     19  C   UNL     1       6.469  -8.238  32.512  0.00  0.00    +0.022 C 
ATOM     21  C   UNL     1       7.986  -9.954  30.647  0.00  0.00    +0.002 C 
ATOM     22  C   UNL     1       6.212  -8.193  31.005  0.00  0.00    +0.002 C 
ATOM     23  C   UNL     1       6.557  -9.520  30.336  0.00  0.00    +0.000 C 
ENDBRANCH   6  17
ENDBRANCH   3  24
ENDBRANCH  14   3
TORSDOF 6
ENDMDL
MODEL 2
REMARK VINA RESULT:      -2.1     15.052     19.923
REMARK  Name = 11867500
REMARK  8 active torsions:
REMARK  status: ('A' for Active; 'I' for Inactive)
REMARK    1  A    between atoms: O_3  and  C_14
REMARK    2  A    between atoms: O_3  and  C_24
REMARK    3  A    between atoms: N_5  and  C_13
REMARK    4  A    between atoms: N_6  and  C_17
REMARK    5  A    between atoms: N_10  and  C_30
REMARK    6  A    between atoms: N_10  and  C_31
REMARK    7  A    between atoms: N_10  and  C_32
REMARK    8  A    between atoms: C_20  and  C_25
REMARK                            x       y       z     vdW  Elec       q    Type
REMARK                         _______ _______ _______ _____ _____    ______ ____
ROOT
ATOM      1  O   UNL     1      -1.705   2.199  26.024  0.00  0.00    -0.368 OA
ATOM      2  O   UNL     1      -1.352   4.984  24.731  0.00  0.00    -0.368 OA
ATOM     11  C   UNL     1      -2.402   3.997  24.636  0.00  0.00    +0.177 C 
ATOM     12  C   UNL     1      -1.730   2.639  24.657  0.00  0.00    +0.192 C 
ATOM     13  C   UNL     1      -3.241   4.025  25.900  0.00  0.00    +0.168 C 
ATOM     14  C   UNL     1      -0.344   2.946  24.143  0.00  0.00    +0.235 C 
ATOM     15  C   UNL     1      -2.469   3.102  26.836  0.00  0.00    +0.190 C 
ATOM     16  C   UNL     1      -0.084   4.314  24.731  0.00  0.00    +0.207 C 
ENDROOT
BRANCH  13   5
ATOM      5  N   UNL     1      -4.636   3.650  25.657  0.00  0.00    -0.217 N 
ATOM      7  N   UNL     1      -5.614   4.552  25.786  0.00  0.00    -0.043 NA
ATOM      8  N   UNL     1      -6.452   2.572  25.193  0.00  0.00    -0.108 NA
ATOM      9  N   UNL     1      -6.726   3.887  25.498  0.00  0.00    -0.023 NA
ATOM     20  C   UNL     1      -5.149   2.449  25.298  0.00  0.00    +0.182 A 
BRANCH  20  25
ATOM     25  C   UNL     1      -4.371   1.258  25.075  0.00  0.00    +0.021 A 
ATOM     26  C   UNL     1      -3.746   1.049  23.845  0.00  0.00    +0.013 A 
ATOM     27  C   UNL     1      -4.241   0.307  26.090  0.00  0.00    +0.013 A 
ATOM     28  C   UNL     1      -2.992  -0.105  23.631  0.00  0.00    +0.024 A 
ATOM     29  C   UNL     1      -3.488  -0.846  25.877  0.00  0.00    +0.024 A 
ATOM     30  C   UNL     1      -2.863  -1.053  24.647  0.00  0.00    +0.029 A 
BRANCH  30  10
ATOM     10  N   UNL     1      -2.101  -2.219  24.430  0.00  0.00    -0.336 N 
ATOM     31  C   UNL     1      -2.723  -3.413  23.891  0.00  0.00    +0.129 C 
ATOM     32  C   UNL     1      -0.688  -2.245  24.754  0.00  0.00    +0.129 C 
ENDBRANCH  30  10
ENDBRANCH  20  25
ENDBRANCH  13   5
BRANCH  14   3
ATOM      3  O   UNL     1       0.626   2.004  24.541  0.00  0.00    -0.442 OA
BRANCH   3  24
ATOM      4  O   UNL     1       0.346   0.383  22.938  0.00  0.00    -0.226 OA
ATOM      6  N   UNL     1       2.427   1.294  23.406  0.00  0.00    -0.278 N 
ATOM     24  C   UNL     1       1.065   1.152  23.567  0.00  0.00    +0.401 C 
ATOM     33  H   UNL     1       2.907   1.939  24.027  0.00  0.00    +0.152 HD
BRANCH   6  17
ATOM     17  C   UNL     1       3.206   0.537  22.451  0.00  0.00    +0.076 C 
ATOM     18  C   UNL     1       3.096  -0.968  22.721  0.00  0.00    +0.022 C 
ATOM     19  C   UNL     1       4.668   0.994  22.446  0.00  0.00    +0.022 C 
ATOM     21  C   UNL     1       3.849  -1.393  23.981  0.00  0.00    +0.002 C 
ATOM     22  C   UNL     1       5.420   0.566  23.707  0.00  0.00    +0.002 C 
ATOM     23  C   UNL     1       5.305  -0.936  23.947  0.00  0.00    +0.000 C 
ENDBRANCH   6  17
ENDBRANCH   3  24
ENDBRANCH  14   3
TORSDOF 6
ENDMDL
MODEL 3
REMARK VINA RESULT:      -2.0      2.075      2.402
REMARK  Name = 11867500
REMARK  8 active torsions:
REMARK  status: ('A' for Active; 'I' for Inactive)
REMARK    1  A    between atoms: O_3  and  C_14
REMARK    2  A    between atoms: O_3  and  C_24
REMARK    3  A    between atoms: N_5  and  C_13
REMARK    4  A    between atoms: N_6  and  C_17
REMARK    5  A    between atoms: N_10  and  C_30
REMARK    6  A    between atoms: N_10  and  C_31
REMARK    7  A    between atoms: N_10  and  C_32
REMARK    8  A    between atoms: C_20  and  C_25
REMARK                            x       y       z     vdW  Elec       q    Type
REMARK                         _______ _______ _______ _____ _____    ______ ____
ROOT
ATOM      1  O   UNL     1      11.854  -7.882  31.054  0.00  0.00    -0.368 OA
ATOM      2  O   UNL     1      13.166  -5.214  31.900  0.00  0.00    -0.368 OA
ATOM     11  C   UNL     1      13.562  -6.591  32.085  0.00  0.00    +0.177 C 
ATOM     12  C   UNL     1      12.293  -7.383  32.328  0.00  0.00    +0.192 C 
ATOM     13  C   UNL     1      14.110  -7.141  30.782  0.00  0.00    +0.168 C 
ATOM     14  C   UNL     1      11.348  -6.338  32.873  0.00  0.00    +0.235 C 
ATOM     15  C   UNL     1      12.851  -7.608  30.059  0.00  0.00    +0.190 C 
ATOM     16  C   UNL     1      11.749  -5.109  32.090  0.00  0.00    +0.207 C 
ENDROOT
BRANCH  13   5
ATOM      5  N   UNL     1      15.132  -8.169  30.992  0.00  0.00    -0.217 N 
ATOM      7  N   UNL     1      15.147  -8.891  32.116  0.00  0.00    -0.043 NA
ATOM      8  N   UNL     1      16.818  -9.506  30.774  0.00  0.00    -0.108 NA
ATOM      9  N   UNL     1      16.182  -9.711  31.978  0.00  0.00    -0.023 NA
ATOM     20  C   UNL     1      16.148  -8.545  30.179  0.00  0.00    +0.182 A 
BRANCH  20  25
ATOM     25  C   UNL     1      16.422  -7.968  28.888  0.00  0.00    +0.021 A 
ATOM     26  C   UNL     1      16.184  -6.612  28.663  0.00  0.00    +0.013 A 
ATOM     27  C   UNL     1      16.926  -8.766  27.859  0.00  0.00    +0.013 A 
ATOM     28  C   UNL     1      16.451  -6.054  27.412  0.00  0.00    +0.024 A 
ATOM     29  C   UNL     1      17.192  -8.209  26.608  0.00  0.00    +0.024 A 
ATOM     30  C   UNL     1      16.955  -6.853  26.385  0.00  0.00    +0.029 A 
BRANCH  30  10
ATOM     10  N   UNL     1      17.224  -6.289  25.120  0.00  0.00    -0.336 N 
ATOM     31  C   UNL     1      17.315  -4.851  24.963  0.00  0.00    +0.129 C 
ATOM     32  C   UNL     1      17.400  -7.140  23.960  0.00  0.00    +0.129 C 
ENDBRANCH  30  10
ENDBRANCH  20  25
ENDBRANCH  13   5
BRANCH  14   3
ATOM      3  O   UNL     1       9.988  -6.662  32.696  0.00  0.00    -0.442 OA
BRANCH   3  24
ATOM      4  O   UNL     1      10.501  -8.898  32.814  0.00  0.00    -0.226 OA
ATOM      6  N   UNL     1       8.306  -8.146  32.795  0.00  0.00    -0.278 N 
ATOM     24  C   UNL     1       9.677  -7.991  32.773  0.00  0.00    +0.401 C 
ATOM     33  H   UNL     1       7.739  -7.307  32.709  0.00  0.00    +0.152 HD
BRANCH   6  17
ATOM     17  C   UNL     1       7.645  -9.429  32.873  0.00  0.00    +0.076 C 
ATOM     18  C   UNL     1       8.460 -10.512  32.156  0.00  0.00    +0.022 C 
ATOM     19  C   UNL     1       6.220  -9.350  32.319  0.00  0.00    +0.022 C 
ATOM     21  C   UNL     1       8.427 -10.359  30.636  0.00  0.00    +0.002 C 
ATOM     22  C   UNL     1       6.190  -9.198  30.797  0.00  0.00    +0.002 C 
ATOM     23  C   UNL     1       6.997 -10.294  30.108  0.00  0.00    +0.000 C 
ENDBRANCH   6  17
ENDBRANCH   3  24
ENDBRANCH  14   3
TORSDOF 6
ENDMDL
MODEL 4
REMARK VINA RESULT:      -1.2      3.345      5.452
REMARK  Name = 11867500
REMARK  8 active torsions:
REMARK  status: ('A' for Active; 'I' for Inactive)
REMARK    1  A    between atoms: O_3  and  C_14
REMARK    2  A    between atoms: O_3  and  C_24
REMARK    3  A    between atoms: N_5  and  C_13
REMARK    4  A    between atoms: N_6  and  C_17
REMARK    5  A    between atoms: N_10  and  C_30
REMARK    6  A    between atoms: N_10  and  C_31
REMARK    7  A    between atoms: N_10  and  C_32
REMARK    8  A    between atoms: C_20  and  C_25
REMARK                            x       y       z     vdW  Elec       q    Type
REMARK                         _______ _______ _______ _____ _____    ______ ____
ROOT
ATOM      1  O   UNL     1      12.800  -8.513  30.150  0.00  0.00    -0.368 OA
ATOM      2  O   UNL     1      14.960  -9.252  32.234  0.00  0.00    -0.368 OA
ATOM     11  C   UNL     1      14.987  -9.185  30.791  0.00  0.00    +0.177 C 
ATOM     12  C   UNL     1      13.636  -9.670  30.304  0.00  0.00    +0.192 C 
ATOM     13  C   UNL     1      15.050  -7.734  30.352  0.00  0.00    +0.168 C 
ATOM     14  C   UNL     1      13.170 -10.550  31.441  0.00  0.00    +0.235 C 
ATOM     15  C   UNL     1      13.581  -7.324  30.336  0.00  0.00    +0.190 C 
ATOM     16  C   UNL     1      13.709  -9.819  32.648  0.00  0.00    +0.207 C 
ENDROOT
BRANCH  13   5
ATOM      5  N   UNL     1      15.764  -7.561  29.085  0.00  0.00    -0.217 N 
ATOM      7  N   UNL     1      15.800  -8.550  28.186  0.00  0.00    -0.043 NA
ATOM      8  N   UNL     1      16.930  -6.778  27.441  0.00  0.00    -0.108 NA
ATOM      9  N   UNL     1      16.515  -8.064  27.179  0.00  0.00    -0.023 NA
ATOM     20  C   UNL     1      16.452  -6.487  28.629  0.00  0.00    +0.182 A 
BRANCH  20  25
ATOM     25  C   UNL     1      16.614  -5.251  29.349  0.00  0.00    +0.021 A 
ATOM     26  C   UNL     1      16.642  -5.252  30.745  0.00  0.00    +0.013 A 
ATOM     27  C   UNL     1      16.741  -4.047  28.653  0.00  0.00    +0.013 A 
ATOM     28  C   UNL     1      16.799  -4.054  31.441  0.00  0.00    +0.024 A 
ATOM     29  C   UNL     1      16.898  -2.849  29.349  0.00  0.00    +0.024 A 
ATOM     30  C   UNL     1      16.927  -2.852  30.744  0.00  0.00    +0.029 A 
BRANCH  30  10
ATOM     10  N   UNL     1      17.086  -1.641  31.448  0.00  0.00    -0.336 N 
ATOM     31  C   UNL     1      16.946  -0.371  30.765  0.00  0.00    +0.129 C 
ATOM     32  C   UNL     1      17.404  -1.650  32.863  0.00  0.00    +0.129 C 
ENDBRANCH  30  10
ENDBRANCH  20  25
ENDBRANCH  13   5
BRANCH  14   3
ATOM      3  O   UNL     1      11.770 -10.704  31.495  0.00  0.00    -0.442 OA
BRANCH   3  24
ATOM      4  O   UNL     1      11.563  -8.769  32.715  0.00  0.00    -0.226 OA
ATOM      6  N   UNL     1       9.752  -9.729  31.627  0.00  0.00    -0.278 N 
ATOM     24  C   UNL     1      11.074  -9.648  32.013  0.00  0.00    +0.401 C 
ATOM     33  H   UNL     1       9.474 -10.539  31.080  0.00  0.00    +0.152 HD
BRANCH   6  17
ATOM     17  C   UNL     1       8.745  -8.764  32.007  0.00  0.00    +0.076 C 
ATOM     18  C   UNL     1       7.659  -9.414  32.872  0.00  0.00    +0.022 C 
ATOM     19  C   UNL     1       8.140  -8.085  30.775  0.00  0.00    +0.022 C 
ATOM     21  C   UNL     1       6.753 -10.349  32.069  0.00  0.00    +0.002 C 
ATOM     22  C   UNL     1       7.233  -9.021  29.975  0.00  0.00    +0.002 C 
ATOM     23  C   UNL     1       6.155  -9.646  30.854  0.00  0.00    +0.000 C 
ENDBRANCH   6  17
ENDBRANCH   3  24
ENDBRANCH  14   3
TORSDOF 6
ENDMDL
MODEL 5
REMARK VINA RESULT:       0.5      3.458      5.333
REMARK  Name = 11867500
REMARK  8 active torsions:
REMARK  status: ('A' for Active; 'I' for Inactive)
REMARK    1  A    between atoms: O_3  and  C_14
REMARK    2  A    between atoms: O_3  and  C_24
REMARK    3  A    between atoms: N_5  and  C_13
REMARK    4  A    between atoms: N_6  and  C_17
REMARK    5  A    between atoms: N_10  and  C_30
REMARK    6  A    between atoms: N_10  and  C_31
REMARK    7  A    between atoms: N_10  and  C_32
REMARK    8  A    between atoms: C_20  and  C_25
REMARK                            x       y       z     vdW  Elec       q    Type
REMARK                         _______ _______ _______ _____ _____    ______ ____
ROOT
ATOM      1  O   UNL     1      13.017  -9.224  29.670  0.00  0.00    -0.368 OA
ATOM      2  O   UNL     1      15.448  -8.228  31.299  0.00  0.00    -0.368 OA
ATOM     11  C   UNL     1      15.330  -9.172  30.212  0.00  0.00    +0.177 C 
ATOM     12  C   UNL     1      14.027  -9.919  30.418  0.00  0.00    +0.192 C 
ATOM     13  C   UNL     1      15.135  -8.421  28.908  0.00  0.00    +0.168 C 
ATOM     14  C   UNL     1      13.805  -9.793  31.907  0.00  0.00    +0.235 C 
ATOM     15  C   UNL     1      13.627  -8.201  28.870  0.00  0.00    +0.190 C 
ATOM     16  C   UNL     1      14.339  -8.408  32.191  0.00  0.00    +0.207 C 
ENDROOT
BRANCH  13   5
ATOM      5  N   UNL     1      15.694  -9.137  27.759  0.00  0.00    -0.217 N 
ATOM      7  N   UNL     1      15.634 -10.471  27.696  0.00  0.00    -0.043 NA
ATOM      8  N   UNL     1      16.653  -9.650  25.889  0.00  0.00    -0.108 NA
ATOM      9  N   UNL     1      16.222 -10.781  26.546  0.00  0.00    -0.023 NA
ATOM     20  C   UNL     1      16.314  -8.642  26.661  0.00  0.00    +0.182 A 
BRANCH  20  25
ATOM     25  C   UNL     1      16.547  -7.243  26.410  0.00  0.00    +0.021 A 
ATOM     26  C   UNL     1      16.749  -6.790  25.106  0.00  0.00    +0.013 A 
ATOM     27  C   UNL     1      16.572  -6.337  27.473  0.00  0.00    +0.013 A 
ATOM     28  C   UNL     1      16.974  -5.435  24.864  0.00  0.00    +0.024 A 
ATOM     29  C   UNL     1      16.796  -4.982  27.231  0.00  0.00    +0.024 A 
ATOM     30  C   UNL     1      16.998  -4.531  25.927  0.00  0.00    +0.029 A 
BRANCH  30  10
ATOM     10  N   UNL     1      17.225  -3.161  25.682  0.00  0.00    -0.336 N 
ATOM     31  C   UNL     1      17.296  -2.660  24.324  0.00  0.00    +0.129 C 
ATOM     32  C   UNL     1      17.404  -2.238  26.785  0.00  0.00    +0.129 C 
ENDBRANCH  30  10
ENDBRANCH  20  25
ENDBRANCH  13   5
BRANCH  14   3
ATOM      3  O   UNL     1      12.454  -9.930  32.288  0.00  0.00    -0.442 OA
BRANCH   3  24
ATOM      4  O   UNL     1      10.402  -8.975  31.900  0.00  0.00    -0.226 OA
ATOM      6  N   UNL     1      12.377  -7.800  31.585  0.00  0.00    -0.278 N 
ATOM     24  C   UNL     1      11.626  -8.906  31.922  0.00  0.00    +0.401 C 
ATOM     33  H   UNL     1      13.389  -7.897  31.605  0.00  0.00    +0.152 HD
BRANCH   6  17
ATOM     17  C   UNL     1      11.807  -6.544  31.152  0.00  0.00    +0.076 C 
ATOM     18  C   UNL     1      12.665  -5.897  30.059  0.00  0.00    +0.022 C 
ATOM     19  C   UNL     1      11.607  -5.592  32.336  0.00  0.00    +0.022 C 
ATOM     21  C   UNL     1      13.984  -5.346  30.599  0.00  0.00    +0.002 C 
ATOM     22  C   UNL     1      12.928  -5.041  32.873  0.00  0.00    +0.002 C 
ATOM     23  C   UNL     1      13.758  -4.393  31.769  0.00  0.00    +0.000 C 
ENDBRANCH   6  17
ENDBRANCH   3  24
ENDBRANCH  14   3
TORSDOF 6
ENDMDL
