MODEL 1
REMARK VINA RESULT:       9.2      0.000      0.000
REMARK  Name = 11911909
REMARK  7 active torsions:
REMARK  status: ('A' for Active; 'I' for Inactive)
REMARK    1  A    between atoms: N_5  and  C_12
REMARK    2  A    between atoms: N_6  and  C_13
REMARK    3  A    between atoms: N_9  and  C_26
REMARK    4  A    between atoms: N_9  and  C_30
REMARK    5  A    between atoms: N_9  and  C_31
REMARK    6  A    between atoms: C_16  and  C_18
REMARK    7  A    between atoms: C_21  and  C_27
REMARK                            x       y       z     vdW  Elec       q    Type
REMARK                         _______ _______ _______ _____ _____    ______ ____
ROOT
ATOM      2  O   UNL     1      -2.602  -1.211  26.132  0.00  0.00    -0.370 OA
ATOM      3  O   UNL     1      -4.078  -1.139  23.407  0.00  0.00    -0.370 OA
ATOM     10  C   UNL     1      -2.745  -0.771  23.802  0.00  0.00    +0.171 C 
ATOM     11  C   UNL     1      -2.842  -0.156  25.184  0.00  0.00    +0.171 C 
ATOM     12  C   UNL     1      -1.897  -2.007  24.004  0.00  0.00    +0.130 C 
ATOM     13  C   UNL     1      -4.276   0.312  25.278  0.00  0.00    +0.130 C 
ATOM     14  C   UNL     1      -2.271  -2.414  25.420  0.00  0.00    +0.185 C 
ATOM     15  C   UNL     1      -5.009  -0.685  24.400  0.00  0.00    +0.185 C 
ENDROOT
BRANCH  13   6
ATOM      6  N   UNL     1      -4.398   1.646  24.732  0.00  0.00    -0.306 N 
ATOM      7  N   UNL     1      -2.443   2.383  25.800  0.00  0.00    -0.214 NA
ATOM      8  N   UNL     1      -3.729   3.872  24.408  0.00  0.00    -0.223 NA
ATOM     17  C   UNL     1      -3.496   2.664  24.987  0.00  0.00    +0.216 A 
ATOM     21  C   UNL     1      -1.584   3.398  26.028  0.00  0.00    +0.076 A 
ATOM     22  C   UNL     1      -2.830   4.841  24.679  0.00  0.00    +0.116 A 
ATOM     23  C   UNL     1      -1.728   4.660  25.489  0.00  0.00    +0.048 A 
ATOM     36  H   UNL     1      -5.151   1.851  24.084  0.00  0.00    +0.149 HD
BRANCH  21  27
ATOM      1  F   UNL     1       0.263   2.716  30.438  0.00  0.00    -0.205 F 
ATOM     27  C   UNL     1      -0.472   3.077  26.891  0.00  0.00    +0.003 A 
ATOM     28  C   UNL     1      -0.644   3.051  28.276  0.00  0.00    +0.048 A 
ATOM     29  C   UNL     1       0.780   2.789  26.342  0.00  0.00    +0.010 A 
ATOM     32  C   UNL     1       0.430   2.740  29.109  0.00  0.00    +0.124 A 
ATOM     33  C   UNL     1       1.855   2.478  27.176  0.00  0.00    +0.003 A 
ATOM     34  C   UNL     1       1.680   2.453  28.559  0.00  0.00    +0.038 A 
ENDBRANCH  21  27
ENDBRANCH  13   6
BRANCH  12   5
ATOM      4  O   UNL     1      -0.728   0.411  22.954  0.00  0.00    -0.270 OA
ATOM      5  N   UNL     1      -0.476  -1.669  23.947  0.00  0.00    -0.304 N 
ATOM     16  C   UNL     1      -0.013  -0.472  23.419  0.00  0.00    +0.244 C 
ATOM     35  H   UNL     1       0.178  -2.400  24.210  0.00  0.00    +0.149 HD
BRANCH  16  18
ATOM     18  C   UNL     1       1.462  -0.293  23.410  0.00  0.00    +0.037 A 
ATOM     19  C   UNL     1       1.980   0.949  23.106  0.00  0.00    +0.015 A 
ATOM     20  C   UNL     1       2.265  -1.375  23.705  0.00  0.00    +0.015 A 
ATOM     24  C   UNL     1       3.366   1.116  23.098  0.00  0.00    +0.024 A 
ATOM     25  C   UNL     1       3.650  -1.207  23.697  0.00  0.00    +0.024 A 
ATOM     26  C   UNL     1       4.200   0.038  23.394  0.00  0.00    +0.029 A 
BRANCH  26   9
ATOM      9  N   UNL     1       5.600   0.208  23.388  0.00  0.00    -0.336 N 
ATOM     30  C   UNL     1       6.438  -0.622  22.545  0.00  0.00    +0.129 C 
ATOM     31  C   UNL     1       6.222   1.206  24.235  0.00  0.00    +0.129 C 
ENDBRANCH  26   9
ENDBRANCH  16  18
ENDBRANCH  12   5
TORSDOF 5
ENDMDL
MODEL 2
REMARK VINA RESULT:      10.6      1.733      2.322
REMARK  Name = 11911909
REMARK  7 active torsions:
REMARK  status: ('A' for Active; 'I' for Inactive)
REMARK    1  A    between atoms: N_5  and  C_12
REMARK    2  A    between atoms: N_6  and  C_13
REMARK    3  A    between atoms: N_9  and  C_26
REMARK    4  A    between atoms: N_9  and  C_30
REMARK    5  A    between atoms: N_9  and  C_31
REMARK    6  A    between atoms: C_16  and  C_18
REMARK    7  A    between atoms: C_21  and  C_27
REMARK                            x       y       z     vdW  Elec       q    Type
REMARK                         _______ _______ _______ _____ _____    ______ ____
ROOT
ATOM      2  O   UNL     1      -4.327   0.125  26.497  0.00  0.00    -0.370 OA
ATOM      3  O   UNL     1      -6.147   0.454  24.009  0.00  0.00    -0.370 OA
ATOM     10  C   UNL     1      -4.739   0.660  24.219  0.00  0.00    +0.171 C 
ATOM     11  C   UNL     1      -4.574   1.233  25.614  0.00  0.00    +0.171 C 
ATOM     12  C   UNL     1      -4.017  -0.668  24.276  0.00  0.00    +0.130 C 
ATOM     13  C   UNL     1      -5.918   1.852  25.918  0.00  0.00    +0.130 C 
ATOM     14  C   UNL     1      -4.236  -1.081  25.723  0.00  0.00    +0.185 C 
ATOM     15  C   UNL     1      -6.875   0.973  25.133  0.00  0.00    +0.185 C 
ENDROOT
BRANCH  13   6
ATOM      6  N   UNL     1      -5.962   3.210  25.421  0.00  0.00    -0.306 N 
ATOM      7  N   UNL     1      -3.626   3.348  25.268  0.00  0.00    -0.214 NA
ATOM      8  N   UNL     1      -5.019   5.212  24.641  0.00  0.00    -0.223 NA
ATOM     17  C   UNL     1      -4.835   3.945  25.099  0.00  0.00    +0.216 A 
ATOM     21  C   UNL     1      -2.547   4.093  24.946  0.00  0.00    +0.076 A 
ATOM     22  C   UNL     1      -3.897   5.899  24.338  0.00  0.00    +0.116 A 
ATOM     23  C   UNL     1      -2.623   5.387  24.471  0.00  0.00    +0.048 A 
ATOM     36  H   UNL     1      -6.861   3.646  25.242  0.00  0.00    +0.149 HD
BRANCH  21  27
ATOM      1  F   UNL     1       0.859   2.246  27.828  0.00  0.00    -0.205 F 
ATOM     27  C   UNL     1      -1.274   3.439  25.130  0.00  0.00    +0.003 A 
ATOM     28  C   UNL     1      -0.812   3.152  26.416  0.00  0.00    +0.048 A 
ATOM     29  C   UNL     1      -0.500   3.089  24.021  0.00  0.00    +0.010 A 
ATOM     32  C   UNL     1       0.418   2.520  26.593  0.00  0.00    +0.124 A 
ATOM     33  C   UNL     1       0.731   2.457  24.199  0.00  0.00    +0.003 A 
ATOM     34  C   UNL     1       1.190   2.172  25.485  0.00  0.00    +0.038 A 
ENDBRANCH  21  27
ENDBRANCH  13   6
BRANCH  12   5
ATOM      4  O   UNL     1      -2.001  -2.726  24.163  0.00  0.00    -0.270 OA
ATOM      5  N   UNL     1      -2.588  -0.487  24.026  0.00  0.00    -0.304 N 
ATOM     16  C   UNL     1      -1.696  -1.549  23.991  0.00  0.00    +0.244 C 
ATOM     35  H   UNL     1      -2.249   0.469  23.987  0.00  0.00    +0.149 HD
BRANCH  16  18
ATOM     18  C   UNL     1      -0.273  -1.195  23.751  0.00  0.00    +0.037 A 
ATOM     19  C   UNL     1       0.043  -0.397  22.671  0.00  0.00    +0.015 A 
ATOM     20  C   UNL     1       0.687  -1.677  24.617  0.00  0.00    +0.015 A 
ATOM     24  C   UNL     1       1.379  -0.065  22.447  0.00  0.00    +0.024 A 
ATOM     25  C   UNL     1       2.023  -1.345  24.393  0.00  0.00    +0.024 A 
ATOM     26  C   UNL     1       2.370  -0.538  23.309  0.00  0.00    +0.029 A 
BRANCH  26   9
ATOM      9  N   UNL     1       3.720  -0.201  23.083  0.00  0.00    -0.336 N 
ATOM     30  C   UNL     1       4.783  -1.005  23.651  0.00  0.00    +0.129 C 
ATOM     31  C   UNL     1       4.063   0.964  22.292  0.00  0.00    +0.129 C 
ENDBRANCH  26   9
ENDBRANCH  16  18
ENDBRANCH  12   5
TORSDOF 5
ENDMDL
