MODEL 1
REMARK VINA RESULT:      -5.5      0.000      0.000
REMARK  Name = 45783691
REMARK  6 active torsions:
REMARK  status: ('A' for Active; 'I' for Inactive)
REMARK    1  A    between atoms: O_4  and  C_26
REMARK    2  A    between atoms: O_4  and  C_27
REMARK    3  A    between atoms: N_5  and  C_13
REMARK    4  A    between atoms: C_9  and  C_14
REMARK    5  A    between atoms: C_13  and  C_15
REMARK    6  A    between atoms: C_18  and  C_21
REMARK                            x       y       z     vdW  Elec       q    Type
REMARK                         _______ _______ _______ _____ _____    ______ ____
ROOT
ATOM      5  N   UNL     1      -5.020   1.651  25.186  0.00  0.00    -0.287 NA
ATOM      9  C   UNL     1      -4.246   2.509  24.267  0.00  0.00    +0.146 C 
ATOM     10  C   UNL     1      -4.676   3.946  24.616  0.00  0.00    +0.030 C 
ATOM     11  C   UNL     1      -5.738   3.790  25.697  0.00  0.00    +0.017 C 
ATOM     12  C   UNL     1      -6.251   2.380  25.492  0.00  0.00    +0.085 C 
ENDROOT
BRANCH   9  14
ATOM      3  O   UNL     1      -2.160   2.822  25.502  0.00  0.00    -0.336 OA
ATOM      6  N   UNL     1      -1.928   1.679  23.589  0.00  0.00    -0.190 NA
ATOM      7  N   UNL     1      -0.799   2.505  25.399  0.00  0.00    -0.056 NA
ATOM     14  C   UNL     1      -2.752   2.299  24.396  0.00  0.00    +0.245 A 
ATOM     18  C   UNL     1      -0.742   1.832  24.246  0.00  0.00    +0.204 A 
BRANCH  18  21
ATOM      8  N   UNL     1       2.847   1.578  23.310  0.00  0.00    -0.221 NA
ATOM     21  C   UNL     1       0.483   1.297  23.723  0.00  0.00    +0.041 A 
ATOM     23  C   UNL     1       0.522   0.037  23.139  0.00  0.00    +0.018 A 
ATOM     24  C   UNL     1       1.662   2.021  23.784  0.00  0.00    +0.126 A 
ATOM     25  C   UNL     1       1.723  -0.454  22.639  0.00  0.00    +0.068 A 
ATOM     26  C   UNL     1       2.848   0.348  22.748  0.00  0.00    +0.214 A 
BRANCH  26   4
ATOM      4  O   UNL     1       4.043  -0.114  22.264  0.00  0.00    -0.480 OA
ATOM     27  C   UNL     1       5.185   0.081  23.089  0.00  0.00    +0.279 C 
ENDBRANCH  26   4
ENDBRANCH  18  21
ENDBRANCH   9  14
BRANCH   5  13
ATOM     13  C   UNL     1      -5.289   0.325  24.644  0.00  0.00    +0.120 C 
BRANCH  13  15
ATOM      1  F   UNL     1      -1.107  -0.932  26.824  0.00  0.00    -0.202 F 
ATOM      2  F   UNL     1      -0.840  -3.093  25.170  0.00  0.00    -0.202 F 
ATOM     15  C   UNL     1      -4.100  -0.588  24.784  0.00  0.00    -0.030 A 
ATOM     16  C   UNL     1      -3.136  -0.333  25.758  0.00  0.00    +0.046 A 
ATOM     17  C   UNL     1      -3.964  -1.691  23.941  0.00  0.00    +0.008 A 
ATOM     19  C   UNL     1      -2.034  -1.179  25.889  0.00  0.00    +0.159 A 
ATOM     20  C   UNL     1      -2.863  -2.537  24.071  0.00  0.00    +0.041 A 
ATOM     22  C   UNL     1      -1.898  -2.281  25.046  0.00  0.00    +0.158 A 
ENDBRANCH  13  15
ENDBRANCH   5  13
TORSDOF 5
ENDMDL
MODEL 2
REMARK VINA RESULT:      -3.4      1.773      2.410
REMARK  Name = 45783691
REMARK  6 active torsions:
REMARK  status: ('A' for Active; 'I' for Inactive)
REMARK    1  A    between atoms: O_4  and  C_26
REMARK    2  A    between atoms: O_4  and  C_27
REMARK    3  A    between atoms: N_5  and  C_13
REMARK    4  A    between atoms: C_9  and  C_14
REMARK    5  A    between atoms: C_13  and  C_15
REMARK    6  A    between atoms: C_18  and  C_21
REMARK                            x       y       z     vdW  Elec       q    Type
REMARK                         _______ _______ _______ _____ _____    ______ ____
ROOT
ATOM      5  N   UNL     1      -3.300   2.541  25.302  0.00  0.00    -0.287 NA
ATOM      9  C   UNL     1      -2.420   3.077  24.245  0.00  0.00    +0.146 C 
ATOM     10  C   UNL     1      -1.844   4.377  24.835  0.00  0.00    +0.030 C 
ATOM     11  C   UNL     1      -2.505   4.519  26.200  0.00  0.00    +0.017 C 
ATOM     12  C   UNL     1      -3.768   3.693  26.073  0.00  0.00    +0.085 C 
ENDROOT
BRANCH   9  14
ATOM      3  O   UNL     1      -1.768   0.931  23.273  0.00  0.00    -0.336 OA
ATOM      6  N   UNL     1      -0.042   2.199  23.931  0.00  0.00    -0.190 NA
ATOM      7  N   UNL     1      -0.611   0.198  22.979  0.00  0.00    -0.056 NA
ATOM     14  C   UNL     1      -1.344   2.095  23.831  0.00  0.00    +0.245 A 
ATOM     18  C   UNL     1       0.364   1.012  23.395  0.00  0.00    +0.204 A 
BRANCH  18  21
ATOM      8  N   UNL     1       4.041   1.393  22.997  0.00  0.00    -0.221 NA
ATOM     21  C   UNL     1       1.754   0.670  23.290  0.00  0.00    +0.041 A 
ATOM     23  C   UNL     1       2.173  -0.653  23.367  0.00  0.00    +0.018 A 
ATOM     24  C   UNL     1       2.718   1.647  23.106  0.00  0.00    +0.126 A 
ATOM     25  C   UNL     1       3.527  -0.954  23.260  0.00  0.00    +0.068 A 
ATOM     26  C   UNL     1       4.413   0.096  23.078  0.00  0.00    +0.214 A 
BRANCH  26   4
ATOM      4  O   UNL     1       5.751  -0.176  22.970  0.00  0.00    -0.480 OA
ATOM     27  C   UNL     1       6.407  -0.636  24.145  0.00  0.00    +0.279 C 
ENDBRANCH  26   4
ENDBRANCH  18  21
ENDBRANCH   9  14
BRANCH   5  13
ATOM     13  C   UNL     1      -4.405   1.744  24.782  0.00  0.00    +0.120 C 
BRANCH  13  15
ATOM      1  F   UNL     1      -4.711  -2.788  22.997  0.00  0.00    -0.202 F 
ATOM      2  F   UNL     1      -3.360  -3.780  25.156  0.00  0.00    -0.202 F 
ATOM     15  C   UNL     1      -4.126   0.268  24.883  0.00  0.00    -0.030 A 
ATOM     16  C   UNL     1      -4.556  -0.593  23.873  0.00  0.00    +0.046 A 
ATOM     17  C   UNL     1      -3.436  -0.238  25.984  0.00  0.00    +0.008 A 
ATOM     19  C   UNL     1      -4.297  -1.961  23.966  0.00  0.00    +0.159 A 
ATOM     20  C   UNL     1      -3.178  -1.605  26.076  0.00  0.00    +0.041 A 
ATOM     22  C   UNL     1      -3.608  -2.467  25.067  0.00  0.00    +0.158 A 
ENDBRANCH  13  15
ENDBRANCH   5  13
TORSDOF 5
ENDMDL
MODEL 3
REMARK VINA RESULT:      -1.8      2.623      4.423
REMARK  Name = 45783691
REMARK  6 active torsions:
REMARK  status: ('A' for Active; 'I' for Inactive)
REMARK    1  A    between atoms: O_4  and  C_26
REMARK    2  A    between atoms: O_4  and  C_27
REMARK    3  A    between atoms: N_5  and  C_13
REMARK    4  A    between atoms: C_9  and  C_14
REMARK    5  A    between atoms: C_13  and  C_15
REMARK    6  A    between atoms: C_18  and  C_21
REMARK                            x       y       z     vdW  Elec       q    Type
REMARK                         _______ _______ _______ _____ _____    ______ ____
ROOT
ATOM      5  N   UNL     1      -3.169  -0.224  23.689  0.00  0.00    -0.287 NA
ATOM      9  C   UNL     1      -2.019  -0.131  24.609  0.00  0.00    +0.146 C 
ATOM     10  C   UNL     1      -2.213  -1.296  25.597  0.00  0.00    +0.030 C 
ATOM     11  C   UNL     1      -3.528  -1.947  25.190  0.00  0.00    +0.017 C 
ATOM     12  C   UNL     1      -4.255  -0.846  24.446  0.00  0.00    +0.085 C 
ENDROOT
BRANCH   9  14
ATOM      3  O   UNL     1      -0.736  -0.459  22.555  0.00  0.00    -0.336 OA
ATOM      6  N   UNL     1       0.520  -0.024  24.358  0.00  0.00    -0.190 NA
ATOM      7  N   UNL     1       0.594  -0.464  22.114  0.00  0.00    -0.056 NA
ATOM     14  C   UNL     1      -0.690  -0.192  23.887  0.00  0.00    +0.245 A 
ATOM     18  C   UNL     1       1.274  -0.200  23.234  0.00  0.00    +0.204 A 
BRANCH  18  21
ATOM      8  N   UNL     1       4.834  -1.136  23.760  0.00  0.00    -0.221 NA
ATOM     21  C   UNL     1       2.705  -0.104  23.264  0.00  0.00    +0.041 A 
ATOM     23  C   UNL     1       3.354   1.055  22.854  0.00  0.00    +0.018 A 
ATOM     24  C   UNL     1       3.483  -1.162  23.705  0.00  0.00    +0.126 A 
ATOM     25  C   UNL     1       4.742   1.119  22.896  0.00  0.00    +0.068 A 
ATOM     26  C   UNL     1       5.430   0.006  23.353  0.00  0.00    +0.214 A 
BRANCH  26   4
ATOM      4  O   UNL     1       6.798   0.045  23.403  0.00  0.00    -0.480 OA
ATOM     27  C   UNL     1       7.494  -0.928  22.635  0.00  0.00    +0.279 C 
ENDBRANCH  26   4
ENDBRANCH  18  21
ENDBRANCH   9  14
BRANCH   5  13
ATOM     13  C   UNL     1      -3.561   1.063  23.126  0.00  0.00    +0.120 C 
BRANCH  13  15
ATOM      1  F   UNL     1      -1.069   4.623  25.349  0.00  0.00    -0.202 F 
ATOM      2  F   UNL     1      -3.221   5.206  26.930  0.00  0.00    -0.202 F 
ATOM     15  C   UNL     1      -3.470   2.170  24.143  0.00  0.00    -0.030 A 
ATOM     16  C   UNL     1      -2.289   2.898  24.277  0.00  0.00    +0.046 A 
ATOM     17  C   UNL     1      -4.568   2.468  24.949  0.00  0.00    +0.008 A 
ATOM     19  C   UNL     1      -2.204   3.924  25.220  0.00  0.00    +0.159 A 
ATOM     20  C   UNL     1      -4.484   3.493  25.891  0.00  0.00    +0.041 A 
ATOM     22  C   UNL     1      -3.302   4.222  26.026  0.00  0.00    +0.158 A 
ENDBRANCH  13  15
ENDBRANCH   5  13
TORSDOF 5
ENDMDL
MODEL 4
REMARK VINA RESULT:      -1.8      2.225      3.835
REMARK  Name = 45783691
REMARK  6 active torsions:
REMARK  status: ('A' for Active; 'I' for Inactive)
REMARK    1  A    between atoms: O_4  and  C_26
REMARK    2  A    between atoms: O_4  and  C_27
REMARK    3  A    between atoms: N_5  and  C_13
REMARK    4  A    between atoms: C_9  and  C_14
REMARK    5  A    between atoms: C_13  and  C_15
REMARK    6  A    between atoms: C_18  and  C_21
REMARK                            x       y       z     vdW  Elec       q    Type
REMARK                         _______ _______ _______ _____ _____    ______ ____
ROOT
ATOM      5  N   UNL     1      -4.888   2.060  25.106  0.00  0.00    -0.287 NA
ATOM      9  C   UNL     1      -4.052   0.844  25.087  0.00  0.00    +0.146 C 
ATOM     10  C   UNL     1      -4.988  -0.268  24.580  0.00  0.00    +0.030 C 
ATOM     11  C   UNL     1      -6.342   0.405  24.400  0.00  0.00    +0.017 C 
ATOM     12  C   UNL     1      -6.265   1.611  25.313  0.00  0.00    +0.085 C 
ENDROOT
BRANCH   9  14
ATOM      3  O   UNL     1      -2.971   1.671  23.057  0.00  0.00    -0.336 OA
ATOM      6  N   UNL     1      -1.593   0.584  24.448  0.00  0.00    -0.190 NA
ATOM      7  N   UNL     1      -1.710   1.689  22.448  0.00  0.00    -0.056 NA
ATOM     14  C   UNL     1      -2.814   1.002  24.229  0.00  0.00    +0.245 A 
ATOM     18  C   UNL     1      -0.951   1.029  23.329  0.00  0.00    +0.204 A 
BRANCH  18  21
ATOM      8  N   UNL     1       2.733   1.505  23.477  0.00  0.00    -0.221 NA
ATOM     21  C   UNL     1       0.450   0.798  23.122  0.00  0.00    +0.041 A 
ATOM     23  C   UNL     1       0.894  -0.301  22.396  0.00  0.00    +0.018 A 
ATOM     24  C   UNL     1       1.400   1.663  23.637  0.00  0.00    +0.126 A 
ATOM     25  C   UNL     1       2.258  -0.498  22.210  0.00  0.00    +0.068 A 
ATOM     26  C   UNL     1       3.129   0.426  22.767  0.00  0.00    +0.214 A 
BRANCH  26   4
ATOM      4  O   UNL     1       4.478   0.253  22.598  0.00  0.00    -0.480 OA
ATOM     27  C   UNL     1       5.243   0.015  23.772  0.00  0.00    +0.279 C 
ENDBRANCH  26   4
ENDBRANCH  18  21
ENDBRANCH   9  14
BRANCH   5  13
ATOM     13  C   UNL     1      -4.470   3.030  26.111  0.00  0.00    +0.120 C 
BRANCH  13  15
ATOM      1  F   UNL     1       0.398   3.363  26.191  0.00  0.00    -0.202 F 
ATOM      2  F   UNL     1       0.316   5.623  24.655  0.00  0.00    -0.202 F 
ATOM     15  C   UNL     1      -3.192   3.723  25.722  0.00  0.00    -0.030 A 
ATOM     16  C   UNL     1      -1.965   3.212  26.145  0.00  0.00    +0.046 A 
ATOM     17  C   UNL     1      -3.234   4.875  24.938  0.00  0.00    +0.008 A 
ATOM     19  C   UNL     1      -0.780   3.854  25.784  0.00  0.00    +0.159 A 
ATOM     20  C   UNL     1      -2.049   5.517  24.577  0.00  0.00    +0.041 A 
ATOM     22  C   UNL     1      -0.822   5.006  25.000  0.00  0.00    +0.158 A 
ENDBRANCH  13  15
ENDBRANCH   5  13
TORSDOF 5
ENDMDL
