MODEL 1
REMARK VINA RESULT:       7.4      0.000      0.000
REMARK  Name = 11882498
REMARK  10 active torsions:
REMARK  status: ('A' for Active; 'I' for Inactive)
REMARK    1  A    between atoms: S_1  and  N_10
REMARK    2  A    between atoms: S_1  and  C_23
REMARK    3  A    between atoms: N_10  and  C_14
REMARK    4  A    between atoms: N_11  and  C_21
REMARK    5  A    between atoms: C_16  and  C_19
REMARK    6  A    between atoms: C_20  and  C_22
REMARK    7  A    between atoms: C_21  and  C_24
REMARK    8  A    between atoms: C_21  and  C_25
REMARK    9  A    between atoms: C_24  and  C_27
REMARK   10  A    between atoms: C_29  and  C_34
REMARK                            x       y       z     vdW  Elec       q    Type
REMARK                         _______ _______ _______ _____ _____    ______ ____
ROOT
ATOM      5  O   UNL     1       2.337   1.642  22.605  0.00  0.00    -0.268 OA
ATOM      9  N   UNL     1       1.219  -0.080  23.703  0.00  0.00    -0.285 N 
ATOM     14  C   UNL     1      -1.056  -1.845  24.223  0.00  0.00    +0.080 C 
ATOM     15  C   UNL     1      -0.990  -1.003  22.947  0.00  0.00    +0.052 C 
ATOM     16  C   UNL     1      -0.075   0.214  23.076  0.00  0.00    +0.164 C 
ATOM     17  C   UNL     1       0.356  -2.196  24.688  0.00  0.00    +0.039 C 
ATOM     18  C   UNL     1       1.199  -0.943  24.897  0.00  0.00    +0.110 C 
ATOM     20  C   UNL     1       2.370   0.571  23.210  0.00  0.00    +0.266 C 
ENDROOT
BRANCH  20  22
ATOM      3  S   UNL     1       5.467  -1.774  23.934  0.00  0.00    -0.080 S 
ATOM     12  N   UNL     1       4.822   0.668  23.382  0.00  0.00    -0.240 NA
ATOM     22  C   UNL     1       3.659  -0.072  23.443  0.00  0.00    +0.133 A 
ATOM     26  C   UNL     1       3.803  -1.410  23.730  0.00  0.00    +0.080 A 
ATOM     29  C   UNL     1       5.839  -0.128  23.626  0.00  0.00    +0.076 A 
ATOM     34  C   UNL     1       7.254   0.306  23.646  0.00  0.00    +0.073 C 
ENDBRANCH  20  22
BRANCH  16  19
ATOM      4  O   UNL     1      -1.569   2.047  23.418  0.00  0.00    -0.274 OA
ATOM     11  N   UNL     1      -0.173   1.389  25.162  0.00  0.00    -0.302 N 
ATOM     19  C   UNL     1      -0.702   1.312  23.885  0.00  0.00    +0.234 C 
ATOM     39  H   UNL     1       0.506   0.694  25.457  0.00  0.00    +0.150 HD
BRANCH  11  21
ATOM     21  C   UNL     1      -0.590   2.376  26.131  0.00  0.00    +0.163 C 
BRANCH  21  25
ATOM      8  O   UNL     1       1.616   3.114  26.835  0.00  0.00    -0.274 OA
ATOM     13  N   UNL     1       0.269   2.060  28.368  0.00  0.00    -0.328 N 
ATOM     25  C   UNL     1       0.559   2.553  27.114  0.00  0.00    +0.231 C 
ATOM     40  H   UNL     1      -0.618   1.620  28.590  0.00  0.00    +0.145 HD
ATOM     41  H   UNL     1       0.945   2.126  29.122  0.00  0.00    +0.145 HD
ENDBRANCH  21  25
BRANCH  21  24
ATOM     24  C   UNL     1      -0.947   3.717  25.477  0.00  0.00    +0.067 C 
BRANCH  24  27
ATOM     27  C   UNL     1      -2.428   3.956  25.396  0.00  0.00    -0.045 A 
ATOM     32  C   UNL     1      -3.182   3.998  26.563  0.00  0.00    +0.004 A 
ATOM     33  C   UNL     1      -3.029   4.134  24.155  0.00  0.00    +0.004 A 
ATOM     35  C   UNL     1      -4.557   4.220  26.488  0.00  0.00    +0.000 A 
ATOM     36  C   UNL     1      -4.403   4.357  24.081  0.00  0.00    +0.000 A 
ATOM     37  C   UNL     1      -5.168   4.399  25.246  0.00  0.00    +0.000 A 
ENDBRANCH  24  27
ENDBRANCH  21  24
ENDBRANCH  11  21
ENDBRANCH  16  19
BRANCH  14  10
ATOM     10  N   UNL     1      -1.836  -3.041  24.007  0.00  0.00    -0.186 NA
ATOM     38  H   UNL     1      -1.328  -3.934  24.029  0.00  0.00    +0.148 HD
BRANCH  10   1
ATOM      1  S   UNL     1      -3.471  -3.027  24.507  0.00  0.00    +0.065 S 
ATOM      6  O   UNL     1      -3.570  -3.572  25.848  0.00  0.00    -0.153 OA
ATOM      7  O   UNL     1      -4.296  -3.530  23.427  0.00  0.00    -0.153 OA
BRANCH   1  23
ATOM      2  S   UNL     1      -3.536  -0.598  26.133  0.00  0.00    -0.077 S 
ATOM     23  C   UNL     1      -3.966  -1.310  24.653  0.00  0.00    +0.142 A 
ATOM     28  C   UNL     1      -4.618  -0.478  23.806  0.00  0.00    +0.036 A 
ATOM     30  C   UNL     1      -4.780   0.814  24.384  0.00  0.00    +0.010 A 
ATOM     31  C   UNL     1      -4.238   0.887  25.648  0.00  0.00    +0.047 A 
ENDBRANCH   1  23
ENDBRANCH  10   1
ENDBRANCH  14  10
TORSDOF 9
ENDMDL
MODEL 2
REMARK VINA RESULT:       7.4      1.882      3.563
REMARK  Name = 11882498
REMARK  10 active torsions:
REMARK  status: ('A' for Active; 'I' for Inactive)
REMARK    1  A    between atoms: S_1  and  N_10
REMARK    2  A    between atoms: S_1  and  C_23
REMARK    3  A    between atoms: N_10  and  C_14
REMARK    4  A    between atoms: N_11  and  C_21
REMARK    5  A    between atoms: C_16  and  C_19
REMARK    6  A    between atoms: C_20  and  C_22
REMARK    7  A    between atoms: C_21  and  C_24
REMARK    8  A    between atoms: C_21  and  C_25
REMARK    9  A    between atoms: C_24  and  C_27
REMARK   10  A    between atoms: C_29  and  C_34
REMARK                            x       y       z     vdW  Elec       q    Type
REMARK                         _______ _______ _______ _____ _____    ______ ____
ROOT
ATOM      5  O   UNL     1       2.789   2.343  22.674  0.00  0.00    -0.268 OA
ATOM      9  N   UNL     1       1.242   0.916  23.670  0.00  0.00    -0.285 N 
ATOM     14  C   UNL     1      -1.432  -0.183  24.121  0.00  0.00    +0.080 C 
ATOM     15  C   UNL     1      -1.142   0.708  22.911  0.00  0.00    +0.052 C 
ATOM     16  C   UNL     1       0.077   1.609  23.105  0.00  0.00    +0.164 C 
ATOM     17  C   UNL     1      -0.171  -0.949  24.516  0.00  0.00    +0.039 C 
ATOM     18  C   UNL     1       0.989  -0.001  24.796  0.00  0.00    +0.110 C 
ATOM     20  C   UNL     1       2.525   1.260  23.195  0.00  0.00    +0.266 C 
ENDROOT
BRANCH  20  22
ATOM      3  S   UNL     1       4.849  -1.907  23.636  0.00  0.00    -0.080 S 
ATOM     12  N   UNL     1       4.908   0.659  23.323  0.00  0.00    -0.240 NA
ATOM     22  C   UNL     1       3.585   0.267  23.341  0.00  0.00    +0.133 A 
ATOM     26  C   UNL     1       3.352  -1.079  23.501  0.00  0.00    +0.080 A 
ATOM     29  C   UNL     1       5.664  -0.406  23.471  0.00  0.00    +0.076 A 
ATOM     34  C   UNL     1       7.143  -0.383  23.501  0.00  0.00    +0.073 C 
ENDBRANCH  20  22
BRANCH  16  19
ATOM      4  O   UNL     1      -0.223   3.926  23.602  0.00  0.00    -0.274 OA
ATOM     11  N   UNL     1      -0.431   2.368  25.320  0.00  0.00    -0.302 N 
ATOM     19  C   UNL     1      -0.212   2.768  24.013  0.00  0.00    +0.234 C 
ATOM     39  H   UNL     1      -0.449   1.376  25.536  0.00  0.00    +0.150 HD
BRANCH  11  21
ATOM     21  C   UNL     1      -0.708   3.294  26.393  0.00  0.00    +0.163 C 
BRANCH  21  25
ATOM      8  O   UNL     1      -3.121   3.533  26.553  0.00  0.00    -0.274 OA
ATOM     13  N   UNL     1      -1.948   5.055  25.294  0.00  0.00    -0.328 N 
ATOM     25  C   UNL     1      -2.054   3.937  26.095  0.00  0.00    +0.231 C 
ATOM     40  H   UNL     1      -1.056   5.390  24.943  0.00  0.00    +0.145 HD
ATOM     41  H   UNL     1      -2.770   5.586  25.029  0.00  0.00    +0.145 HD
ENDBRANCH  21  25
BRANCH  21  24
ATOM     24  C   UNL     1      -0.736   2.605  27.763  0.00  0.00    +0.067 C 
BRANCH  24  27
ATOM     27  C   UNL     1       0.609   2.572  28.434  0.00  0.00    -0.045 A 
ATOM     32  C   UNL     1       1.735   2.989  27.733  0.00  0.00    +0.004 A 
ATOM     33  C   UNL     1       0.712   2.128  29.746  0.00  0.00    +0.004 A 
ATOM     35  C   UNL     1       2.983   2.960  28.355  0.00  0.00    +0.000 A 
ATOM     36  C   UNL     1       1.961   2.100  30.368  0.00  0.00    +0.000 A 
ATOM     37  C   UNL     1       3.096   2.515  29.672  0.00  0.00    +0.000 A 
ENDBRANCH  24  27
ENDBRANCH  21  24
ENDBRANCH  11  21
ENDBRANCH  16  19
BRANCH  14  10
ATOM     10  N   UNL     1      -2.516  -1.093  23.837  0.00  0.00    -0.186 NA
ATOM     38  H   UNL     1      -2.258  -2.026  23.491  0.00  0.00    +0.148 HD
BRANCH  10   1
ATOM      1  S   UNL     1      -3.948  -0.940  24.761  0.00  0.00    +0.065 S 
ATOM      6  O   UNL     1      -3.642  -1.151  26.163  0.00  0.00    -0.153 OA
ATOM      7  O   UNL     1      -5.011  -1.674  24.103  0.00  0.00    -0.153 OA
BRANCH   1  23
ATOM      2  S   UNL     1      -5.739   1.171  25.701  0.00  0.00    -0.077 S 
ATOM     23  C   UNL     1      -4.476   0.769  24.640  0.00  0.00    +0.142 A 
ATOM     28  C   UNL     1      -4.058   1.796  23.862  0.00  0.00    +0.036 A 
ATOM     30  C   UNL     1      -4.800   2.980  24.139  0.00  0.00    +0.010 A 
ATOM     31  C   UNL     1      -5.747   2.781  25.119  0.00  0.00    +0.047 A 
ENDBRANCH   1  23
ENDBRANCH  10   1
ENDBRANCH  14  10
TORSDOF 9
ENDMDL
MODEL 3
REMARK VINA RESULT:       9.0      2.442      4.793
REMARK  Name = 11882498
REMARK  10 active torsions:
REMARK  status: ('A' for Active; 'I' for Inactive)
REMARK    1  A    between atoms: S_1  and  N_10
REMARK    2  A    between atoms: S_1  and  C_23
REMARK    3  A    between atoms: N_10  and  C_14
REMARK    4  A    between atoms: N_11  and  C_21
REMARK    5  A    between atoms: C_16  and  C_19
REMARK    6  A    between atoms: C_20  and  C_22
REMARK    7  A    between atoms: C_21  and  C_24
REMARK    8  A    between atoms: C_21  and  C_25
REMARK    9  A    between atoms: C_24  and  C_27
REMARK   10  A    between atoms: C_29  and  C_34
REMARK                            x       y       z     vdW  Elec       q    Type
REMARK                         _______ _______ _______ _____ _____    ______ ____
ROOT
ATOM      5  O   UNL     1       1.592  -2.172  24.197  0.00  0.00    -0.268 OA
ATOM      9  N   UNL     1       0.736  -0.008  24.273  0.00  0.00    -0.285 N 
ATOM     14  C   UNL     1      -0.924   2.141  25.363  0.00  0.00    +0.080 C 
ATOM     15  C   UNL     1      -0.666   0.863  26.165  0.00  0.00    +0.052 C 
ATOM     16  C   UNL     1      -0.274  -0.327  25.291  0.00  0.00    +0.164 C 
ATOM     17  C   UNL     1       0.264   2.429  24.448  0.00  0.00    +0.039 C 
ATOM     18  C   UNL     1       0.553   1.249  23.527  0.00  0.00    +0.110 C 
ATOM     20  C   UNL     1       1.730  -0.967  23.987  0.00  0.00    +0.266 C 
ENDROOT
BRANCH  20  22
ATOM      3  S   UNL     1       4.688   0.726  21.987  0.00  0.00    -0.080 S 
ATOM     12  N   UNL     1       4.188  -0.946  23.895  0.00  0.00    -0.240 NA
ATOM     22  C   UNL     1       2.981  -0.487  23.409  0.00  0.00    +0.133 A 
ATOM     26  C   UNL     1       3.046   0.421  22.378  0.00  0.00    +0.080 A 
ATOM     29  C   UNL     1       5.159  -0.373  23.218  0.00  0.00    +0.076 A 
ATOM     34  C   UNL     1       6.599  -0.616  23.454  0.00  0.00    +0.073 C 
ENDBRANCH  20  22
BRANCH  16  19
ATOM      4  O   UNL     1      -1.307  -1.661  23.600  0.00  0.00    -0.274 OA
ATOM     11  N   UNL     1      -2.656  -0.472  25.080  0.00  0.00    -0.302 N 
ATOM     19  C   UNL     1      -1.449  -0.906  24.559  0.00  0.00    +0.234 C 
ATOM     39  H   UNL     1      -2.653   0.113  25.910  0.00  0.00    +0.150 HD
BRANCH  11  21
ATOM     21  C   UNL     1      -3.936  -0.866  24.540  0.00  0.00    +0.163 C 
BRANCH  21  25
ATOM      8  O   UNL     1      -4.233  -2.881  23.213  0.00  0.00    -0.274 OA
ATOM     13  N   UNL     1      -3.300  -3.070  25.304  0.00  0.00    -0.328 N 
ATOM     25  C   UNL     1      -3.866  -2.362  24.265  0.00  0.00    +0.231 C 
ATOM     40  H   UNL     1      -2.980  -2.624  26.157  0.00  0.00    +0.145 HD
ATOM     41  H   UNL     1      -3.181  -4.076  25.244  0.00  0.00    +0.145 HD
ENDBRANCH  21  25
BRANCH  21  24
ATOM     24  C   UNL     1      -5.093  -0.552  25.497  0.00  0.00    +0.067 C 
BRANCH  24  27
ATOM     27  C   UNL     1      -5.499   0.895  25.474  0.00  0.00    -0.045 A 
ATOM     32  C   UNL     1      -6.428   1.331  24.536  0.00  0.00    +0.004 A 
ATOM     33  C   UNL     1      -4.945   1.780  26.390  0.00  0.00    +0.004 A 
ATOM     35  C   UNL     1      -6.807   2.674  24.514  0.00  0.00    +0.000 A 
ATOM     36  C   UNL     1      -5.324   3.122  26.368  0.00  0.00    +0.000 A 
ATOM     37  C   UNL     1      -6.254   3.569  25.430  0.00  0.00    +0.000 A 
ENDBRANCH  24  27
ENDBRANCH  21  24
ENDBRANCH  11  21
ENDBRANCH  16  19
BRANCH  14  10
ATOM     10  N   UNL     1      -1.173   3.256  26.245  0.00  0.00    -0.186 NA
ATOM     38  H   UNL     1      -0.459   3.449  26.959  0.00  0.00    +0.148 HD
BRANCH  10   1
ATOM      1  S   UNL     1      -2.082   4.570  25.633  0.00  0.00    +0.065 S 
ATOM      6  O   UNL     1      -1.179   5.609  25.174  0.00  0.00    -0.153 OA
ATOM      7  O   UNL     1      -3.161   4.863  26.554  0.00  0.00    -0.153 OA
BRANCH   1  23
ATOM      2  S   UNL     1      -3.825   5.193  23.370  0.00  0.00    -0.077 S 
ATOM     23  C   UNL     1      -2.928   3.990  24.162  0.00  0.00    +0.142 A 
ATOM     28  C   UNL     1      -2.984   2.774  23.568  0.00  0.00    +0.036 A 
ATOM     30  C   UNL     1      -3.801   2.814  22.401  0.00  0.00    +0.010 A 
ATOM     31  C   UNL     1      -4.321   4.070  22.177  0.00  0.00    +0.047 A 
ENDBRANCH   1  23
ENDBRANCH  10   1
ENDBRANCH  14  10
TORSDOF 9
ENDMDL
MODEL 4
REMARK VINA RESULT:      10.5      2.546      5.020
REMARK  Name = 11882498
REMARK  10 active torsions:
REMARK  status: ('A' for Active; 'I' for Inactive)
REMARK    1  A    between atoms: S_1  and  N_10
REMARK    2  A    between atoms: S_1  and  C_23
REMARK    3  A    between atoms: N_10  and  C_14
REMARK    4  A    between atoms: N_11  and  C_21
REMARK    5  A    between atoms: C_16  and  C_19
REMARK    6  A    between atoms: C_20  and  C_22
REMARK    7  A    between atoms: C_21  and  C_24
REMARK    8  A    between atoms: C_21  and  C_25
REMARK    9  A    between atoms: C_24  and  C_27
REMARK   10  A    between atoms: C_29  and  C_34
REMARK                            x       y       z     vdW  Elec       q    Type
REMARK                         _______ _______ _______ _____ _____    ______ ____
ROOT
ATOM      5  O   UNL     1       1.083  -1.820  24.784  0.00  0.00    -0.268 OA
ATOM      9  N   UNL     1       0.208   0.328  24.578  0.00  0.00    -0.285 N 
ATOM     14  C   UNL     1      -1.283   2.673  25.493  0.00  0.00    +0.080 C 
ATOM     15  C   UNL     1      -0.864   1.576  26.475  0.00  0.00    +0.052 C 
ATOM     16  C   UNL     1      -0.604   0.231  25.798  0.00  0.00    +0.164 C 
ATOM     17  C   UNL     1      -0.278   2.758  24.347  0.00  0.00    +0.039 C 
ATOM     18  C   UNL     1      -0.128   1.415  23.641  0.00  0.00    +0.110 C 
ATOM     20  C   UNL     1       1.157  -0.682  24.319  0.00  0.00    +0.266 C 
ENDROOT
BRANCH  20  22
ATOM      3  S   UNL     1       3.685   0.338  21.458  0.00  0.00    -0.080 S 
ATOM     12  N   UNL     1       3.569  -0.384  23.938  0.00  0.00    -0.240 NA
ATOM     22  C   UNL     1       2.279  -0.345  23.450  0.00  0.00    +0.133 A 
ATOM     26  C   UNL     1       2.139   0.023  22.131  0.00  0.00    +0.080 A 
ATOM     29  C   UNL     1       4.394  -0.043  22.973  0.00  0.00    +0.076 A 
ATOM     34  C   UNL     1       5.865   0.031  23.118  0.00  0.00    +0.073 C 
ENDBRANCH  20  22
BRANCH  16  19
ATOM      4  O   UNL     1      -2.875  -0.432  26.124  0.00  0.00    -0.274 OA
ATOM     11  N   UNL     1      -1.760  -1.136  24.206  0.00  0.00    -0.302 N 
ATOM     19  C   UNL     1      -1.876  -0.465  25.411  0.00  0.00    +0.234 C 
ATOM     39  H   UNL     1      -0.898  -1.051  23.675  0.00  0.00    +0.150 HD
BRANCH  11  21
ATOM     21  C   UNL     1      -2.836  -1.904  23.623  0.00  0.00    +0.163 C 
BRANCH  21  25
ATOM      8  O   UNL     1      -4.248  -3.622  24.603  0.00  0.00    -0.274 OA
ATOM     13  N   UNL     1      -2.148  -3.296  25.476  0.00  0.00    -0.328 N 
ATOM     25  C   UNL     1      -3.180  -3.012  24.608  0.00  0.00    +0.231 C 
ATOM     40  H   UNL     1      -1.263  -2.799  25.452  0.00  0.00    +0.145 HD
ATOM     41  H   UNL     1      -2.242  -4.024  26.176  0.00  0.00    +0.145 HD
ENDBRANCH  21  25
BRANCH  21  24
ATOM     24  C   UNL     1      -4.072  -1.043  23.331  0.00  0.00    +0.067 C 
BRANCH  24  27
ATOM     27  C   UNL     1      -3.727   0.352  22.891  0.00  0.00    -0.045 A 
ATOM     32  C   UNL     1      -2.798   0.540  21.873  0.00  0.00    +0.004 A 
ATOM     33  C   UNL     1      -4.340   1.437  23.503  0.00  0.00    +0.004 A 
ATOM     35  C   UNL     1      -2.478   1.834  21.463  0.00  0.00    +0.000 A 
ATOM     36  C   UNL     1      -4.020   2.731  23.093  0.00  0.00    +0.000 A 
ATOM     37  C   UNL     1      -3.089   2.930  22.074  0.00  0.00    +0.000 A 
ENDBRANCH  24  27
ENDBRANCH  21  24
ENDBRANCH  11  21
ENDBRANCH  16  19
BRANCH  14  10
ATOM     10  N   UNL     1      -1.399   3.945  26.167  0.00  0.00    -0.186 NA
ATOM     38  H   UNL     1      -0.521   4.416  26.420  0.00  0.00    +0.148 HD
BRANCH  10   1
ATOM      1  S   UNL     1      -2.765   4.912  25.815  0.00  0.00    +0.065 S 
ATOM      6  O   UNL     1      -2.715   5.330  24.426  0.00  0.00    -0.153 OA
ATOM      7  O   UNL     1      -2.947   5.874  26.884  0.00  0.00    -0.153 OA
BRANCH   1  23
ATOM      2  S   UNL     1      -5.639   4.587  25.391  0.00  0.00    -0.077 S 
ATOM     23  C   UNL     1      -4.209   3.858  25.944  0.00  0.00    +0.142 A 
ATOM     28  C   UNL     1      -4.372   2.593  26.399  0.00  0.00    +0.036 A 
ATOM     30  C   UNL     1      -5.733   2.185  26.295  0.00  0.00    +0.010 A 
ATOM     31  C   UNL     1      -6.531   3.173  25.763  0.00  0.00    +0.047 A 
ENDBRANCH   1  23
ENDBRANCH  10   1
ENDBRANCH  14  10
TORSDOF 9
ENDMDL
MODEL 5
REMARK VINA RESULT:      11.0      3.047      5.999
REMARK  Name = 11882498
REMARK  10 active torsions:
REMARK  status: ('A' for Active; 'I' for Inactive)
REMARK    1  A    between atoms: S_1  and  N_10
REMARK    2  A    between atoms: S_1  and  C_23
REMARK    3  A    between atoms: N_10  and  C_14
REMARK    4  A    between atoms: N_11  and  C_21
REMARK    5  A    between atoms: C_16  and  C_19
REMARK    6  A    between atoms: C_20  and  C_22
REMARK    7  A    between atoms: C_21  and  C_24
REMARK    8  A    between atoms: C_21  and  C_25
REMARK    9  A    between atoms: C_24  and  C_27
REMARK   10  A    between atoms: C_29  and  C_34
REMARK                            x       y       z     vdW  Elec       q    Type
REMARK                         _______ _______ _______ _____ _____    ______ ____
ROOT
ATOM      5  O   UNL     1      -0.337   0.333  26.716  0.00  0.00    -0.268 OA
ATOM      9  N   UNL     1      -0.962   2.418  25.888  0.00  0.00    -0.285 N 
ATOM     14  C   UNL     1      -2.751   4.296  24.536  0.00  0.00    +0.080 C 
ATOM     15  C   UNL     1      -3.253   2.925  24.996  0.00  0.00    +0.052 C 
ATOM     16  C   UNL     1      -2.132   1.901  25.168  0.00  0.00    +0.164 C 
ATOM     17  C   UNL     1      -1.630   4.776  25.455  0.00  0.00    +0.039 C 
ATOM     18  C   UNL     1      -0.492   3.763  25.515  0.00  0.00    +0.110 C 
ATOM     20  C   UNL     1      -0.293   1.561  26.788  0.00  0.00    +0.266 C 
ENDROOT
BRANCH  20  22
ATOM      3  S   UNL     1       1.241   3.126  30.077  0.00  0.00    -0.080 S 
ATOM     12  N   UNL     1       1.775   2.618  27.599  0.00  0.00    -0.240 NA
ATOM     22  C   UNL     1       0.491   2.181  27.851  0.00  0.00    +0.133 A 
ATOM     26  C   UNL     1       0.026   2.369  29.132  0.00  0.00    +0.080 A 
ATOM     29  C   UNL     1       2.268   3.135  28.702  0.00  0.00    +0.076 A 
ATOM     34  C   UNL     1       3.626   3.709  28.823  0.00  0.00    +0.073 C 
ENDBRANCH  20  22
BRANCH  16  19
ATOM      4  O   UNL     1      -2.192   1.652  22.793  0.00  0.00    -0.274 OA
ATOM     11  N   UNL     1      -0.510   0.583  23.997  0.00  0.00    -0.302 N 
ATOM     19  C   UNL     1      -1.629   1.384  23.852  0.00  0.00    +0.234 C 
ATOM     39  H   UNL     1      -0.099   0.472  24.919  0.00  0.00    +0.150 HD
BRANCH  11  21
ATOM     21  C   UNL     1       0.153  -0.056  22.884  0.00  0.00    +0.163 C 
BRANCH  21  25
ATOM      8  O   UNL     1       2.494  -0.705  22.796  0.00  0.00    -0.274 OA
ATOM     13  N   UNL     1       1.964   1.396  23.561  0.00  0.00    -0.328 N 
ATOM     25  C   UNL     1       1.650   0.143  23.079  0.00  0.00    +0.231 C 
ATOM     40  H   UNL     1       1.256   2.094  23.768  0.00  0.00    +0.145 HD
ATOM     41  H   UNL     1       2.928   1.664  23.724  0.00  0.00    +0.145 HD
ENDBRANCH  21  25
BRANCH  21  24
ATOM     24  C   UNL     1      -0.180  -1.550  22.789  0.00  0.00    +0.067 C 
BRANCH  24  27
ATOM     27  C   UNL     1      -1.330  -1.954  23.669  0.00  0.00    -0.045 A 
ATOM     32  C   UNL     1      -2.630  -1.663  23.274  0.00  0.00    +0.004 A 
ATOM     33  C   UNL     1      -1.080  -2.615  24.865  0.00  0.00    +0.004 A 
ATOM     35  C   UNL     1      -3.698  -2.037  24.091  0.00  0.00    +0.000 A 
ATOM     36  C   UNL     1      -2.148  -2.990  25.680  0.00  0.00    +0.000 A 
ATOM     37  C   UNL     1      -3.456  -2.701  25.294  0.00  0.00    +0.000 A 
ENDBRANCH  24  27
ENDBRANCH  21  24
ENDBRANCH  11  21
ENDBRANCH  16  19
BRANCH  14  10
ATOM     10  N   UNL     1      -3.833   5.252  24.506  0.00  0.00    -0.186 NA
ATOM     38  H   UNL     1      -4.004   5.728  23.611  0.00  0.00    +0.148 HD
BRANCH  10   1
ATOM      1  S   UNL     1      -5.162   4.985  25.548  0.00  0.00    +0.065 S 
ATOM      6  O   UNL     1      -6.306   5.743  25.076  0.00  0.00    -0.153 OA
ATOM      7  O   UNL     1      -4.708   5.084  26.921  0.00  0.00    -0.153 OA
BRANCH   1  23
ATOM      2  S   UNL     1      -6.019   2.513  26.854  0.00  0.00    -0.077 S 
ATOM     23  C   UNL     1      -5.630   3.263  25.381  0.00  0.00    +0.142 A 
ATOM     28  C   UNL     1      -5.730   2.450  24.302  0.00  0.00    +0.036 A 
ATOM     30  C   UNL     1      -6.146   1.142  24.685  0.00  0.00    +0.010 A 
ATOM     31  C   UNL     1      -6.339   1.038  26.045  0.00  0.00    +0.047 A 
ENDBRANCH   1  23
ENDBRANCH  10   1
ENDBRANCH  14  10
TORSDOF 9
ENDMDL
MODEL 6
REMARK VINA RESULT:      11.2      2.420      5.022
REMARK  Name = 11882498
REMARK  10 active torsions:
REMARK  status: ('A' for Active; 'I' for Inactive)
REMARK    1  A    between atoms: S_1  and  N_10
REMARK    2  A    between atoms: S_1  and  C_23
REMARK    3  A    between atoms: N_10  and  C_14
REMARK    4  A    between atoms: N_11  and  C_21
REMARK    5  A    between atoms: C_16  and  C_19
REMARK    6  A    between atoms: C_20  and  C_22
REMARK    7  A    between atoms: C_21  and  C_24
REMARK    8  A    between atoms: C_21  and  C_25
REMARK    9  A    between atoms: C_24  and  C_27
REMARK   10  A    between atoms: C_29  and  C_34
REMARK                            x       y       z     vdW  Elec       q    Type
REMARK                         _______ _______ _______ _____ _____    ______ ____
ROOT
ATOM      5  O   UNL     1       1.344  -1.816  24.777  0.00  0.00    -0.268 OA
ATOM      9  N   UNL     1       0.264   0.026  23.850  0.00  0.00    -0.285 N 
ATOM     14  C   UNL     1      -1.753   2.145  23.772  0.00  0.00    +0.080 C 
ATOM     15  C   UNL     1      -1.481   1.365  25.061  0.00  0.00    +0.052 C 
ATOM     16  C   UNL     1      -0.843  -0.001  24.814  0.00  0.00    +0.164 C 
ATOM     17  C   UNL     1      -0.482   2.215  22.929  0.00  0.00    +0.039 C 
ATOM     18  C   UNL     1       0.060   0.823  22.627  0.00  0.00    +0.110 C 
ATOM     20  C   UNL     1       1.384  -0.797  24.087  0.00  0.00    +0.266 C 
ENDROOT
BRANCH  20  22
ATOM      3  S   UNL     1       4.390   0.621  21.949  0.00  0.00    -0.080 S 
ATOM     12  N   UNL     1       3.842  -0.848  24.005  0.00  0.00    -0.240 NA
ATOM     22  C   UNL     1       2.648  -0.407  23.472  0.00  0.00    +0.133 A 
ATOM     26  C   UNL     1       2.739   0.397  22.359  0.00  0.00    +0.080 A 
ATOM     29  C   UNL     1       4.829  -0.368  23.281  0.00  0.00    +0.076 A 
ATOM     34  C   UNL     1       6.262  -0.624  23.545  0.00  0.00    +0.073 C 
ENDBRANCH  20  22
BRANCH  16  19
ATOM      4  O   UNL     1      -1.482  -2.109  23.887  0.00  0.00    -0.274 OA
ATOM     11  N   UNL     1      -3.131  -0.525  24.329  0.00  0.00    -0.302 N 
ATOM     19  C   UNL     1      -1.833  -1.005  24.298  0.00  0.00    +0.234 C 
ATOM     39  H   UNL     1      -3.310   0.387  24.739  0.00  0.00    +0.150 HD
BRANCH  11  21
ATOM     21  C   UNL     1      -4.266  -1.289  23.866  0.00  0.00    +0.163 C 
BRANCH  21  25
ATOM      8  O   UNL     1      -4.315  -3.711  23.673  0.00  0.00    -0.274 OA
ATOM     13  N   UNL     1      -3.560  -2.780  25.633  0.00  0.00    -0.328 N 
ATOM     25  C   UNL     1      -4.076  -2.717  24.356  0.00  0.00    +0.231 C 
ATOM     40  H   UNL     1      -3.346  -1.949  26.176  0.00  0.00    +0.145 HD
ATOM     41  H   UNL     1      -3.373  -3.673  26.076  0.00  0.00    +0.145 HD
ENDBRANCH  21  25
BRANCH  21  24
ATOM     24  C   UNL     1      -5.596  -0.720  24.377  0.00  0.00    +0.067 C 
BRANCH  24  27
ATOM     27  C   UNL     1      -5.498   0.720  24.795  0.00  0.00    -0.045 A 
ATOM     32  C   UNL     1      -5.868   1.086  26.084  0.00  0.00    +0.004 A 
ATOM     33  C   UNL     1      -5.039   1.670  23.890  0.00  0.00    +0.004 A 
ATOM     35  C   UNL     1      -5.777   2.423  26.474  0.00  0.00    +0.000 A 
ATOM     36  C   UNL     1      -4.948   3.006  24.280  0.00  0.00    +0.000 A 
ATOM     37  C   UNL     1      -5.317   3.383  25.571  0.00  0.00    +0.000 A 
ENDBRANCH  24  27
ENDBRANCH  21  24
ENDBRANCH  11  21
ENDBRANCH  16  19
BRANCH  14  10
ATOM     10  N   UNL     1      -2.243   3.470  24.071  0.00  0.00    -0.186 NA
ATOM     38  H   UNL     1      -3.256   3.565  24.215  0.00  0.00    +0.148 HD
BRANCH  10   1
ATOM      1  S   UNL     1      -1.201   4.535  24.910  0.00  0.00    +0.065 S 
ATOM      6  O   UNL     1      -1.991   5.519  25.626  0.00  0.00    -0.153 OA
ATOM      7  O   UNL     1      -0.126   4.934  24.024  0.00  0.00    -0.153 OA
BRANCH   1  23
ATOM      2  S   UNL     1      -1.354   3.209  27.511  0.00  0.00    -0.077 S 
ATOM     23  C   UNL     1      -0.370   3.576  26.177  0.00  0.00    +0.142 A 
ATOM     28  C   UNL     1       0.891   3.092  26.267  0.00  0.00    +0.036 A 
ATOM     30  C   UNL     1       1.077   2.380  27.487  0.00  0.00    +0.010 A 
ATOM     31  C   UNL     1      -0.064   2.366  28.258  0.00  0.00    +0.047 A 
ENDBRANCH   1  23
ENDBRANCH  10   1
ENDBRANCH  14  10
TORSDOF 9
ENDMDL
MODEL 7
REMARK VINA RESULT:      11.2      2.224      6.991
REMARK  Name = 11882498
REMARK  10 active torsions:
REMARK  status: ('A' for Active; 'I' for Inactive)
REMARK    1  A    between atoms: S_1  and  N_10
REMARK    2  A    between atoms: S_1  and  C_23
REMARK    3  A    between atoms: N_10  and  C_14
REMARK    4  A    between atoms: N_11  and  C_21
REMARK    5  A    between atoms: C_16  and  C_19
REMARK    6  A    between atoms: C_20  and  C_22
REMARK    7  A    between atoms: C_21  and  C_24
REMARK    8  A    between atoms: C_21  and  C_25
REMARK    9  A    between atoms: C_24  and  C_27
REMARK   10  A    between atoms: C_29  and  C_34
REMARK                            x       y       z     vdW  Elec       q    Type
REMARK                         _______ _______ _______ _____ _____    ______ ____
ROOT
ATOM      5  O   UNL     1      -0.769   3.522  25.786  0.00  0.00    -0.268 OA
ATOM      9  N   UNL     1      -1.518   1.781  24.434  0.00  0.00    -0.285 N 
ATOM     14  C   UNL     1      -1.723  -1.015  23.596  0.00  0.00    +0.080 C 
ATOM     15  C   UNL     1      -1.155  -0.645  24.969  0.00  0.00    +0.052 C 
ATOM     16  C   UNL     1      -0.621   0.785  25.033  0.00  0.00    +0.164 C 
ATOM     17  C   UNL     1      -2.744   0.032  23.157  0.00  0.00    +0.039 C 
ATOM     18  C   UNL     1      -2.135   1.430  23.143  0.00  0.00    +0.110 C 
ATOM     20  C   UNL     1      -1.635   3.042  25.056  0.00  0.00    +0.266 C 
ENDROOT
BRANCH  20  22
ATOM      3  S   UNL     1      -4.574   5.366  23.799  0.00  0.00    -0.080 S 
ATOM     12  N   UNL     1      -3.931   3.689  25.658  0.00  0.00    -0.240 NA
ATOM     22  C   UNL     1      -2.853   3.806  24.805  0.00  0.00    +0.133 A 
ATOM     26  C   UNL     1      -3.009   4.665  23.742  0.00  0.00    +0.080 A 
ATOM     29  C   UNL     1      -4.896   4.469  25.225  0.00  0.00    +0.076 A 
ATOM     34  C   UNL     1      -6.215   4.610  25.881  0.00  0.00    +0.073 C 
ENDBRANCH  20  22
BRANCH  16  19
ATOM      4  O   UNL     1       1.340   1.978  24.372  0.00  0.00    -0.274 OA
ATOM     11  N   UNL     1       1.068  -0.223  23.665  0.00  0.00    -0.302 N 
ATOM     19  C   UNL     1       0.701   0.930  24.337  0.00  0.00    +0.234 C 
ATOM     39  H   UNL     1       0.484  -1.050  23.749  0.00  0.00    +0.150 HD
BRANCH  11  21
ATOM     21  C   UNL     1       2.287  -0.336  22.898  0.00  0.00    +0.163 C 
BRANCH  21  25
ATOM      8  O   UNL     1       0.820  -0.644  20.985  0.00  0.00    -0.274 OA
ATOM     13  N   UNL     1       2.871   0.333  20.649  0.00  0.00    -0.328 N 
ATOM     25  C   UNL     1       1.900  -0.259  21.427  0.00  0.00    +0.231 C 
ATOM     40  H   UNL     1       3.750   0.667  21.034  0.00  0.00    +0.145 HD
ATOM     41  H   UNL     1       2.735   0.458  19.652  0.00  0.00    +0.145 HD
ENDBRANCH  21  25
BRANCH  21  24
ATOM     24  C   UNL     1       3.296   0.767  23.244  0.00  0.00    +0.067 C 
BRANCH  24  27
ATOM     27  C   UNL     1       4.666   0.234  23.553  0.00  0.00    -0.045 A 
ATOM     32  C   UNL     1       4.826  -1.113  23.858  0.00  0.00    +0.004 A 
ATOM     33  C   UNL     1       5.759   1.092  23.529  0.00  0.00    +0.004 A 
ATOM     35  C   UNL     1       6.099  -1.608  24.145  0.00  0.00    +0.000 A 
ATOM     36  C   UNL     1       7.031   0.597  23.815  0.00  0.00    +0.000 A 
ATOM     37  C   UNL     1       7.201  -0.752  24.123  0.00  0.00    +0.000 A 
ENDBRANCH  24  27
ENDBRANCH  21  24
ENDBRANCH  11  21
ENDBRANCH  16  19
BRANCH  14  10
ATOM     10  N   UNL     1      -2.319  -2.330  23.628  0.00  0.00    -0.186 NA
ATOM     38  H   UNL     1      -1.684  -3.127  23.494  0.00  0.00    +0.148 HD
BRANCH  10   1
ATOM      1  S   UNL     1      -3.707  -2.553  24.601  0.00  0.00    +0.065 S 
ATOM      6  O   UNL     1      -3.303  -2.978  25.928  0.00  0.00    -0.153 OA
ATOM      7  O   UNL     1      -4.697  -3.292  23.843  0.00  0.00    -0.153 OA
BRANCH   1  23
ATOM      2  S   UNL     1      -4.078  -0.208  26.307  0.00  0.00    -0.077 S 
ATOM     23  C   UNL     1      -4.462  -0.943  24.826  0.00  0.00    +0.142 A 
ATOM     28  C   UNL     1      -5.279  -0.205  24.036  0.00  0.00    +0.036 A 
ATOM     30  C   UNL     1      -5.617   1.029  24.664  0.00  0.00    +0.010 A 
ATOM     31  C   UNL     1      -5.031   1.156  25.904  0.00  0.00    +0.047 A 
ENDBRANCH   1  23
ENDBRANCH  10   1
ENDBRANCH  14  10
TORSDOF 9
ENDMDL
