MODEL 1
REMARK VINA RESULT:      17.6      0.000      0.000
REMARK  Name = 11882870
REMARK  12 active torsions:
REMARK  status: ('A' for Active; 'I' for Inactive)
REMARK    1  A    between atoms: O_3  and  C_16
REMARK    2  A    between atoms: O_4  and  C_21
REMARK    3  A    between atoms: O_7  and  C_36
REMARK    4  A    between atoms: O_7  and  C_39
REMARK    5  A    between atoms: N_9  and  C_27
REMARK    6  A    between atoms: C_11  and  C_19
REMARK    7  A    between atoms: C_13  and  C_21
REMARK    8  A    between atoms: C_13  and  C_22
REMARK    9  A    between atoms: C_14  and  C_24
REMARK   10  A    between atoms: C_24  and  C_25
REMARK   11  A    between atoms: C_27  and  C_29
REMARK   12  A    between atoms: C_28  and  C_30
REMARK                            x       y       z     vdW  Elec       q    Type
REMARK                         _______ _______ _______ _____ _____    ______ ____
ROOT
ATOM      1  S   UNL     1       2.373  -1.922  23.523  0.00  0.00    -0.057 S 
ATOM      6  O   UNL     1       5.329   1.628  23.678  0.00  0.00    -0.269 OA
ATOM      8  N   UNL     1       2.593   0.633  23.861  0.00  0.00    -0.229 NA
ATOM     10  N   UNL     1       4.629  -0.588  23.443  0.00  0.00    -0.260 N 
ATOM     11  C   UNL     1      -1.257   0.822  23.939  0.00  0.00    -0.019 C 
ATOM     12  C   UNL     1      -1.395  -0.633  24.570  0.00  0.00    +0.011 C 
ATOM     13  C   UNL     1      -2.855  -1.204  24.741  0.00  0.00    +0.021 C 
ATOM     14  C   UNL     1       0.212   1.363  24.262  0.00  0.00    +0.054 C 
ATOM     15  C   UNL     1      -2.284   1.773  24.608  0.00  0.00    +0.010 C 
ATOM     16  C   UNL     1      -3.760  -0.113  25.379  0.00  0.00    +0.123 C 
ATOM     17  C   UNL     1      -0.403  -1.635  23.909  0.00  0.00    +0.049 C 
ATOM     18  C   UNL     1      -3.703   1.221  24.643  0.00  0.00    +0.032 C 
ATOM     19  C   UNL     1      -1.487   0.839  22.408  0.00  0.00    +0.012 C 
ATOM     20  C   UNL     1       1.252   0.313  23.965  0.00  0.00    +0.058 A 
ATOM     22  C   UNL     1      -2.817  -2.408  25.725  0.00  0.00    +0.016 C 
ATOM     23  C   UNL     1       0.957  -1.028  23.829  0.00  0.00    +0.015 A 
ATOM     26  C   UNL     1       3.277  -0.465  23.621  0.00  0.00    +0.165 A 
ATOM     28  C   UNL     1       5.593   0.445  23.476  0.00  0.00    +0.256 C 
ATOM     43  H   UNL     1       4.952  -1.535  23.262  0.00  0.00    +0.157 HD
ENDROOT
BRANCH  28  30
ATOM      2  S   UNL     1       8.274   0.972  23.780  0.00  0.00    -0.092 S 
ATOM     30  C   UNL     1       6.976   0.018  23.201  0.00  0.00    +0.074 A 
ATOM     33  C   UNL     1       7.417  -1.090  22.511  0.00  0.00    +0.021 A 
ATOM     37  C   UNL     1       8.839  -1.157  22.459  0.00  0.00    +0.008 A 
ATOM     38  C   UNL     1       9.431  -0.097  23.109  0.00  0.00    +0.046 A 
ENDBRANCH  28  30
BRANCH  16   3
ATOM      3  O   UNL     1      -5.117  -0.551  25.429  0.00  0.00    -0.391 OA
ATOM     40  H   UNL     1      -5.496  -0.440  24.540  0.00  0.00    +0.210 HD
ENDBRANCH  16   3
BRANCH  13  21
ATOM     21  C   UNL     1      -3.485  -1.752  23.441  0.00  0.00    +0.165 C 
BRANCH  21   4
ATOM      4  O   UNL     1      -4.375  -2.786  23.795  0.00  0.00    -0.394 OA
ATOM     41  H   UNL     1      -4.183  -3.033  24.715  0.00  0.00    +0.209 HD
ENDBRANCH  21   4
ENDBRANCH  13  21
BRANCH  14  24
ATOM     24  C   UNL     1       0.559   2.701  23.597  0.00  0.00    +0.106 C 
BRANCH  24  25
ATOM      5  O   UNL     1      -1.453   3.805  22.830  0.00  0.00    -0.276 OA
ATOM      9  N   UNL     1      -0.499   4.437  24.853  0.00  0.00    -0.311 N 
ATOM     25  C   UNL     1      -0.581   3.690  23.686  0.00  0.00    +0.214 C 
ATOM     42  H   UNL     1       0.262   4.259  25.503  0.00  0.00    +0.149 HD
BRANCH   9  27
ATOM     27  C   UNL     1      -1.456   5.461  25.203  0.00  0.00    +0.139 C 
BRANCH  27  29
ATOM     29  C   UNL     1      -2.825   4.894  25.439  0.00  0.00    -0.030 A 
ATOM     31  C   UNL     1      -3.793   4.965  24.437  0.00  0.00    +0.009 A 
ATOM     32  C   UNL     1      -3.130   4.295  26.663  0.00  0.00    +0.009 A 
ATOM     34  C   UNL     1      -5.065   4.438  24.658  0.00  0.00    +0.046 A 
ATOM     35  C   UNL     1      -4.403   3.768  26.883  0.00  0.00    +0.046 A 
ATOM     36  C   UNL     1      -5.370   3.840  25.880  0.00  0.00    +0.120 A 
BRANCH  36   7
ATOM      7  O   UNL     1      -6.612   3.325  26.094  0.00  0.00    -0.495 OA
ATOM     39  C   UNL     1      -6.686   1.964  26.516  0.00  0.00    +0.277 C 
ENDBRANCH  36   7
ENDBRANCH  27  29
ENDBRANCH   9  27
ENDBRANCH  24  25
ENDBRANCH  14  24
TORSDOF 9
ENDMDL
MODEL 2
REMARK VINA RESULT:      18.5      3.122      4.502
REMARK  Name = 11882870
REMARK  12 active torsions:
REMARK  status: ('A' for Active; 'I' for Inactive)
REMARK    1  A    between atoms: O_3  and  C_16
REMARK    2  A    between atoms: O_4  and  C_21
REMARK    3  A    between atoms: O_7  and  C_36
REMARK    4  A    between atoms: O_7  and  C_39
REMARK    5  A    between atoms: N_9  and  C_27
REMARK    6  A    between atoms: C_11  and  C_19
REMARK    7  A    between atoms: C_13  and  C_21
REMARK    8  A    between atoms: C_13  and  C_22
REMARK    9  A    between atoms: C_14  and  C_24
REMARK   10  A    between atoms: C_24  and  C_25
REMARK   11  A    between atoms: C_27  and  C_29
REMARK   12  A    between atoms: C_28  and  C_30
REMARK                            x       y       z     vdW  Elec       q    Type
REMARK                         _______ _______ _______ _____ _____    ______ ____
ROOT
ATOM      1  S   UNL     1      -0.776  -0.903  24.049  0.00  0.00    -0.057 S 
ATOM      6  O   UNL     1       2.888   1.893  23.707  0.00  0.00    -0.269 OA
ATOM      8  N   UNL     1       0.036   1.547  24.212  0.00  0.00    -0.229 NA
ATOM     10  N   UNL     1       1.696  -0.115  23.672  0.00  0.00    -0.260 N 
ATOM     11  C   UNL     1      -3.645   2.603  24.649  0.00  0.00    -0.019 C 
ATOM     12  C   UNL     1      -4.032   1.240  25.376  0.00  0.00    +0.011 C 
ATOM     13  C   UNL     1      -5.556   1.019  25.721  0.00  0.00    +0.021 C 
ATOM     14  C   UNL     1      -2.068   2.810  24.796  0.00  0.00    +0.054 C 
ATOM     15  C   UNL     1      -4.360   3.784  25.357  0.00  0.00    +0.010 C 
ATOM     16  C   UNL     1      -6.124   2.309  26.377  0.00  0.00    +0.123 C 
ATOM     17  C   UNL     1      -3.363   0.017  24.683  0.00  0.00    +0.049 C 
ATOM     18  C   UNL     1      -5.854   3.568  25.561  0.00  0.00    +0.032 C 
ATOM     19  C   UNL     1      -4.030   2.616  23.150  0.00  0.00    +0.012 C 
ATOM     20  C   UNL     1      -1.323   1.542  24.463  0.00  0.00    +0.058 A 
ATOM     22  C   UNL     1      -5.678  -0.126  26.766  0.00  0.00    +0.016 C 
ATOM     23  C   UNL     1      -1.919   0.298  24.436  0.00  0.00    +0.015 A 
ATOM     26  C   UNL     1       0.432   0.315  23.972  0.00  0.00    +0.165 A 
ATOM     28  C   UNL     1       2.862   0.675  23.551  0.00  0.00    +0.256 C 
ATOM     43  H   UNL     1       1.781  -1.116  23.517  0.00  0.00    +0.157 HD
ENDROOT
BRANCH  28  30
ATOM      2  S   UNL     1       4.360  -1.612  23.844  0.00  0.00    -0.092 S 
ATOM     30  C   UNL     1       4.079  -0.064  23.169  0.00  0.00    +0.074 A 
ATOM     33  C   UNL     1       5.085   0.316  22.308  0.00  0.00    +0.021 A 
ATOM     37  C   UNL     1       6.099  -0.679  22.198  0.00  0.00    +0.008 A 
ATOM     38  C   UNL     1       5.831  -1.780  22.982  0.00  0.00    +0.046 A 
ENDBRANCH  28  30
BRANCH  16   3
ATOM      3  O   UNL     1      -7.531   2.190  26.584  0.00  0.00    -0.391 OA
ATOM     40  H   UNL     1      -7.864   1.515  25.967  0.00  0.00    +0.210 HD
ENDBRANCH  16   3
BRANCH  13  21
ATOM     21  C   UNL     1      -6.427   0.581  24.523  0.00  0.00    +0.165 C 
BRANCH  21   4
ATOM      4  O   UNL     1      -7.381   1.593  24.290  0.00  0.00    -0.394 OA
ATOM     41  H   UNL     1      -7.556   1.613  23.334  0.00  0.00    +0.209 HD
ENDBRANCH  21   4
ENDBRANCH  13  21
BRANCH  14  24
ATOM     24  C   UNL     1      -1.508   4.010  24.022  0.00  0.00    +0.106 C 
BRANCH  24  25
ATOM      5  O   UNL     1       0.075   5.760  24.560  0.00  0.00    -0.276 OA
ATOM      9  N   UNL     1       0.367   3.636  25.456  0.00  0.00    -0.311 N 
ATOM     25  C   UNL     1      -0.283   4.593  24.691  0.00  0.00    +0.214 C 
ATOM     42  H   UNL     1      -0.016   2.696  25.504  0.00  0.00    +0.149 HD
BRANCH   9  27
ATOM     27  C   UNL     1       1.570   3.910  26.208  0.00  0.00    +0.139 C 
BRANCH  27  29
ATOM     29  C   UNL     1       1.525   3.307  27.582  0.00  0.00    -0.030 A 
ATOM     31  C   UNL     1       0.344   2.736  28.055  0.00  0.00    +0.009 A 
ATOM     32  C   UNL     1       2.666   3.317  28.385  0.00  0.00    +0.009 A 
ATOM     34  C   UNL     1       0.303   2.176  29.332  0.00  0.00    +0.046 A 
ATOM     35  C   UNL     1       2.625   2.757  29.662  0.00  0.00    +0.046 A 
ATOM     36  C   UNL     1       1.442   2.187  30.135  0.00  0.00    +0.120 A 
BRANCH  36   7
ATOM      7  O   UNL     1       1.402   1.639  31.381  0.00  0.00    -0.495 OA
ATOM     39  C   UNL     1       0.478   2.205  32.309  0.00  0.00    +0.277 C 
ENDBRANCH  36   7
ENDBRANCH  27  29
ENDBRANCH   9  27
ENDBRANCH  24  25
ENDBRANCH  14  24
TORSDOF 9
ENDMDL
MODEL 3
REMARK VINA RESULT:      18.6      2.070      5.134
REMARK  Name = 11882870
REMARK  12 active torsions:
REMARK  status: ('A' for Active; 'I' for Inactive)
REMARK    1  A    between atoms: O_3  and  C_16
REMARK    2  A    between atoms: O_4  and  C_21
REMARK    3  A    between atoms: O_7  and  C_36
REMARK    4  A    between atoms: O_7  and  C_39
REMARK    5  A    between atoms: N_9  and  C_27
REMARK    6  A    between atoms: C_11  and  C_19
REMARK    7  A    between atoms: C_13  and  C_21
REMARK    8  A    between atoms: C_13  and  C_22
REMARK    9  A    between atoms: C_14  and  C_24
REMARK   10  A    between atoms: C_24  and  C_25
REMARK   11  A    between atoms: C_27  and  C_29
REMARK   12  A    between atoms: C_28  and  C_30
REMARK                            x       y       z     vdW  Elec       q    Type
REMARK                         _______ _______ _______ _____ _____    ______ ____
ROOT
ATOM      1  S   UNL     1       0.523   2.087  25.958  0.00  0.00    -0.057 S 
ATOM      6  O   UNL     1       2.338   0.623  21.967  0.00  0.00    -0.269 OA
ATOM      8  N   UNL     1       0.076   1.737  23.434  0.00  0.00    -0.229 NA
ATOM     10  N   UNL     1       2.257   1.112  24.249  0.00  0.00    -0.260 N 
ATOM     11  C   UNL     1      -3.586   2.755  24.074  0.00  0.00    -0.019 C 
ATOM     12  C   UNL     1      -3.190   3.729  25.270  0.00  0.00    +0.011 C 
ATOM     13  C   UNL     1      -4.372   4.401  26.068  0.00  0.00    +0.021 C 
ATOM     14  C   UNL     1      -2.295   2.550  23.155  0.00  0.00    +0.054 C 
ATOM     15  C   UNL     1      -4.695   3.419  23.216  0.00  0.00    +0.010 C 
ATOM     16  C   UNL     1      -5.411   4.972  25.062  0.00  0.00    +0.123 C 
ATOM     17  C   UNL     1      -2.099   3.094  26.181  0.00  0.00    +0.049 C 
ATOM     18  C   UNL     1      -5.869   3.949  24.028  0.00  0.00    +0.032 C 
ATOM     19  C   UNL     1      -4.095   1.377  24.563  0.00  0.00    +0.012 C 
ATOM     20  C   UNL     1      -1.077   2.255  23.993  0.00  0.00    +0.058 A 
ATOM     22  C   UNL     1      -3.814   5.600  26.887  0.00  0.00    +0.016 C 
ATOM     23  C   UNL     1      -1.004   2.524  25.344  0.00  0.00    +0.015 A 
ATOM     26  C   UNL     1       0.984   1.598  24.377  0.00  0.00    +0.165 A 
ATOM     28  C   UNL     1       2.881   0.649  23.069  0.00  0.00    +0.256 C 
ATOM     43  H   UNL     1       2.793   1.086  25.113  0.00  0.00    +0.157 HD
ENDROOT
BRANCH  28  30
ATOM      2  S   UNL     1       4.476  -1.482  23.756  0.00  0.00    -0.092 S 
ATOM     30  C   UNL     1       4.252   0.137  23.246  0.00  0.00    +0.074 A 
ATOM     33  C   UNL     1       5.449   0.791  23.058  0.00  0.00    +0.021 A 
ATOM     37  C   UNL     1       6.567  -0.050  23.334  0.00  0.00    +0.008 A 
ATOM     38  C   UNL     1       6.180  -1.313  23.725  0.00  0.00    +0.046 A 
ENDBRANCH  28  30
BRANCH  16   3
ATOM      3  O   UNL     1      -6.556   5.472  25.750  0.00  0.00    -0.391 OA
ATOM     40  H   UNL     1      -7.314   4.912  25.510  0.00  0.00    +0.210 HD
ENDBRANCH  16   3
BRANCH  13  21
ATOM     21  C   UNL     1      -5.055   3.477  27.101  0.00  0.00    +0.165 C 
BRANCH  21   4
ATOM      4  O   UNL     1      -6.166   2.876  26.474  0.00  0.00    -0.394 OA
ATOM     41  H   UNL     1      -5.823   2.236  25.827  0.00  0.00    +0.209 HD
ENDBRANCH  21   4
ENDBRANCH  13  21
BRANCH  14  24
ATOM     24  C   UNL     1      -2.468   1.519  22.033  0.00  0.00    +0.106 C 
BRANCH  24  25
ATOM      5  O   UNL     1      -3.625  -0.509  22.670  0.00  0.00    -0.276 OA
ATOM      9  N   UNL     1      -1.320  -0.374  22.931  0.00  0.00    -0.311 N 
ATOM     25  C   UNL     1      -2.569   0.109  22.571  0.00  0.00    +0.214 C 
ATOM     42  H   UNL     1      -0.504   0.216  22.803  0.00  0.00    +0.149 HD
BRANCH   9  27
ATOM     27  C   UNL     1      -1.113  -1.696  23.478  0.00  0.00    +0.139 C 
BRANCH  27  29
ATOM     29  C   UNL     1      -1.779  -1.863  24.813  0.00  0.00    -0.030 A 
ATOM     31  C   UNL     1      -1.400  -1.060  25.888  0.00  0.00    +0.009 A 
ATOM     32  C   UNL     1      -2.779  -2.823  24.977  0.00  0.00    +0.009 A 
ATOM     34  C   UNL     1      -2.020  -1.216  27.128  0.00  0.00    +0.046 A 
ATOM     35  C   UNL     1      -3.398  -2.979  26.217  0.00  0.00    +0.046 A 
ATOM     36  C   UNL     1      -3.018  -2.175  27.293  0.00  0.00    +0.120 A 
BRANCH  36   7
ATOM      7  O   UNL     1      -3.624  -2.326  28.503  0.00  0.00    -0.495 OA
ATOM     39  C   UNL     1      -2.779  -2.580  29.624  0.00  0.00    +0.277 C 
ENDBRANCH  36   7
ENDBRANCH  27  29
ENDBRANCH   9  27
ENDBRANCH  24  25
ENDBRANCH  14  24
TORSDOF 9
ENDMDL
MODEL 4
REMARK VINA RESULT:      21.1      3.191      5.951
REMARK  Name = 11882870
REMARK  12 active torsions:
REMARK  status: ('A' for Active; 'I' for Inactive)
REMARK    1  A    between atoms: O_3  and  C_16
REMARK    2  A    between atoms: O_4  and  C_21
REMARK    3  A    between atoms: O_7  and  C_36
REMARK    4  A    between atoms: O_7  and  C_39
REMARK    5  A    between atoms: N_9  and  C_27
REMARK    6  A    between atoms: C_11  and  C_19
REMARK    7  A    between atoms: C_13  and  C_21
REMARK    8  A    between atoms: C_13  and  C_22
REMARK    9  A    between atoms: C_14  and  C_24
REMARK   10  A    between atoms: C_24  and  C_25
REMARK   11  A    between atoms: C_27  and  C_29
REMARK   12  A    between atoms: C_28  and  C_30
REMARK                            x       y       z     vdW  Elec       q    Type
REMARK                         _______ _______ _______ _____ _____    ______ ____
ROOT
ATOM      1  S   UNL     1      -0.665  -0.568  24.616  0.00  0.00    -0.057 S 
ATOM      6  O   UNL     1       2.858   2.040  23.149  0.00  0.00    -0.269 OA
ATOM      8  N   UNL     1       0.047   1.812  23.894  0.00  0.00    -0.229 NA
ATOM     10  N   UNL     1       1.753   0.109  23.862  0.00  0.00    -0.260 N 
ATOM     11  C   UNL     1      -3.656   2.855  24.144  0.00  0.00    -0.019 C 
ATOM     12  C   UNL     1      -3.953   1.812  25.310  0.00  0.00    +0.011 C 
ATOM     13  C   UNL     1      -5.450   1.682  25.790  0.00  0.00    +0.021 C 
ATOM     14  C   UNL     1      -2.084   3.141  24.127  0.00  0.00    +0.054 C 
ATOM     15  C   UNL     1      -4.391   4.187  24.447  0.00  0.00    +0.010 C 
ATOM     16  C   UNL     1      -6.046   3.103  26.000  0.00  0.00    +0.123 C 
ATOM     17  C   UNL     1      -3.261   0.444  25.038  0.00  0.00    +0.049 C 
ATOM     18  C   UNL     1      -5.864   4.015  24.792  0.00  0.00    +0.032 C 
ATOM     19  C   UNL     1      -4.102   2.346  22.752  0.00  0.00    +0.012 C 
ATOM     20  C   UNL     1      -1.299   1.856  24.205  0.00  0.00    +0.058 A 
ATOM     22  C   UNL     1      -5.479   0.959  27.167  0.00  0.00    +0.016 C 
ATOM     23  C   UNL     1      -1.842   0.663  24.633  0.00  0.00    +0.015 A 
ATOM     26  C   UNL     1       0.485   0.583  24.066  0.00  0.00    +0.165 A 
ATOM     28  C   UNL     1       2.878   0.841  23.417  0.00  0.00    +0.256 C 
ATOM     43  H   UNL     1       1.874  -0.882  24.052  0.00  0.00    +0.157 HD
ENDROOT
BRANCH  28  30
ATOM      2  S   UNL     1       4.140  -1.573  23.792  0.00  0.00    -0.092 S 
ATOM     30  C   UNL     1       4.109   0.049  23.244  0.00  0.00    +0.074 A 
ATOM     33  C   UNL     1       5.307   0.428  22.680  0.00  0.00    +0.021 A 
ATOM     37  C   UNL     1       6.263  -0.629  22.696  0.00  0.00    +0.008 A 
ATOM     38  C   UNL     1       5.760  -1.773  23.274  0.00  0.00    +0.046 A 
ENDBRANCH  28  30
BRANCH  16   3
ATOM      3  O   UNL     1      -7.436   3.024  26.310  0.00  0.00    -0.391 OA
ATOM     40  H   UNL     1      -7.800   2.254  25.841  0.00  0.00    +0.210 HD
ENDBRANCH  16   3
BRANCH  13  21
ATOM     21  C   UNL     1      -6.351   0.839  24.861  0.00  0.00    +0.165 C 
BRANCH  21   4
ATOM      4  O   UNL     1      -7.402   1.664  24.413  0.00  0.00    -0.394 OA
ATOM     41  H   UNL     1      -7.305   1.764  23.451  0.00  0.00    +0.209 HD
ENDBRANCH  21   4
ENDBRANCH  13  21
BRANCH  14  24
ATOM     24  C   UNL     1      -1.609   4.020  22.963  0.00  0.00    +0.106 C 
BRANCH  24  25
ATOM      5  O   UNL     1       0.041   4.975  24.454  0.00  0.00    -0.276 OA
ATOM      9  N   UNL     1       0.295   5.218  22.157  0.00  0.00    -0.311 N 
ATOM     25  C   UNL     1      -0.346   4.780  23.306  0.00  0.00    +0.214 C 
ATOM     42  H   UNL     1      -0.106   4.997  21.250  0.00  0.00    +0.149 HD
BRANCH   9  27
ATOM     27  C   UNL     1       1.527   5.973  22.180  0.00  0.00    +0.139 C 
BRANCH  27  29
ATOM     29  C   UNL     1       2.319   5.796  20.917  0.00  0.00    -0.030 A 
ATOM     31  C   UNL     1       3.695   5.579  20.980  0.00  0.00    +0.009 A 
ATOM     32  C   UNL     1       1.677   5.848  19.679  0.00  0.00    +0.009 A 
ATOM     34  C   UNL     1       4.430   5.415  19.806  0.00  0.00    +0.046 A 
ATOM     35  C   UNL     1       2.412   5.684  18.505  0.00  0.00    +0.046 A 
ATOM     36  C   UNL     1       3.789   5.468  18.569  0.00  0.00    +0.120 A 
BRANCH  36   7
ATOM      7  O   UNL     1       4.507   5.307  17.424  0.00  0.00    -0.495 OA
ATOM     39  C   UNL     1       5.739   4.594  17.524  0.00  0.00    +0.277 C 
ENDBRANCH  36   7
ENDBRANCH  27  29
ENDBRANCH   9  27
ENDBRANCH  24  25
ENDBRANCH  14  24
TORSDOF 9
ENDMDL
MODEL 5
REMARK VINA RESULT:      21.1      2.268      5.660
REMARK  Name = 11882870
REMARK  12 active torsions:
REMARK  status: ('A' for Active; 'I' for Inactive)
REMARK    1  A    between atoms: O_3  and  C_16
REMARK    2  A    between atoms: O_4  and  C_21
REMARK    3  A    between atoms: O_7  and  C_36
REMARK    4  A    between atoms: O_7  and  C_39
REMARK    5  A    between atoms: N_9  and  C_27
REMARK    6  A    between atoms: C_11  and  C_19
REMARK    7  A    between atoms: C_13  and  C_21
REMARK    8  A    between atoms: C_13  and  C_22
REMARK    9  A    between atoms: C_14  and  C_24
REMARK   10  A    between atoms: C_24  and  C_25
REMARK   11  A    between atoms: C_27  and  C_29
REMARK   12  A    between atoms: C_28  and  C_30
REMARK                            x       y       z     vdW  Elec       q    Type
REMARK                         _______ _______ _______ _____ _____    ______ ____
ROOT
ATOM      1  S   UNL     1       0.291   2.135  26.048  0.00  0.00    -0.057 S 
ATOM      6  O   UNL     1       2.042   0.793  21.987  0.00  0.00    -0.269 OA
ATOM      8  N   UNL     1      -0.177   1.911  23.514  0.00  0.00    -0.229 NA
ATOM     10  N   UNL     1       1.986   1.183  24.289  0.00  0.00    -0.260 N 
ATOM     11  C   UNL     1      -3.803   3.015  24.219  0.00  0.00    -0.019 C 
ATOM     12  C   UNL     1      -3.370   3.922  25.454  0.00  0.00    +0.011 C 
ATOM     13  C   UNL     1      -4.528   4.595  26.288  0.00  0.00    +0.021 C 
ATOM     14  C   UNL     1      -2.522   2.810  23.285  0.00  0.00    +0.054 C 
ATOM     15  C   UNL     1      -4.893   3.750  23.397  0.00  0.00    +0.010 C 
ATOM     16  C   UNL     1      -5.552   5.241  25.313  0.00  0.00    +0.123 C 
ATOM     17  C   UNL     1      -2.297   3.213  26.331  0.00  0.00    +0.049 C 
ATOM     18  C   UNL     1      -6.047   4.280  24.237  0.00  0.00    +0.032 C 
ATOM     19  C   UNL     1      -4.353   1.633  24.649  0.00  0.00    +0.012 C 
ATOM     20  C   UNL     1      -1.311   2.440  24.102  0.00  0.00    +0.058 A 
ATOM     22  C   UNL     1      -3.929   5.738  27.155  0.00  0.00    +0.016 C 
ATOM     23  C   UNL     1      -1.224   2.647  25.463  0.00  0.00    +0.015 A 
ATOM     26  C   UNL     1       0.730   1.702  24.445  0.00  0.00    +0.165 A 
ATOM     28  C   UNL     1       2.590   0.752  23.085  0.00  0.00    +0.256 C 
ATOM     43  H   UNL     1       2.525   1.102  25.147  0.00  0.00    +0.157 HD
ENDROOT
BRANCH  28  30
ATOM      2  S   UNL     1       4.121  -1.446  23.705  0.00  0.00    -0.092 S 
ATOM     30  C   UNL     1       3.945   0.190  23.233  0.00  0.00    +0.074 A 
ATOM     33  C   UNL     1       5.161   0.807  23.042  0.00  0.00    +0.021 A 
ATOM     37  C   UNL     1       6.253  -0.076  23.284  0.00  0.00    +0.008 A 
ATOM     38  C   UNL     1       5.829  -1.334  23.654  0.00  0.00    +0.046 A 
ENDBRANCH  28  30
BRANCH  16   3
ATOM      3  O   UNL     1      -6.678   5.746  26.029  0.00  0.00    -0.391 OA
ATOM     40  H   UNL     1      -6.524   6.693  26.192  0.00  0.00    +0.210 HD
ENDBRANCH  16   3
BRANCH  13  21
ATOM     21  C   UNL     1      -5.236   3.648  27.282  0.00  0.00    +0.165 C 
BRANCH  21   4
ATOM      4  O   UNL     1      -6.203   2.915  26.566  0.00  0.00    -0.394 OA
ATOM     41  H   UNL     1      -6.248   2.028  26.962  0.00  0.00    +0.209 HD
ENDBRANCH  21   4
ENDBRANCH  13  21
BRANCH  14  24
ATOM     24  C   UNL     1      -2.733   1.835  22.119  0.00  0.00    +0.106 C 
BRANCH  24  25
ATOM      5  O   UNL     1      -1.699  -0.331  22.433  0.00  0.00    -0.276 OA
ATOM      9  N   UNL     1      -3.883   0.012  23.150  0.00  0.00    -0.311 N 
ATOM     25  C   UNL     1      -2.682   0.393  22.571  0.00  0.00    +0.214 C 
ATOM     42  H   UNL     1      -4.636   0.691  23.223  0.00  0.00    +0.149 HD
BRANCH   9  27
ATOM     27  C   UNL     1      -4.123  -1.314  23.672  0.00  0.00    +0.139 C 
BRANCH  27  29
ATOM     29  C   UNL     1      -2.890  -1.906  24.291  0.00  0.00    -0.030 A 
ATOM     31  C   UNL     1      -2.459  -3.176  23.910  0.00  0.00    +0.009 A 
ATOM     32  C   UNL     1      -2.174  -1.184  25.247  0.00  0.00    +0.009 A 
ATOM     34  C   UNL     1      -1.313  -3.726  24.485  0.00  0.00    +0.046 A 
ATOM     35  C   UNL     1      -1.029  -1.733  25.822  0.00  0.00    +0.046 A 
ATOM     36  C   UNL     1      -0.598  -3.005  25.441  0.00  0.00    +0.120 A 
BRANCH  36   7
ATOM      7  O   UNL     1       0.521  -3.541  26.001  0.00  0.00    -0.495 OA
ATOM     39  C   UNL     1       1.778  -3.078  25.511  0.00  0.00    +0.277 C 
ENDBRANCH  36   7
ENDBRANCH  27  29
ENDBRANCH   9  27
ENDBRANCH  24  25
ENDBRANCH  14  24
TORSDOF 9
ENDMDL
