MODEL 1
REMARK VINA RESULT:      15.9      0.000      0.000
REMARK  Name = 11941436
REMARK  7 active torsions:
REMARK  status: ('A' for Active; 'I' for Inactive)
REMARK    1  A    between atoms: O_4  and  C_28
REMARK    2  A    between atoms: O_4  and  C_33
REMARK    3  A    between atoms: O_5  and  C_32
REMARK    4  A    between atoms: O_5  and  C_34
REMARK    5  A    between atoms: N_7  and  C_9
REMARK    6  A    between atoms: C_12  and  C_18
REMARK    7  A    between atoms: C_25  and  C_27
REMARK                            x       y       z     vdW  Elec       q    Type
REMARK                         _______ _______ _______ _____ _____    ______ ____
ROOT
ATOM      2  O   UNL     1      -3.970  -2.125  25.708  0.00  0.00    -0.273 OA
ATOM      3  O   UNL     1      -1.054   0.078  21.913  0.00  0.00    -0.270 OA
ATOM      6  N   UNL     1      -2.508   0.034  23.694  0.00  0.00    -0.284 N 
ATOM      8  N   UNL     1      -1.746  -2.333  25.264  0.00  0.00    -0.283 N 
ATOM      9  C   UNL     1      -4.096   0.665  25.329  0.00  0.00    +0.104 C 
ATOM     10  C   UNL     1      -2.789  -0.109  25.110  0.00  0.00    +0.183 C 
ATOM     11  C   UNL     1      -4.780   0.603  23.962  0.00  0.00    +0.043 C 
ATOM     13  C   UNL     1      -3.617   0.656  22.984  0.00  0.00    +0.111 C 
ATOM     19  C   UNL     1      -2.912  -1.602  25.352  0.00  0.00    +0.240 C 
ATOM     20  C   UNL     1      -1.297  -0.212  23.085  0.00  0.00    +0.249 C 
ATOM     21  C   UNL     1      -0.238  -0.885  23.881  0.00  0.00    +0.059 A 
ATOM     22  C   UNL     1      -0.477  -1.915  24.807  0.00  0.00    +0.046 A 
ATOM     23  C   UNL     1       1.087  -0.562  23.535  0.00  0.00    +0.023 A 
ATOM     24  C   UNL     1       0.616  -2.638  25.314  0.00  0.00    +0.024 A 
ATOM     25  C   UNL     1       2.162  -1.259  24.086  0.00  0.00    -0.014 A 
ATOM     26  C   UNL     1       1.925  -2.306  24.966  0.00  0.00    +0.010 A 
ATOM     36  H   UNL     1      -1.789  -3.271  25.655  0.00  0.00    +0.155 HD
ENDROOT
BRANCH  25  27
ATOM     27  C   UNL     1       3.517  -0.908  23.722  0.00  0.00    +0.024 A 
ATOM     28  C   UNL     1       3.779   0.206  22.921  0.00  0.00    +0.131 A 
ATOM     29  C   UNL     1       4.573  -1.697  24.182  0.00  0.00    +0.016 A 
ATOM     30  C   UNL     1       5.093   0.528  22.581  0.00  0.00    +0.091 A 
ATOM     31  C   UNL     1       5.887  -1.374  23.842  0.00  0.00    +0.046 A 
ATOM     32  C   UNL     1       6.147  -0.262  23.042  0.00  0.00    +0.124 A 
BRANCH  28   4
ATOM      4  O   UNL     1       2.769   0.995  22.457  0.00  0.00    -0.494 OA
ATOM     33  C   UNL     1       2.389   2.104  23.269  0.00  0.00    +0.277 C 
ENDBRANCH  28   4
BRANCH  32   5
ATOM      5  O   UNL     1       7.429   0.053  22.710  0.00  0.00    -0.495 OA
ATOM     34  C   UNL     1       8.369  -1.019  22.665  0.00  0.00    +0.277 C 
ENDBRANCH  32   5
ENDBRANCH  25  27
BRANCH   9   7
ATOM      1  O   UNL     1      -5.855   2.956  25.041  0.00  0.00    -0.276 OA
ATOM      7  N   UNL     1      -3.829   2.031  25.718  0.00  0.00    -0.310 N 
ATOM     18  C   UNL     1      -4.738   3.060  25.539  0.00  0.00    +0.216 C 
ATOM     35  H   UNL     1      -2.959   2.224  26.204  0.00  0.00    +0.149 HD
BRANCH  18  12
ATOM     12  C   UNL     1      -4.219   4.369  26.053  0.00  0.00    +0.075 C 
ATOM     14  C   UNL     1      -3.877   5.300  24.883  0.00  0.00    +0.013 C 
ATOM     15  C   UNL     1      -2.919   4.166  26.832  0.00  0.00    +0.013 C 
ATOM     16  C   UNL     1      -2.415   5.690  25.076  0.00  0.00    +0.001 C 
ATOM     17  C   UNL     1      -1.818   4.526  25.845  0.00  0.00    +0.001 C 
ENDBRANCH  18  12
ENDBRANCH   9   7
TORSDOF 5
ENDMDL
MODEL 2
REMARK VINA RESULT:      16.0      1.138      1.348
REMARK  Name = 11941436
REMARK  7 active torsions:
REMARK  status: ('A' for Active; 'I' for Inactive)
REMARK    1  A    between atoms: O_4  and  C_28
REMARK    2  A    between atoms: O_4  and  C_33
REMARK    3  A    between atoms: O_5  and  C_32
REMARK    4  A    between atoms: O_5  and  C_34
REMARK    5  A    between atoms: N_7  and  C_9
REMARK    6  A    between atoms: C_12  and  C_18
REMARK    7  A    between atoms: C_25  and  C_27
REMARK                            x       y       z     vdW  Elec       q    Type
REMARK                         _______ _______ _______ _____ _____    ______ ____
ROOT
ATOM      2  O   UNL     1      -3.989  -1.360  25.688  0.00  0.00    -0.273 OA
ATOM      3  O   UNL     1      -0.850   0.364  21.824  0.00  0.00    -0.270 OA
ATOM      6  N   UNL     1      -2.301   0.548  23.599  0.00  0.00    -0.284 N 
ATOM      8  N   UNL     1      -1.801  -1.826  25.261  0.00  0.00    -0.283 N 
ATOM      9  C   UNL     1      -3.811   1.410  25.202  0.00  0.00    +0.104 C 
ATOM     10  C   UNL     1      -2.596   0.491  25.018  0.00  0.00    +0.183 C 
ATOM     11  C   UNL     1      -4.498   1.370  23.835  0.00  0.00    +0.043 C 
ATOM     13  C   UNL     1      -3.335   1.260  22.861  0.00  0.00    +0.111 C 
ATOM     19  C   UNL     1      -2.881  -0.969  25.317  0.00  0.00    +0.240 C 
ATOM     20  C   UNL     1      -1.124   0.148  23.005  0.00  0.00    +0.249 C 
ATOM     21  C   UNL     1      -0.144  -0.605  23.831  0.00  0.00    +0.059 A 
ATOM     22  C   UNL     1      -0.495  -1.566  24.794  0.00  0.00    +0.046 A 
ATOM     23  C   UNL     1       1.208  -0.441  23.479  0.00  0.00    +0.023 A 
ATOM     24  C   UNL     1       0.514  -2.384  25.334  0.00  0.00    +0.024 A 
ATOM     25  C   UNL     1       2.200  -1.230  24.060  0.00  0.00    -0.014 A 
ATOM     26  C   UNL     1       1.851  -2.210  24.979  0.00  0.00    +0.010 A 
ATOM     36  H   UNL     1      -1.947  -2.738  25.689  0.00  0.00    +0.155 HD
ENDROOT
BRANCH  25  27
ATOM     27  C   UNL     1       3.586  -1.043  23.689  0.00  0.00    +0.024 A 
ATOM     28  C   UNL     1       4.026   0.166  23.146  0.00  0.00    +0.131 A 
ATOM     29  C   UNL     1       4.490  -2.089  23.879  0.00  0.00    +0.016 A 
ATOM     30  C   UNL     1       5.366   0.327  22.795  0.00  0.00    +0.091 A 
ATOM     31  C   UNL     1       5.830  -1.927  23.528  0.00  0.00    +0.046 A 
ATOM     32  C   UNL     1       6.268  -0.720  22.986  0.00  0.00    +0.124 A 
BRANCH  28   4
ATOM      4  O   UNL     1       3.166   1.206  22.949  0.00  0.00    -0.494 OA
ATOM     33  C   UNL     1       3.701   2.382  22.345  0.00  0.00    +0.277 C 
ENDBRANCH  28   4
BRANCH  32   5
ATOM      5  O   UNL     1       7.576  -0.562  22.643  0.00  0.00    -0.495 OA
ATOM     34  C   UNL     1       8.412   0.129  23.570  0.00  0.00    +0.277 C 
ENDBRANCH  32   5
ENDBRANCH  25  27
BRANCH   9   7
ATOM      1  O   UNL     1      -1.144   2.306  25.919  0.00  0.00    -0.276 OA
ATOM      7  N   UNL     1      -3.397   2.754  25.539  0.00  0.00    -0.310 N 
ATOM     18  C   UNL     1      -2.093   3.083  25.869  0.00  0.00    +0.216 C 
ATOM     35  H   UNL     1      -4.087   3.495  25.466  0.00  0.00    +0.149 HD
BRANCH  18  12
ATOM     12  C   UNL     1      -1.933   4.546  26.150  0.00  0.00    +0.075 C 
ATOM     14  C   UNL     1      -3.109   5.332  25.558  0.00  0.00    +0.013 C 
ATOM     15  C   UNL     1      -0.672   5.091  25.476  0.00  0.00    +0.013 C 
ATOM     16  C   UNL     1      -2.489   6.377  24.635  0.00  0.00    +0.001 C 
ATOM     17  C   UNL     1      -1.173   5.756  24.202  0.00  0.00    +0.001 C 
ENDBRANCH  18  12
ENDBRANCH   9   7
TORSDOF 5
ENDMDL
MODEL 3
REMARK VINA RESULT:      17.3      2.202      4.659
REMARK  Name = 11941436
REMARK  7 active torsions:
REMARK  status: ('A' for Active; 'I' for Inactive)
REMARK    1  A    between atoms: O_4  and  C_28
REMARK    2  A    between atoms: O_4  and  C_33
REMARK    3  A    between atoms: O_5  and  C_32
REMARK    4  A    between atoms: O_5  and  C_34
REMARK    5  A    between atoms: N_7  and  C_9
REMARK    6  A    between atoms: C_12  and  C_18
REMARK    7  A    between atoms: C_25  and  C_27
REMARK                            x       y       z     vdW  Elec       q    Type
REMARK                         _______ _______ _______ _____ _____    ______ ____
ROOT
ATOM      2  O   UNL     1      -3.298   5.417  24.163  0.00  0.00    -0.273 OA
ATOM      3  O   UNL     1       0.014   2.550  27.090  0.00  0.00    -0.270 OA
ATOM      6  N   UNL     1      -1.971   3.063  26.048  0.00  0.00    -0.284 N 
ATOM      8  N   UNL     1      -1.221   4.625  23.671  0.00  0.00    -0.283 N 
ATOM      9  C   UNL     1      -4.242   3.061  25.387  0.00  0.00    +0.104 C 
ATOM     10  C   UNL     1      -2.803   3.164  24.863  0.00  0.00    +0.183 C 
ATOM     11  C   UNL     1      -4.137   3.581  26.822  0.00  0.00    +0.043 C 
ATOM     13  C   UNL     1      -2.764   3.104  27.269  0.00  0.00    +0.111 C 
ATOM     19  C   UNL     1      -2.470   4.508  24.244  0.00  0.00    +0.240 C 
ATOM     20  C   UNL     1      -0.621   2.788  26.062  0.00  0.00    +0.249 C 
ATOM     21  C   UNL     1       0.110   2.806  24.768  0.00  0.00    +0.059 A 
ATOM     22  C   UNL     1      -0.137   3.721  23.732  0.00  0.00    +0.046 A 
ATOM     23  C   UNL     1       1.222   1.948  24.681  0.00  0.00    +0.023 A 
ATOM     24  C   UNL     1       0.774   3.799  22.664  0.00  0.00    +0.024 A 
ATOM     25  C   UNL     1       2.088   2.006  23.591  0.00  0.00    -0.014 A 
ATOM     26  C   UNL     1       1.871   2.941  22.588  0.00  0.00    +0.010 A 
ATOM     36  H   UNL     1      -1.095   5.428  23.059  0.00  0.00    +0.155 HD
ENDROOT
BRANCH  25  27
ATOM     27  C   UNL     1       3.223   1.113  23.517  0.00  0.00    +0.024 A 
ATOM     28  C   UNL     1       3.058  -0.230  23.171  0.00  0.00    +0.131 A 
ATOM     29  C   UNL     1       4.499   1.606  23.796  0.00  0.00    +0.016 A 
ATOM     30  C   UNL     1       4.165  -1.076  23.106  0.00  0.00    +0.091 A 
ATOM     31  C   UNL     1       5.606   0.760  23.729  0.00  0.00    +0.046 A 
ATOM     32  C   UNL     1       5.439  -0.581  23.384  0.00  0.00    +0.124 A 
BRANCH  28   4
ATOM      4  O   UNL     1       1.824  -0.741  22.894  0.00  0.00    -0.494 OA
ATOM     33  C   UNL     1       1.350  -0.596  21.557  0.00  0.00    +0.277 C 
ENDBRANCH  28   4
BRANCH  32   5
ATOM      5  O   UNL     1       6.519  -1.407  23.320  0.00  0.00    -0.495 OA
ATOM     34  C   UNL     1       7.728  -0.855  22.801  0.00  0.00    +0.277 C 
ENDBRANCH  32   5
ENDBRANCH  25  27
BRANCH   9   7
ATOM      1  O   UNL     1      -3.005   0.806  24.039  0.00  0.00    -0.276 OA
ATOM      7  N   UNL     1      -4.705   1.692  25.359  0.00  0.00    -0.310 N 
ATOM     18  C   UNL     1      -4.041   0.681  24.685  0.00  0.00    +0.216 C 
ATOM     35  H   UNL     1      -5.521   1.456  25.917  0.00  0.00    +0.149 HD
BRANCH  18  12
ATOM     12  C   UNL     1      -4.721  -0.645  24.840  0.00  0.00    +0.075 C 
ATOM     14  C   UNL     1      -4.010  -1.484  25.908  0.00  0.00    +0.013 C 
ATOM     15  C   UNL     1      -4.641  -1.449  23.541  0.00  0.00    +0.013 C 
ATOM     16  C   UNL     1      -3.627  -2.793  25.222  0.00  0.00    +0.001 C 
ATOM     17  C   UNL     1      -3.488  -2.418  23.758  0.00  0.00    +0.001 C 
ENDBRANCH  18  12
ENDBRANCH   9   7
TORSDOF 5
ENDMDL
