MODEL 1
REMARK VINA RESULT:      -3.5      0.000      0.000
REMARK  Name = 71694018
REMARK  7 active torsions:
REMARK  status: ('A' for Active; 'I' for Inactive)
REMARK    1  A    between atoms: S_2  and  N_7
REMARK    2  A    between atoms: S_2  and  C_17
REMARK    3  A    between atoms: O_3  and  C_10
REMARK    4  A    between atoms: O_4  and  C_12
REMARK    5  A    between atoms: N_7  and  C_9
REMARK    6  A    between atoms: C_8  and  C_13
REMARK    7  A    between atoms: C_14  and  C_18
REMARK                            x       y       z     vdW  Elec       q    Type
REMARK                         _______ _______ _______ _____ _____    ______ ____
ROOT
ATOM      8  C   UNL     1      -2.819  -0.094  24.185  0.00  0.00    +0.043 C 
ATOM      9  C   UNL     1      -3.880  -0.077  25.321  0.00  0.00    +0.115 C 
ATOM     10  C   UNL     1      -4.003  -1.529  25.801  0.00  0.00    +0.162 C 
ATOM     11  C   UNL     1      -2.283  -1.535  24.148  0.00  0.00    +0.043 C 
ATOM     12  C   UNL     1      -3.466  -2.355  24.635  0.00  0.00    +0.145 C 
ENDROOT
BRANCH   8  13
ATOM     13  C   UNL     1      -1.729   0.942  24.346  0.00  0.00    -0.040 A 
ATOM     14  C   UNL     1      -1.432   1.837  23.319  0.00  0.00    -0.047 A 
ATOM     15  C   UNL     1      -1.016   0.994  25.544  0.00  0.00    +0.004 A 
ATOM     16  C   UNL     1      -0.422   2.785  23.489  0.00  0.00    +0.003 A 
ATOM     18  C   UNL     1      -2.182   1.802  22.028  0.00  0.00    +0.044 C 
ATOM     19  C   UNL     1      -0.006   1.940  25.715  0.00  0.00    +0.000 A 
ATOM     20  C   UNL     1       0.291   2.835  24.687  0.00  0.00    +0.000 A 
ENDBRANCH   8  13
BRANCH  10   3
ATOM      3  O   UNL     1      -3.175  -1.685  26.952  0.00  0.00    -0.388 OA
ATOM     27  H   UNL     1      -2.386  -2.185  26.681  0.00  0.00    +0.210 HD
ENDBRANCH  10   3
BRANCH  12   4
ATOM      4  O   UNL     1      -3.070  -3.655  25.024  0.00  0.00    -0.389 OA
ATOM     28  H   UNL     1      -2.104  -3.707  24.931  0.00  0.00    +0.210 HD
ENDBRANCH  12   4
BRANCH   9   7
ATOM      7  N   UNL     1      -5.184   0.372  24.768  0.00  0.00    -0.184 NA
ATOM     26  H   UNL     1      -5.498  -0.041  23.881  0.00  0.00    +0.148 HD
BRANCH   7   2
ATOM      2  S   UNL     1      -5.939   1.757  25.396  0.00  0.00    +0.059 S 
ATOM      5  O   UNL     1      -6.234   1.551  26.801  0.00  0.00    -0.153 OA
ATOM      6  O   UNL     1      -6.988   2.173  24.484  0.00  0.00    -0.153 OA
BRANCH   2  17
ATOM      1 CL   UNL     1      -1.354   6.026  24.988  0.00  0.00    -0.084 Cl
ATOM     17  C   UNL     1      -4.649   2.959  25.281  0.00  0.00    +0.105 A 
ATOM     21  C   UNL     1      -4.422   3.626  24.077  0.00  0.00    +0.030 A 
ATOM     22  C   UNL     1      -3.857   3.241  26.394  0.00  0.00    +0.030 A 
ATOM     23  C   UNL     1      -3.403   4.574  23.986  0.00  0.00    +0.022 A 
ATOM     24  C   UNL     1      -2.838   4.189  26.304  0.00  0.00    +0.022 A 
ATOM     25  C   UNL     1      -2.611   4.856  25.100  0.00  0.00    +0.041 A 
ENDBRANCH   2  17
ENDBRANCH   7   2
ENDBRANCH   9   7
TORSDOF 6
ENDMDL
MODEL 2
REMARK VINA RESULT:      -2.4      3.315      5.456
REMARK  Name = 71694018
REMARK  7 active torsions:
REMARK  status: ('A' for Active; 'I' for Inactive)
REMARK    1  A    between atoms: S_2  and  N_7
REMARK    2  A    between atoms: S_2  and  C_17
REMARK    3  A    between atoms: O_3  and  C_10
REMARK    4  A    between atoms: O_4  and  C_12
REMARK    5  A    between atoms: N_7  and  C_9
REMARK    6  A    between atoms: C_8  and  C_13
REMARK    7  A    between atoms: C_14  and  C_18
REMARK                            x       y       z     vdW  Elec       q    Type
REMARK                         _______ _______ _______ _____ _____    ______ ____
ROOT
ATOM      8  C   UNL     1      -4.154   2.004  24.438  0.00  0.00    +0.043 C 
ATOM      9  C   UNL     1      -3.191   2.892  25.274  0.00  0.00    +0.115 C 
ATOM     10  C   UNL     1      -4.081   3.921  25.984  0.00  0.00    +0.162 C 
ATOM     11  C   UNL     1      -5.570   2.480  24.804  0.00  0.00    +0.043 C 
ATOM     12  C   UNL     1      -5.362   3.944  25.155  0.00  0.00    +0.145 C 
ENDROOT
BRANCH   8  13
ATOM     13  C   UNL     1      -3.955   0.519  24.643  0.00  0.00    -0.040 A 
ATOM     14  C   UNL     1      -3.522  -0.298  23.599  0.00  0.00    -0.047 A 
ATOM     15  C   UNL     1      -4.212  -0.032  25.899  0.00  0.00    +0.004 A 
ATOM     16  C   UNL     1      -3.345  -1.666  23.810  0.00  0.00    +0.003 A 
ATOM     18  C   UNL     1      -3.240   0.268  22.246  0.00  0.00    +0.044 C 
ATOM     19  C   UNL     1      -4.035  -1.400  26.110  0.00  0.00    +0.000 A 
ATOM     20  C   UNL     1      -3.602  -2.216  25.066  0.00  0.00    +0.000 A 
ENDBRANCH   8  13
BRANCH  10   3
ATOM      3  O   UNL     1      -4.341   3.444  27.302  0.00  0.00    -0.388 OA
ATOM     27  H   UNL     1      -4.680   4.192  27.823  0.00  0.00    +0.210 HD
ENDBRANCH  10   3
BRANCH  12   4
ATOM      4  O   UNL     1      -6.464   4.467  25.868  0.00  0.00    -0.389 OA
ATOM     28  H   UNL     1      -6.551   5.404  25.626  0.00  0.00    +0.210 HD
ENDBRANCH  12   4
BRANCH   9   7
ATOM      7  N   UNL     1      -2.255   3.596  24.359  0.00  0.00    -0.184 NA
ATOM     26  H   UNL     1      -2.643   4.020  23.507  0.00  0.00    +0.148 HD
BRANCH   7   2
ATOM      2  S   UNL     1      -0.579   3.396  24.544  0.00  0.00    +0.059 S 
ATOM      5  O   UNL     1      -0.155   4.006  25.790  0.00  0.00    -0.153 OA
ATOM      6  O   UNL     1       0.075   3.750  23.299  0.00  0.00    -0.153 OA
BRANCH   2  17
ATOM      1 CL   UNL     1      -0.081  -2.831  25.171  0.00  0.00    -0.084 Cl
ATOM     17  C   UNL     1      -0.438   1.643  24.721  0.00  0.00    +0.105 A 
ATOM     21  C   UNL     1       0.018   0.869  23.654  0.00  0.00    +0.030 A 
ATOM     22  C   UNL     1      -0.785   1.033  25.927  0.00  0.00    +0.030 A 
ATOM     23  C   UNL     1       0.129  -0.514  23.793  0.00  0.00    +0.022 A 
ATOM     24  C   UNL     1      -0.675  -0.349  26.066  0.00  0.00    +0.022 A 
ATOM     25  C   UNL     1      -0.217  -1.124  24.999  0.00  0.00    +0.041 A 
ENDBRANCH   2  17
ENDBRANCH   7   2
ENDBRANCH   9   7
TORSDOF 6
ENDMDL
MODEL 3
REMARK VINA RESULT:      -1.9      4.627      7.011
REMARK  Name = 71694018
REMARK  7 active torsions:
REMARK  status: ('A' for Active; 'I' for Inactive)
REMARK    1  A    between atoms: S_2  and  N_7
REMARK    2  A    between atoms: S_2  and  C_17
REMARK    3  A    between atoms: O_3  and  C_10
REMARK    4  A    between atoms: O_4  and  C_12
REMARK    5  A    between atoms: N_7  and  C_9
REMARK    6  A    between atoms: C_8  and  C_13
REMARK    7  A    between atoms: C_14  and  C_18
REMARK                            x       y       z     vdW  Elec       q    Type
REMARK                         _______ _______ _______ _____ _____    ______ ____
ROOT
ATOM      8  C   UNL     1      -1.616   1.582  24.014  0.00  0.00    +0.043 C 
ATOM      9  C   UNL     1      -0.193   1.501  24.634  0.00  0.00    +0.115 C 
ATOM     10  C   UNL     1       0.029   2.839  25.350  0.00  0.00    +0.162 C 
ATOM     11  C   UNL     1      -2.201   2.915  24.510  0.00  0.00    +0.043 C 
ATOM     12  C   UNL     1      -0.970   3.786  24.692  0.00  0.00    +0.145 C 
ENDROOT
BRANCH   8  13
ATOM     13  C   UNL     1      -2.494   0.392  24.331  0.00  0.00    -0.040 A 
ATOM     14  C   UNL     1      -3.883   0.512  24.355  0.00  0.00    -0.047 A 
ATOM     15  C   UNL     1      -1.895  -0.838  24.602  0.00  0.00    +0.004 A 
ATOM     16  C   UNL     1      -4.674  -0.599  24.650  0.00  0.00    +0.003 A 
ATOM     18  C   UNL     1      -4.547   1.818  24.067  0.00  0.00    +0.044 C 
ATOM     19  C   UNL     1      -2.685  -1.949  24.898  0.00  0.00    +0.000 A 
ATOM     20  C   UNL     1      -4.074  -1.829  24.921  0.00  0.00    +0.000 A 
ENDBRANCH   8  13
BRANCH  10   3
ATOM      3  O   UNL     1      -0.282   2.658  26.730  0.00  0.00    -0.388 OA
ATOM     27  H   UNL     1      -1.237   2.485  26.795  0.00  0.00    +0.210 HD
ENDBRANCH  10   3
BRANCH  12   4
ATOM      4  O   UNL     1      -1.251   4.921  25.486  0.00  0.00    -0.389 OA
ATOM     28  H   UNL     1      -0.700   5.651  25.159  0.00  0.00    +0.210 HD
ENDBRANCH  12   4
BRANCH   9   7
ATOM      7  N   UNL     1       0.808   1.351  23.545  0.00  0.00    -0.184 NA
ATOM     26  H   UNL     1       1.072   2.192  23.016  0.00  0.00    +0.148 HD
BRANCH   7   2
ATOM      2  S   UNL     1       1.221  -0.196  22.981  0.00  0.00    +0.059 S 
ATOM      5  O   UNL     1       0.919  -0.290  21.565  0.00  0.00    -0.153 OA
ATOM      6  O   UNL     1       0.701  -1.186  23.905  0.00  0.00    -0.153 OA
BRANCH   2  17
ATOM      1 CL   UNL     1       7.466  -0.188  23.627  0.00  0.00    -0.084 Cl
ATOM     17  C   UNL     1       2.979  -0.194  23.163  0.00  0.00    +0.105 A 
ATOM     21  C   UNL     1       3.718   0.927  22.783  0.00  0.00    +0.030 A 
ATOM     22  C   UNL     1       3.628  -1.312  23.687  0.00  0.00    +0.030 A 
ATOM     23  C   UNL     1       5.106   0.928  22.927  0.00  0.00    +0.022 A 
ATOM     24  C   UNL     1       5.014  -1.311  23.830  0.00  0.00    +0.022 A 
ATOM     25  C   UNL     1       5.754  -0.190  23.450  0.00  0.00    +0.041 A 
ENDBRANCH   2  17
ENDBRANCH   7   2
ENDBRANCH   9   7
TORSDOF 6
ENDMDL
MODEL 4
REMARK VINA RESULT:      -1.5      3.147      4.744
REMARK  Name = 71694018
REMARK  7 active torsions:
REMARK  status: ('A' for Active; 'I' for Inactive)
REMARK    1  A    between atoms: S_2  and  N_7
REMARK    2  A    between atoms: S_2  and  C_17
REMARK    3  A    between atoms: O_3  and  C_10
REMARK    4  A    between atoms: O_4  and  C_12
REMARK    5  A    between atoms: N_7  and  C_9
REMARK    6  A    between atoms: C_8  and  C_13
REMARK    7  A    between atoms: C_14  and  C_18
REMARK                            x       y       z     vdW  Elec       q    Type
REMARK                         _______ _______ _______ _____ _____    ______ ____
ROOT
ATOM      8  C   UNL     1      -1.562   1.073  25.349  0.00  0.00    +0.043 C 
ATOM      9  C   UNL     1      -0.872   1.787  24.153  0.00  0.00    +0.115 C 
ATOM     10  C   UNL     1       0.398   2.431  24.726  0.00  0.00    +0.162 C 
ATOM     11  C   UNL     1      -0.592   1.229  26.532  0.00  0.00    +0.043 C 
ATOM     12  C   UNL     1       0.122   2.534  26.223  0.00  0.00    +0.145 C 
ENDROOT
BRANCH   8  13
ATOM     13  C   UNL     1      -1.937  -0.366  25.073  0.00  0.00    -0.040 A 
ATOM     14  C   UNL     1      -1.136  -1.174  24.266  0.00  0.00    -0.047 A 
ATOM     15  C   UNL     1      -3.103  -0.883  25.639  0.00  0.00    +0.004 A 
ATOM     16  C   UNL     1      -1.501  -2.499  24.025  0.00  0.00    +0.003 A 
ATOM     18  C   UNL     1       0.117  -0.644  23.650  0.00  0.00    +0.044 C 
ATOM     19  C   UNL     1      -3.468  -2.207  25.397  0.00  0.00    +0.000 A 
ATOM     20  C   UNL     1      -2.667  -3.015  24.590  0.00  0.00    +0.000 A 
ENDBRANCH   8  13
BRANCH  10   3
ATOM      3  O   UNL     1       1.491   1.550  24.474  0.00  0.00    -0.388 OA
ATOM     27  H   UNL     1       1.439   0.826  25.121  0.00  0.00    +0.210 HD
ENDBRANCH  10   3
BRANCH  12   4
ATOM      4  O   UNL     1       1.303   2.672  26.987  0.00  0.00    -0.389 OA
ATOM     28  H   UNL     1       2.051   2.705  26.368  0.00  0.00    +0.210 HD
ENDBRANCH  12   4
BRANCH   9   7
ATOM      7  N   UNL     1      -1.771   2.848  23.631  0.00  0.00    -0.184 NA
ATOM     26  H   UNL     1      -1.624   3.809  23.963  0.00  0.00    +0.148 HD
BRANCH   7   2
ATOM      2  S   UNL     1      -3.191   2.423  22.802  0.00  0.00    +0.059 S 
ATOM      5  O   UNL     1      -3.007   1.137  22.157  0.00  0.00    -0.153 OA
ATOM      6  O   UNL     1      -3.645   3.566  22.033  0.00  0.00    -0.153 OA
BRANCH   2  17
ATOM      1 CL   UNL     1      -7.260   1.655  27.521  0.00  0.00    -0.084 Cl
ATOM     17  C   UNL     1      -4.337   2.207  24.131  0.00  0.00    +0.105 A 
ATOM     21  C   UNL     1      -4.472   3.197  25.103  0.00  0.00    +0.030 A 
ATOM     22  C   UNL     1      -5.106   1.046  24.206  0.00  0.00    +0.030 A 
ATOM     23  C   UNL     1      -5.376   3.027  26.152  0.00  0.00    +0.022 A 
ATOM     24  C   UNL     1      -6.010   0.875  25.254  0.00  0.00    +0.022 A 
ATOM     25  C   UNL     1      -6.145   1.865  26.227  0.00  0.00    +0.041 A 
ENDBRANCH   2  17
ENDBRANCH   7   2
ENDBRANCH   9   7
TORSDOF 6
ENDMDL
MODEL 5
REMARK VINA RESULT:      -1.3      2.836      4.913
REMARK  Name = 71694018
REMARK  7 active torsions:
REMARK  status: ('A' for Active; 'I' for Inactive)
REMARK    1  A    between atoms: S_2  and  N_7
REMARK    2  A    between atoms: S_2  and  C_17
REMARK    3  A    between atoms: O_3  and  C_10
REMARK    4  A    between atoms: O_4  and  C_12
REMARK    5  A    between atoms: N_7  and  C_9
REMARK    6  A    between atoms: C_8  and  C_13
REMARK    7  A    between atoms: C_14  and  C_18
REMARK                            x       y       z     vdW  Elec       q    Type
REMARK                         _______ _______ _______ _____ _____    ______ ____
ROOT
ATOM      8  C   UNL     1      -2.013   2.615  25.550  0.00  0.00    +0.043 C 
ATOM      9  C   UNL     1      -3.406   2.992  24.974  0.00  0.00    +0.115 C 
ATOM     10  C   UNL     1      -3.336   4.491  24.656  0.00  0.00    +0.162 C 
ATOM     11  C   UNL     1      -1.159   3.887  25.418  0.00  0.00    +0.043 C 
ATOM     12  C   UNL     1      -2.186   5.004  25.517  0.00  0.00    +0.145 C 
ENDROOT
BRANCH   8  13
ATOM     13  C   UNL     1      -1.382   1.406  24.895  0.00  0.00    -0.040 A 
ATOM     14  C   UNL     1      -1.476   1.206  23.518  0.00  0.00    -0.047 A 
ATOM     15  C   UNL     1      -0.701   0.484  25.690  0.00  0.00    +0.004 A 
ATOM     16  C   UNL     1      -0.887   0.083  22.935  0.00  0.00    +0.003 A 
ATOM     18  C   UNL     1      -2.200   2.179  22.647  0.00  0.00    +0.044 C 
ATOM     19  C   UNL     1      -0.112  -0.639  25.107  0.00  0.00    +0.000 A 
ATOM     20  C   UNL     1      -0.206  -0.839  23.730  0.00  0.00    +0.000 A 
ENDBRANCH   8  13
BRANCH  10   3
ATOM      3  O   UNL     1      -3.031   4.634  23.270  0.00  0.00    -0.388 OA
ATOM     27  H   UNL     1      -2.655   3.791  22.964  0.00  0.00    +0.210 HD
ENDBRANCH  10   3
BRANCH  12   4
ATOM      4  O   UNL     1      -1.662   6.232  25.054  0.00  0.00    -0.389 OA
ATOM     28  H   UNL     1      -2.035   6.395  24.172  0.00  0.00    +0.210 HD
ENDBRANCH  12   4
BRANCH   9   7
ATOM      7  N   UNL     1      -4.445   2.755  26.010  0.00  0.00    -0.184 NA
ATOM     26  H   UNL     1      -4.267   3.106  26.959  0.00  0.00    +0.148 HD
BRANCH   7   2
ATOM      2  S   UNL     1      -5.699   1.648  25.714  0.00  0.00    +0.059 S 
ATOM      5  O   UNL     1      -6.446   2.067  24.544  0.00  0.00    -0.153 OA
ATOM      6  O   UNL     1      -6.388   1.377  26.961  0.00  0.00    -0.153 OA
BRANCH   2  17
ATOM      1 CL   UNL     1      -2.513  -3.549  24.213  0.00  0.00    -0.084 Cl
ATOM     17  C   UNL     1      -4.802   0.185  25.291  0.00  0.00    +0.105 A 
ATOM     21  C   UNL     1      -4.814  -0.285  23.979  0.00  0.00    +0.030 A 
ATOM     22  C   UNL     1      -4.082  -0.499  26.271  0.00  0.00    +0.030 A 
ATOM     23  C   UNL     1      -4.106  -1.440  23.645  0.00  0.00    +0.022 A 
ATOM     24  C   UNL     1      -3.375  -1.653  25.938  0.00  0.00    +0.022 A 
ATOM     25  C   UNL     1      -3.386  -2.124  24.625  0.00  0.00    +0.041 A 
ENDBRANCH   2  17
ENDBRANCH   7   2
ENDBRANCH   9   7
TORSDOF 6
ENDMDL
MODEL 6
REMARK VINA RESULT:      -1.2      2.515      3.450
REMARK  Name = 71694018
REMARK  7 active torsions:
REMARK  status: ('A' for Active; 'I' for Inactive)
REMARK    1  A    between atoms: S_2  and  N_7
REMARK    2  A    between atoms: S_2  and  C_17
REMARK    3  A    between atoms: O_3  and  C_10
REMARK    4  A    between atoms: O_4  and  C_12
REMARK    5  A    between atoms: N_7  and  C_9
REMARK    6  A    between atoms: C_8  and  C_13
REMARK    7  A    between atoms: C_14  and  C_18
REMARK                            x       y       z     vdW  Elec       q    Type
REMARK                         _______ _______ _______ _____ _____    ______ ____
ROOT
ATOM      8  C   UNL     1      -1.027   1.082  23.503  0.00  0.00    +0.043 C 
ATOM      9  C   UNL     1      -1.454  -0.115  24.396  0.00  0.00    +0.115 C 
ATOM     10  C   UNL     1      -0.225  -1.029  24.489  0.00  0.00    +0.162 C 
ATOM     11  C   UNL     1       0.471   0.871  23.226  0.00  0.00    +0.043 C 
ATOM     12  C   UNL     1       0.622  -0.641  23.280  0.00  0.00    +0.145 C 
ENDROOT
BRANCH   8  13
ATOM     13  C   UNL     1      -1.335   2.437  24.101  0.00  0.00    -0.040 A 
ATOM     14  C   UNL     1      -2.394   3.208  23.622  0.00  0.00    -0.047 A 
ATOM     15  C   UNL     1      -0.542   2.912  25.146  0.00  0.00    +0.004 A 
ATOM     16  C   UNL     1      -2.660   4.456  24.189  0.00  0.00    +0.003 A 
ATOM     18  C   UNL     1      -3.256   2.721  22.505  0.00  0.00    +0.044 C 
ATOM     19  C   UNL     1      -0.808   4.159  25.712  0.00  0.00    +0.000 A 
ATOM     20  C   UNL     1      -1.866   4.930  25.234  0.00  0.00    +0.000 A 
ENDBRANCH   8  13
BRANCH  10   3
ATOM      3  O   UNL     1       0.460  -0.724  25.703  0.00  0.00    -0.388 OA
ATOM     27  H   UNL     1       1.003  -1.497  25.934  0.00  0.00    +0.210 HD
ENDBRANCH  10   3
BRANCH  12   4
ATOM      4  O   UNL     1       1.976  -1.021  23.417  0.00  0.00    -0.389 OA
ATOM     28  H   UNL     1       2.199  -0.977  24.362  0.00  0.00    +0.210 HD
ENDBRANCH  12   4
BRANCH   9   7
ATOM      7  N   UNL     1      -2.565  -0.849  23.735  0.00  0.00    -0.184 NA
ATOM     26  H   UNL     1      -2.550  -0.921  22.710  0.00  0.00    +0.148 HD
BRANCH   7   2
ATOM      2  S   UNL     1      -3.966  -1.235  24.613  0.00  0.00    +0.059 S 
ATOM      5  O   UNL     1      -3.592  -1.841  25.877  0.00  0.00    -0.153 OA
ATOM      6  O   UNL     1      -4.901  -1.907  23.731  0.00  0.00    -0.153 OA
BRANCH   2  17
ATOM      1 CL   UNL     1      -6.344   4.449  25.821  0.00  0.00    -0.084 Cl
ATOM     17  C   UNL     1      -4.636   0.365  24.953  0.00  0.00    +0.105 A 
ATOM     21  C   UNL     1      -5.843   0.753  24.373  0.00  0.00    +0.030 A 
ATOM     22  C   UNL     1      -3.957   1.239  25.802  0.00  0.00    +0.030 A 
ATOM     23  C   UNL     1      -6.371   2.016  24.641  0.00  0.00    +0.022 A 
ATOM     24  C   UNL     1      -4.484   2.502  26.070  0.00  0.00    +0.022 A 
ATOM     25  C   UNL     1      -5.692   2.890  25.490  0.00  0.00    +0.041 A 
ENDBRANCH   2  17
ENDBRANCH   7   2
ENDBRANCH   9   7
TORSDOF 6
ENDMDL
MODEL 7
REMARK VINA RESULT:      -0.8      3.132      4.826
REMARK  Name = 71694018
REMARK  7 active torsions:
REMARK  status: ('A' for Active; 'I' for Inactive)
REMARK    1  A    between atoms: S_2  and  N_7
REMARK    2  A    between atoms: S_2  and  C_17
REMARK    3  A    between atoms: O_3  and  C_10
REMARK    4  A    between atoms: O_4  and  C_12
REMARK    5  A    between atoms: N_7  and  C_9
REMARK    6  A    between atoms: C_8  and  C_13
REMARK    7  A    between atoms: C_14  and  C_18
REMARK                            x       y       z     vdW  Elec       q    Type
REMARK                         _______ _______ _______ _____ _____    ______ ____
ROOT
ATOM      8  C   UNL     1      -1.508   0.925  25.226  0.00  0.00    +0.043 C 
ATOM      9  C   UNL     1      -0.825   1.739  24.092  0.00  0.00    +0.115 C 
ATOM     10  C   UNL     1       0.394   2.413  24.736  0.00  0.00    +0.162 C 
ATOM     11  C   UNL     1      -0.579   1.063  26.444  0.00  0.00    +0.043 C 
ATOM     12  C   UNL     1       0.075   2.418  26.228  0.00  0.00    +0.145 C 
ENDROOT
BRANCH   8  13
ATOM     13  C   UNL     1      -1.800  -0.513  24.861  0.00  0.00    -0.040 A 
ATOM     14  C   UNL     1      -2.875  -1.194  25.432  0.00  0.00    -0.047 A 
ATOM     15  C   UNL     1      -0.975  -1.159  23.940  0.00  0.00    +0.004 A 
ATOM     16  C   UNL     1      -3.125  -2.521  25.081  0.00  0.00    +0.003 A 
ATOM     18  C   UNL     1      -3.771  -0.525  26.421  0.00  0.00    +0.044 C 
ATOM     19  C   UNL     1      -1.225  -2.485  23.589  0.00  0.00    +0.000 A 
ATOM     20  C   UNL     1      -2.300  -3.166  24.160  0.00  0.00    +0.000 A 
ENDBRANCH   8  13
BRANCH  10   3
ATOM      3  O   UNL     1       1.538   1.605  24.468  0.00  0.00    -0.388 OA
ATOM     27  H   UNL     1       1.828   1.799  23.560  0.00  0.00    +0.210 HD
ENDBRANCH  10   3
BRANCH  12   4
ATOM      4  O   UNL     1       1.226   2.572  27.032  0.00  0.00    -0.389 OA
ATOM     28  H   UNL     1       1.949   2.082  26.606  0.00  0.00    +0.210 HD
ENDBRANCH  12   4
BRANCH   9   7
ATOM      7  N   UNL     1      -1.764   2.782  23.602  0.00  0.00    -0.184 NA
ATOM     26  H   UNL     1      -1.648   3.738  23.958  0.00  0.00    +0.148 HD
BRANCH   7   2
ATOM      2  S   UNL     1      -3.175   2.328  22.772  0.00  0.00    +0.059 S 
ATOM      5  O   UNL     1      -2.989   1.014  22.187  0.00  0.00    -0.153 OA
ATOM      6  O   UNL     1      -3.609   3.439  21.947  0.00  0.00    -0.153 OA
BRANCH   2  17
ATOM      1 CL   UNL     1      -7.318   1.790  27.459  0.00  0.00    -0.084 Cl
ATOM     17  C   UNL     1      -4.341   2.177  24.092  0.00  0.00    +0.105 A 
ATOM     21  C   UNL     1      -4.348   3.112  25.127  0.00  0.00    +0.030 A 
ATOM     22  C   UNL     1      -5.255   1.123  24.097  0.00  0.00    +0.030 A 
ATOM     23  C   UNL     1      -5.269   2.992  26.168  0.00  0.00    +0.022 A 
ATOM     24  C   UNL     1      -6.174   1.003  25.138  0.00  0.00    +0.022 A 
ATOM     25  C   UNL     1      -6.182   1.938  26.174  0.00  0.00    +0.041 A 
ENDBRANCH   2  17
ENDBRANCH   7   2
ENDBRANCH   9   7
TORSDOF 6
ENDMDL
MODEL 8
REMARK VINA RESULT:      -0.8      3.756      5.104
REMARK  Name = 71694018
REMARK  7 active torsions:
REMARK  status: ('A' for Active; 'I' for Inactive)
REMARK    1  A    between atoms: S_2  and  N_7
REMARK    2  A    between atoms: S_2  and  C_17
REMARK    3  A    between atoms: O_3  and  C_10
REMARK    4  A    between atoms: O_4  and  C_12
REMARK    5  A    between atoms: N_7  and  C_9
REMARK    6  A    between atoms: C_8  and  C_13
REMARK    7  A    between atoms: C_14  and  C_18
REMARK                            x       y       z     vdW  Elec       q    Type
REMARK                         _______ _______ _______ _____ _____    ______ ____
ROOT
ATOM      8  C   UNL     1      -0.037  -0.660  24.743  0.00  0.00    +0.043 C 
ATOM      9  C   UNL     1      -0.043   0.671  23.940  0.00  0.00    +0.115 C 
ATOM     10  C   UNL     1       1.206   0.628  23.048  0.00  0.00    +0.162 C 
ATOM     11  C   UNL     1       1.145  -1.469  24.184  0.00  0.00    +0.043 C 
ATOM     12  C   UNL     1       2.116  -0.392  23.728  0.00  0.00    +0.145 C 
ENDROOT
BRANCH   8  13
ATOM     13  C   UNL     1      -1.348  -1.413  24.695  0.00  0.00    -0.040 A 
ATOM     14  C   UNL     1      -2.383  -1.107  25.578  0.00  0.00    -0.047 A 
ATOM     15  C   UNL     1      -1.513  -2.426  23.750  0.00  0.00    +0.004 A 
ATOM     16  C   UNL     1      -3.585  -1.815  25.516  0.00  0.00    +0.003 A 
ATOM     18  C   UNL     1      -2.231  -0.027  26.598  0.00  0.00    +0.044 C 
ATOM     19  C   UNL     1      -2.713  -3.133  23.688  0.00  0.00    +0.000 A 
ATOM     20  C   UNL     1      -3.748  -2.828  24.571  0.00  0.00    +0.000 A 
ENDBRANCH   8  13
BRANCH  10   3
ATOM      3  O   UNL     1       0.809   0.169  21.758  0.00  0.00    -0.388 OA
ATOM     27  H   UNL     1       0.883  -0.801  21.756  0.00  0.00    +0.210 HD
ENDBRANCH  10   3
BRANCH  12   4
ATOM      4  O   UNL     1       3.097  -0.914  22.855  0.00  0.00    -0.389 OA
ATOM     28  H   UNL     1       2.662  -1.569  22.284  0.00  0.00    +0.210 HD
ENDBRANCH  12   4
BRANCH   9   7
ATOM      7  N   UNL     1       0.065   1.814  24.885  0.00  0.00    -0.184 NA
ATOM     26  H   UNL     1       0.409   1.622  25.834  0.00  0.00    +0.148 HD
BRANCH   7   2
ATOM      2  S   UNL     1      -0.682   3.293  24.513  0.00  0.00    +0.059 S 
ATOM      5  O   UNL     1      -0.398   3.644  23.135  0.00  0.00    -0.153 OA
ATOM      6  O   UNL     1      -0.406   4.237  25.579  0.00  0.00    -0.153 OA
BRANCH   2  17
ATOM      1 CL   UNL     1      -6.768   1.804  24.914  0.00  0.00    -0.084 Cl
ATOM     17  C   UNL     1      -2.396   2.874  24.626  0.00  0.00    +0.105 A 
ATOM     21  C   UNL     1      -3.202   3.488  25.583  0.00  0.00    +0.030 A 
ATOM     22  C   UNL     1      -2.941   1.928  23.757  0.00  0.00    +0.030 A 
ATOM     23  C   UNL     1      -4.554   3.158  25.672  0.00  0.00    +0.022 A 
ATOM     24  C   UNL     1      -4.292   1.597  23.847  0.00  0.00    +0.022 A 
ATOM     25  C   UNL     1      -5.100   2.212  24.804  0.00  0.00    +0.041 A 
ENDBRANCH   2  17
ENDBRANCH   7   2
ENDBRANCH   9   7
TORSDOF 6
ENDMDL
MODEL 9
REMARK VINA RESULT:      -0.7      4.303      6.139
REMARK  Name = 71694018
REMARK  7 active torsions:
REMARK  status: ('A' for Active; 'I' for Inactive)
REMARK    1  A    between atoms: S_2  and  N_7
REMARK    2  A    between atoms: S_2  and  C_17
REMARK    3  A    between atoms: O_3  and  C_10
REMARK    4  A    between atoms: O_4  and  C_12
REMARK    5  A    between atoms: N_7  and  C_9
REMARK    6  A    between atoms: C_8  and  C_13
REMARK    7  A    between atoms: C_14  and  C_18
REMARK                            x       y       z     vdW  Elec       q    Type
REMARK                         _______ _______ _______ _____ _____    ______ ____
ROOT
ATOM      8  C   UNL     1      -1.653   0.141  25.353  0.00  0.00    +0.043 C 
ATOM      9  C   UNL     1      -1.377  -0.610  24.021  0.00  0.00    +0.115 C 
ATOM     10  C   UNL     1      -1.993  -2.006  24.192  0.00  0.00    +0.162 C 
ATOM     11  C   UNL     1      -2.528  -0.811  26.186  0.00  0.00    +0.043 C 
ATOM     12  C   UNL     1      -2.096  -2.187  25.704  0.00  0.00    +0.145 C 
ENDROOT
BRANCH   8  13
ATOM     13  C   UNL     1      -2.271   1.509  25.172  0.00  0.00    -0.040 A 
ATOM     14  C   UNL     1      -1.587   2.662  25.558  0.00  0.00    -0.047 A 
ATOM     15  C   UNL     1      -3.543   1.609  24.609  0.00  0.00    +0.004 A 
ATOM     16  C   UNL     1      -2.176   3.915  25.381  0.00  0.00    +0.003 A 
ATOM     18  C   UNL     1      -0.224   2.582  26.162  0.00  0.00    +0.044 C 
ATOM     19  C   UNL     1      -4.133   2.860  24.432  0.00  0.00    +0.000 A 
ATOM     20  C   UNL     1      -3.449   4.013  24.819  0.00  0.00    +0.000 A 
ENDBRANCH   8  13
BRANCH  10   3
ATOM      3  O   UNL     1      -3.289  -1.992  23.596  0.00  0.00    -0.388 OA
ATOM     27  H   UNL     1      -3.867  -2.552  24.142  0.00  0.00    +0.210 HD
ENDBRANCH  10   3
BRANCH  12   4
ATOM      4  O   UNL     1      -3.030  -3.181  26.072  0.00  0.00    -0.389 OA
ATOM     28  H   UNL     1      -2.997  -3.879  25.396  0.00  0.00    +0.210 HD
ENDBRANCH  12   4
BRANCH   9   7
ATOM      7  N   UNL     1       0.090  -0.739  23.825  0.00  0.00    -0.184 NA
ATOM     26  H   UNL     1       0.627  -1.250  24.536  0.00  0.00    +0.148 HD
BRANCH   7   2
ATOM      2  S   UNL     1       0.877   0.221  22.666  0.00  0.00    +0.059 S 
ATOM      5  O   UNL     1       0.579   1.619  22.914  0.00  0.00    -0.153 OA
ATOM      6  O   UNL     1       0.649  -0.351  21.352  0.00  0.00    -0.153 OA
BRANCH   2  17
ATOM      1 CL   UNL     1       6.919  -0.746  24.069  0.00  0.00    -0.084 Cl
ATOM     17  C   UNL     1       2.578  -0.051  23.060  0.00  0.00    +0.105 A 
ATOM     21  C   UNL     1       2.987  -1.284  23.569  0.00  0.00    +0.030 A 
ATOM     22  C   UNL     1       3.511   0.966  22.862  0.00  0.00    +0.030 A 
ATOM     23  C   UNL     1       4.329  -1.498  23.881  0.00  0.00    +0.022 A 
ATOM     24  C   UNL     1       4.853   0.752  23.174  0.00  0.00    +0.022 A 
ATOM     25  C   UNL     1       5.263  -0.481  23.683  0.00  0.00    +0.041 A 
ENDBRANCH   2  17
ENDBRANCH   7   2
ENDBRANCH   9   7
TORSDOF 6
ENDMDL
MODEL 10
REMARK VINA RESULT:      -0.7      2.286      4.916
REMARK  Name = 71694018
REMARK  7 active torsions:
REMARK  status: ('A' for Active; 'I' for Inactive)
REMARK    1  A    between atoms: S_2  and  N_7
REMARK    2  A    between atoms: S_2  and  C_17
REMARK    3  A    between atoms: O_3  and  C_10
REMARK    4  A    between atoms: O_4  and  C_12
REMARK    5  A    between atoms: N_7  and  C_9
REMARK    6  A    between atoms: C_8  and  C_13
REMARK    7  A    between atoms: C_14  and  C_18
REMARK                            x       y       z     vdW  Elec       q    Type
REMARK                         _______ _______ _______ _____ _____    ______ ____
ROOT
ATOM      8  C   UNL     1      -3.357   2.700  26.017  0.00  0.00    +0.043 C 
ATOM      9  C   UNL     1      -3.946   1.629  25.057  0.00  0.00    +0.115 C 
ATOM     10  C   UNL     1      -5.415   2.018  24.846  0.00  0.00    +0.162 C 
ATOM     11  C   UNL     1      -4.479   3.732  26.216  0.00  0.00    +0.043 C 
ATOM     12  C   UNL     1      -5.743   2.905  26.044  0.00  0.00    +0.145 C 
ENDROOT
BRANCH   8  13
ATOM     13  C   UNL     1      -2.063   3.315  25.533  0.00  0.00    -0.040 A 
ATOM     14  C   UNL     1      -0.837   2.702  25.791  0.00  0.00    -0.047 A 
ATOM     15  C   UNL     1      -2.107   4.513  24.821  0.00  0.00    +0.004 A 
ATOM     16  C   UNL     1       0.345   3.287  25.335  0.00  0.00    +0.003 A 
ATOM     18  C   UNL     1      -0.763   1.419  26.551  0.00  0.00    +0.044 C 
ATOM     19  C   UNL     1      -0.926   5.099  24.365  0.00  0.00    +0.000 A 
ATOM     20  C   UNL     1       0.300   4.486  24.623  0.00  0.00    +0.000 A 
ENDBRANCH   8  13
BRANCH  10   3
ATOM      3  O   UNL     1      -5.506   2.759  23.631  0.00  0.00    -0.388 OA
ATOM     27  H   UNL     1      -5.576   3.700  23.866  0.00  0.00    +0.210 HD
ENDBRANCH  10   3
BRANCH  12   4
ATOM      4  O   UNL     1      -6.873   3.724  25.824  0.00  0.00    -0.389 OA
ATOM     28  H   UNL     1      -7.098   4.147  26.670  0.00  0.00    +0.210 HD
ENDBRANCH  12   4
BRANCH   9   7
ATOM      7  N   UNL     1      -3.877   0.295  25.709  0.00  0.00    -0.184 NA
ATOM     26  H   UNL     1      -3.837   0.263  26.735  0.00  0.00    +0.148 HD
BRANCH   7   2
ATOM      2  S   UNL     1      -3.524  -1.083  24.781  0.00  0.00    +0.059 S 
ATOM      5  O   UNL     1      -4.406  -1.129  23.630  0.00  0.00    -0.153 OA
ATOM      6  O   UNL     1      -3.418  -2.228  25.666  0.00  0.00    -0.153 OA
BRANCH   2  17
ATOM      1 CL   UNL     1       2.271   0.189  22.728  0.00  0.00    -0.084 Cl
ATOM     17  C   UNL     1      -1.892  -0.725  24.203  0.00  0.00    +0.105 A 
ATOM     21  C   UNL     1      -0.819  -1.519  24.607  0.00  0.00    +0.030 A 
ATOM     22  C   UNL     1      -1.678   0.351  23.342  0.00  0.00    +0.030 A 
ATOM     23  C   UNL     1       0.468  -1.237  24.151  0.00  0.00    +0.022 A 
ATOM     24  C   UNL     1      -0.391   0.634  22.887  0.00  0.00    +0.022 A 
ATOM     25  C   UNL     1       0.682  -0.160  23.291  0.00  0.00    +0.041 A 
ENDBRANCH   2  17
ENDBRANCH   7   2
ENDBRANCH   9   7
TORSDOF 6
ENDMDL
