MODEL 1
REMARK VINA RESULT:      14.4      0.000      0.000
REMARK  Name = 40780647
REMARK  9 active torsions:
REMARK  status: ('A' for Active; 'I' for Inactive)
REMARK    1  A    between atoms: N_3  and  C_9
REMARK    2  A    between atoms: N_4  and  C_18
REMARK    3  A    between atoms: N_6  and  C_26
REMARK    4  A    between atoms: N_6  and  C_30
REMARK    5  A    between atoms: N_6  and  C_31
REMARK    6  A    between atoms: C_7  and  C_10
REMARK    7  A    between atoms: C_13  and  C_15
REMARK    8  A    between atoms: C_14  and  C_16
REMARK    9  A    between atoms: C_17  and  C_19
REMARK                            x       y       z     vdW  Elec       q    Type
REMARK                         _______ _______ _______ _____ _____    ______ ____
ROOT
ATOM      7  C   UNL     1      -1.293  -0.426  24.135  0.00  0.00    +0.047 C 
ATOM      8  C   UNL     1      -0.558  -0.729  25.456  0.00  0.00    +0.039 C 
ATOM      9  C   UNL     1       0.199  -2.049  25.232  0.00  0.00    +0.097 C 
ATOM     11  C   UNL     1      -1.374  -1.782  23.500  0.00  0.00    -0.021 C 
ATOM     12  C   UNL     1      -0.557  -2.659  24.094  0.00  0.00    -0.009 C 
ENDROOT
BRANCH   7  10
ATOM      4  N   UNL     1      -4.209   1.716  24.706  0.00  0.00    -0.236 N 
ATOM      5  N   UNL     1      -4.882   0.572  24.497  0.00  0.00    -0.171 NA
ATOM     10  C   UNL     1      -2.625   0.258  24.336  0.00  0.00    +0.003 A 
ATOM     13  C   UNL     1      -2.854   1.582  24.621  0.00  0.00    +0.046 A 
ATOM     14  C   UNL     1      -3.909  -0.315  24.270  0.00  0.00    +0.064 A 
ATOM     15  C   UNL     1      -1.915   2.706  24.813  0.00  0.00    +0.066 C 
ATOM     16  C   UNL     1      -4.259  -1.719  23.992  0.00  0.00    +0.068 C 
BRANCH   4  18
ATOM      1  F   UNL     1      -6.983   6.368  25.794  0.00  0.00    -0.205 F 
ATOM     18  C   UNL     1      -4.909   2.891  24.982  0.00  0.00    +0.066 A 
ATOM     20  C   UNL     1      -4.514   4.093  24.393  0.00  0.00    +0.030 A 
ATOM     21  C   UNL     1      -6.004   2.864  25.845  0.00  0.00    +0.030 A 
ATOM     24  C   UNL     1      -5.215   5.267  24.668  0.00  0.00    +0.040 A 
ATOM     25  C   UNL     1      -6.705   4.039  26.119  0.00  0.00    +0.040 A 
ATOM     29  C   UNL     1      -6.310   5.240  25.531  0.00  0.00    +0.124 A 
ENDBRANCH   4  18
ENDBRANCH   7  10
BRANCH   9   3
ATOM      2  O   UNL     1       1.231  -0.207  23.267  0.00  0.00    -0.270 OA
ATOM      3  N   UNL     1       1.597  -1.826  24.887  0.00  0.00    -0.305 N 
ATOM     17  C   UNL     1       1.997  -0.910  23.919  0.00  0.00    +0.245 C 
ATOM     32  H   UNL     1       2.280  -2.436  25.324  0.00  0.00    +0.150 HD
BRANCH  17  19
ATOM     19  C   UNL     1       3.458  -0.820  23.667  0.00  0.00    +0.037 A 
ATOM     22  C   UNL     1       4.003   0.349  23.133  0.00  0.00    +0.015 A 
ATOM     23  C   UNL     1       4.286  -1.903  23.963  0.00  0.00    +0.015 A 
ATOM     26  C   UNL     1       6.202  -0.650  23.190  0.00  0.00    +0.029 A 
ATOM     27  C   UNL     1       5.375   0.433  22.894  0.00  0.00    +0.024 A 
ATOM     28  C   UNL     1       5.658  -1.818  23.725  0.00  0.00    +0.024 A 
BRANCH  26   6
ATOM      6  N   UNL     1       7.589  -0.565  22.949  0.00  0.00    -0.336 N 
ATOM     30  C   UNL     1       8.374   0.497  23.544  0.00  0.00    +0.129 C 
ATOM     31  C   UNL     1       8.249  -1.546  22.110  0.00  0.00    +0.129 C 
ENDBRANCH  26   6
ENDBRANCH  17  19
ENDBRANCH   9   3
TORSDOF 5
ENDMDL
MODEL 2
REMARK VINA RESULT:      15.2      1.523      2.160
REMARK  Name = 40780647
REMARK  9 active torsions:
REMARK  status: ('A' for Active; 'I' for Inactive)
REMARK    1  A    between atoms: N_3  and  C_9
REMARK    2  A    between atoms: N_4  and  C_18
REMARK    3  A    between atoms: N_6  and  C_26
REMARK    4  A    between atoms: N_6  and  C_30
REMARK    5  A    between atoms: N_6  and  C_31
REMARK    6  A    between atoms: C_7  and  C_10
REMARK    7  A    between atoms: C_13  and  C_15
REMARK    8  A    between atoms: C_14  and  C_16
REMARK    9  A    between atoms: C_17  and  C_19
REMARK                            x       y       z     vdW  Elec       q    Type
REMARK                         _______ _______ _______ _____ _____    ______ ____
ROOT
ATOM      7  C   UNL     1       0.373   0.356  23.628  0.00  0.00    +0.047 C 
ATOM      8  C   UNL     1       0.937  -1.019  24.033  0.00  0.00    +0.039 C 
ATOM      9  C   UNL     1       1.759  -1.516  22.832  0.00  0.00    +0.097 C 
ATOM     11  C   UNL     1       0.419   0.289  22.130  0.00  0.00    -0.021 C 
ATOM     12  C   UNL     1       1.180  -0.725  21.702  0.00  0.00    -0.009 C 
ENDROOT
BRANCH   7  10
ATOM      4  N   UNL     1      -2.854   1.580  24.856  0.00  0.00    -0.236 N 
ATOM      5  N   UNL     1      -3.011   0.298  25.226  0.00  0.00    -0.171 NA
ATOM     10  C   UNL     1      -0.995   0.635  24.205  0.00  0.00    +0.003 A 
ATOM     13  C   UNL     1      -1.663   1.834  24.240  0.00  0.00    +0.046 A 
ATOM     14  C   UNL     1      -1.873  -0.275  24.825  0.00  0.00    +0.064 A 
ATOM     15  C   UNL     1      -1.275   3.171  23.747  0.00  0.00    +0.066 C 
ATOM     16  C   UNL     1      -1.665  -1.715  25.060  0.00  0.00    +0.068 C 
BRANCH   4  18
ATOM      1  F   UNL     1      -6.861   5.242  25.884  0.00  0.00    -0.205 F 
ATOM     18  C   UNL     1      -3.866   2.504  25.116  0.00  0.00    +0.066 A 
ATOM     20  C   UNL     1      -3.547   3.846  25.331  0.00  0.00    +0.030 A 
ATOM     21  C   UNL     1      -5.197   2.089  25.160  0.00  0.00    +0.030 A 
ATOM     24  C   UNL     1      -4.559   4.770  25.590  0.00  0.00    +0.040 A 
ATOM     25  C   UNL     1      -6.208   3.013  25.419  0.00  0.00    +0.040 A 
ATOM     29  C   UNL     1      -5.890   4.354  25.635  0.00  0.00    +0.124 A 
ENDBRANCH   4  18
ENDBRANCH   7  10
BRANCH   9   3
ATOM      2  O   UNL     1       3.020   1.059  23.148  0.00  0.00    -0.270 OA
ATOM      3  N   UNL     1       3.183  -1.250  22.996  0.00  0.00    -0.305 N 
ATOM     17  C   UNL     1       3.697   0.034  23.142  0.00  0.00    +0.245 C 
ATOM     32  H   UNL     1       3.810  -2.043  22.911  0.00  0.00    +0.150 HD
BRANCH  17  19
ATOM     19  C   UNL     1       5.173   0.138  23.272  0.00  0.00    +0.037 A 
ATOM     22  C   UNL     1       5.736   1.166  24.031  0.00  0.00    +0.015 A 
ATOM     23  C   UNL     1       5.997  -0.791  22.637  0.00  0.00    +0.015 A 
ATOM     26  C   UNL     1       7.945   0.335  23.517  0.00  0.00    +0.029 A 
ATOM     27  C   UNL     1       7.122   1.264  24.153  0.00  0.00    +0.024 A 
ATOM     28  C   UNL     1       7.384  -0.692  22.759  0.00  0.00    +0.024 A 
BRANCH  26   6
ATOM      6  N   UNL     1       9.347   0.434  23.639  0.00  0.00    -0.336 N 
ATOM     30  C   UNL     1      10.217  -0.339  22.775  0.00  0.00    +0.129 C 
ATOM     31  C   UNL     1       9.936   1.318  24.626  0.00  0.00    +0.129 C 
ENDBRANCH  26   6
ENDBRANCH  17  19
ENDBRANCH   9   3
TORSDOF 5
ENDMDL
MODEL 3
REMARK VINA RESULT:      16.9      1.952      3.077
REMARK  Name = 40780647
REMARK  9 active torsions:
REMARK  status: ('A' for Active; 'I' for Inactive)
REMARK    1  A    between atoms: N_3  and  C_9
REMARK    2  A    between atoms: N_4  and  C_18
REMARK    3  A    between atoms: N_6  and  C_26
REMARK    4  A    between atoms: N_6  and  C_30
REMARK    5  A    between atoms: N_6  and  C_31
REMARK    6  A    between atoms: C_7  and  C_10
REMARK    7  A    between atoms: C_13  and  C_15
REMARK    8  A    between atoms: C_14  and  C_16
REMARK    9  A    between atoms: C_17  and  C_19
REMARK                            x       y       z     vdW  Elec       q    Type
REMARK                         _______ _______ _______ _____ _____    ______ ____
ROOT
ATOM      7  C   UNL     1       0.597   1.227  23.499  0.00  0.00    +0.047 C 
ATOM      8  C   UNL     1       0.982  -0.011  24.333  0.00  0.00    +0.039 C 
ATOM      9  C   UNL     1       1.662  -0.988  23.360  0.00  0.00    +0.097 C 
ATOM     11  C   UNL     1       0.556   0.670  22.106  0.00  0.00    -0.021 C 
ATOM     12  C   UNL     1       1.143  -0.529  22.034  0.00  0.00    -0.009 C 
ENDROOT
BRANCH   7  10
ATOM      4  N   UNL     1      -2.702   2.267  24.704  0.00  0.00    -0.236 N 
ATOM      5  N   UNL     1      -2.217   3.498  24.465  0.00  0.00    -0.171 NA
ATOM     10  C   UNL     1      -0.686   1.880  23.956  0.00  0.00    +0.003 A 
ATOM     13  C   UNL     1      -1.824   1.263  24.416  0.00  0.00    +0.046 A 
ATOM     14  C   UNL     1      -0.985   3.255  24.009  0.00  0.00    +0.064 A 
ATOM     15  C   UNL     1      -2.140  -0.168  24.601  0.00  0.00    +0.066 C 
ATOM     16  C   UNL     1      -0.117   4.383  23.630  0.00  0.00    +0.068 C 
BRANCH   4  18
ATOM      1  F   UNL     1      -7.828   1.674  26.677  0.00  0.00    -0.205 F 
ATOM     18  C   UNL     1      -3.996   2.118  25.202  0.00  0.00    +0.066 A 
ATOM     20  C   UNL     1      -4.711   0.947  24.948  0.00  0.00    +0.030 A 
ATOM     21  C   UNL     1      -4.577   3.139  25.955  0.00  0.00    +0.030 A 
ATOM     24  C   UNL     1      -6.005   0.798  25.446  0.00  0.00    +0.040 A 
ATOM     25  C   UNL     1      -5.871   2.989  26.454  0.00  0.00    +0.040 A 
ATOM     29  C   UNL     1      -6.585   1.818  26.199  0.00  0.00    +0.124 A 
ENDBRANCH   4  18
ENDBRANCH   7  10
BRANCH   9   3
ATOM      2  O   UNL     1       3.275   1.383  23.047  0.00  0.00    -0.270 OA
ATOM      3  N   UNL     1       3.116  -0.900  23.424  0.00  0.00    -0.305 N 
ATOM     17  C   UNL     1       3.806   0.296  23.259  0.00  0.00    +0.245 C 
ATOM     32  H   UNL     1       3.625  -1.775  23.508  0.00  0.00    +0.150 HD
BRANCH  17  19
ATOM     19  C   UNL     1       5.288   0.213  23.326  0.00  0.00    +0.037 A 
ATOM     22  C   UNL     1       6.007   1.159  24.058  0.00  0.00    +0.015 A 
ATOM     23  C   UNL     1       5.960  -0.811  22.658  0.00  0.00    +0.015 A 
ATOM     26  C   UNL     1       8.070   0.058  23.452  0.00  0.00    +0.029 A 
ATOM     27  C   UNL     1       7.398   1.081  24.120  0.00  0.00    +0.024 A 
ATOM     28  C   UNL     1       7.352  -0.888  22.721  0.00  0.00    +0.024 A 
BRANCH  26   6
ATOM      6  N   UNL     1       9.477  -0.021  23.514  0.00  0.00    -0.336 N 
ATOM     30  C   UNL     1      10.276   0.133  22.314  0.00  0.00    +0.129 C 
ATOM     31  C   UNL     1      10.144  -0.248  24.781  0.00  0.00    +0.129 C 
ENDBRANCH  26   6
ENDBRANCH  17  19
ENDBRANCH   9   3
TORSDOF 5
ENDMDL
