MODEL 1
REMARK VINA RESULT:       4.8      0.000      0.000
REMARK  Name = 26744820
REMARK  7 active torsions:
REMARK  status: ('A' for Active; 'I' for Inactive)
REMARK    1  A    between atoms: O_5  and  C_33
REMARK    2  A    between atoms: O_5  and  C_34
REMARK    3  A    between atoms: N_6  and  C_17
REMARK    4  A    between atoms: C_12  and  C_18
REMARK    5  A    between atoms: C_17  and  C_19
REMARK    6  A    between atoms: C_23  and  C_26
REMARK    7  A    between atoms: C_24  and  C_32
REMARK                            x       y       z     vdW  Elec       q    Type
REMARK                         _______ _______ _______ _____ _____    ______ ____
ROOT
ATOM      6  N   UNL     1      -3.855   1.701  24.288  0.00  0.00    -0.281 NA
ATOM      7  N   UNL     1      -6.841   3.746  25.274  0.00  0.00    -0.347 N 
ATOM      8  N   UNL     1      -5.347   5.076  26.271  0.00  0.00    -0.240 NA
ATOM     12  C   UNL     1      -2.916   2.875  24.314  0.00  0.00    +0.152 C 
ATOM     13  C   UNL     1      -3.256   3.890  25.462  0.00  0.00    +0.086 C 
ATOM     14  C   UNL     1      -5.274   2.115  24.078  0.00  0.00    +0.140 C 
ATOM     15  C   UNL     1      -5.612   3.263  24.944  0.00  0.00    +0.053 A 
ATOM     16  C   UNL     1      -4.715   4.097  25.559  0.00  0.00    +0.065 A 
ATOM     20  C   UNL     1      -6.630   4.840  26.075  0.00  0.00    +0.197 A 
ATOM     35  H   UNL     1      -7.738   3.378  24.983  0.00  0.00    +0.167 HD
ENDROOT
BRANCH  12  18
ATOM      4  O   UNL     1      -0.861   2.751  25.649  0.00  0.00    -0.336 OA
ATOM      9  N   UNL     1      -0.648   1.936  23.574  0.00  0.00    -0.190 NA
ATOM     10  N   UNL     1       0.466   2.318  25.535  0.00  0.00    -0.056 NA
ATOM     18  C   UNL     1      -1.447   2.489  24.451  0.00  0.00    +0.245 A 
ATOM     23  C   UNL     1       0.513   1.850  24.285  0.00  0.00    +0.202 A 
BRANCH  23  26
ATOM     26  C   UNL     1       1.705   1.289  23.715  0.00  0.00    +0.023 A 
ATOM     28  C   UNL     1       1.807  -0.089  23.530  0.00  0.00    +0.015 A 
ATOM     29  C   UNL     1       2.760   2.123  23.347  0.00  0.00    +0.015 A 
ATOM     30  C   UNL     1       2.967  -0.634  22.977  0.00  0.00    +0.046 A 
ATOM     31  C   UNL     1       3.919   1.579  22.793  0.00  0.00    +0.046 A 
ATOM     33  C   UNL     1       4.022   0.200  22.608  0.00  0.00    +0.130 A 
BRANCH  33   5
ATOM      5  O   UNL     1       5.153  -0.331  22.068  0.00  0.00    -0.406 OA
BRANCH   5  34
ATOM      1  F   UNL     1       6.526   0.472  23.669  0.00  0.00    -0.133 F 
ATOM      2  F   UNL     1       5.919  -1.624  23.792  0.00  0.00    -0.133 F 
ATOM      3  F   UNL     1       7.344  -0.963  22.238  0.00  0.00    -0.133 F 
ATOM     34  C   UNL     1       6.240  -0.629  22.937  0.00  0.00    +0.575 C 
ENDBRANCH   5  34
ENDBRANCH  33   5
ENDBRANCH  23  26
ENDBRANCH  12  18
BRANCH   6  17
ATOM     17  C   UNL     1      -3.505   0.727  23.246  0.00  0.00    +0.120 C 
BRANCH  17  19
ATOM     19  C   UNL     1      -3.226  -0.635  23.822  0.00  0.00    -0.032 A 
ATOM     21  C   UNL     1      -1.951  -0.948  24.293  0.00  0.00    +0.023 A 
ATOM     22  C   UNL     1      -4.247  -1.585  23.888  0.00  0.00    +0.005 A 
ATOM     24  C   UNL     1      -1.696  -2.210  24.829  0.00  0.00    +0.052 A 
ATOM     25  C   UNL     1      -3.991  -2.847  24.425  0.00  0.00    +0.002 A 
ATOM     27  C   UNL     1      -2.715  -3.160  24.895  0.00  0.00    +0.019 A 
BRANCH  24  32
ATOM     11  N   UNL     1       0.673  -2.794  25.698  0.00  0.00    -0.191 NA
ATOM     32  C   UNL     1      -0.389  -2.532  25.309  0.00  0.00    +0.099 C 
ENDBRANCH  24  32
ENDBRANCH  17  19
ENDBRANCH   6  17
TORSDOF 7
ENDMDL
MODEL 2
REMARK VINA RESULT:       5.8      1.675      2.256
REMARK  Name = 26744820
REMARK  7 active torsions:
REMARK  status: ('A' for Active; 'I' for Inactive)
REMARK    1  A    between atoms: O_5  and  C_33
REMARK    2  A    between atoms: O_5  and  C_34
REMARK    3  A    between atoms: N_6  and  C_17
REMARK    4  A    between atoms: C_12  and  C_18
REMARK    5  A    between atoms: C_17  and  C_19
REMARK    6  A    between atoms: C_23  and  C_26
REMARK    7  A    between atoms: C_24  and  C_32
REMARK                            x       y       z     vdW  Elec       q    Type
REMARK                         _______ _______ _______ _____ _____    ______ ____
ROOT
ATOM      6  N   UNL     1      -4.460   1.391  25.271  0.00  0.00    -0.281 NA
ATOM      7  N   UNL     1      -6.630   4.285  26.264  0.00  0.00    -0.347 N 
ATOM      8  N   UNL     1      -5.259   5.493  24.977  0.00  0.00    -0.240 NA
ATOM     12  C   UNL     1      -4.055   2.014  23.963  0.00  0.00    +0.152 C 
ATOM     13  C   UNL     1      -3.876   3.570  24.069  0.00  0.00    +0.086 C 
ATOM     14  C   UNL     1      -5.757   1.930  25.775  0.00  0.00    +0.140 C 
ATOM     15  C   UNL     1      -5.786   3.402  25.663  0.00  0.00    +0.053 A 
ATOM     16  C   UNL     1      -4.962   4.164  24.876  0.00  0.00    +0.065 A 
ATOM     20  C   UNL     1      -6.273   5.534  25.819  0.00  0.00    +0.197 A 
ATOM     35  H   UNL     1      -7.379   4.068  26.909  0.00  0.00    +0.167 HD
ENDROOT
BRANCH  12  18
ATOM      4  O   UNL     1      -2.918   0.572  22.336  0.00  0.00    -0.336 OA
ATOM      9  N   UNL     1      -1.528   1.647  23.725  0.00  0.00    -0.190 NA
ATOM     10  N   UNL     1      -1.623   0.180  21.973  0.00  0.00    -0.056 NA
ATOM     18  C   UNL     1      -2.772   1.436  23.375  0.00  0.00    +0.245 A 
ATOM     23  C   UNL     1      -0.861   0.856  22.837  0.00  0.00    +0.202 A 
BRANCH  23  26
ATOM     26  C   UNL     1       0.571   0.766  22.838  0.00  0.00    +0.023 A 
ATOM     28  C   UNL     1       1.325   1.642  23.618  0.00  0.00    +0.015 A 
ATOM     29  C   UNL     1       1.208  -0.199  22.059  0.00  0.00    +0.015 A 
ATOM     30  C   UNL     1       2.718   1.553  23.617  0.00  0.00    +0.046 A 
ATOM     31  C   UNL     1       2.601  -0.289  22.059  0.00  0.00    +0.046 A 
ATOM     33  C   UNL     1       3.355   0.588  22.838  0.00  0.00    +0.130 A 
BRANCH  33   5
ATOM      5  O   UNL     1       4.714   0.501  22.838  0.00  0.00    -0.406 OA
BRANCH   5  34
ATOM      1  F   UNL     1       6.622  -0.519  23.477  0.00  0.00    -0.133 F 
ATOM      2  F   UNL     1       5.352   0.351  25.028  0.00  0.00    -0.133 F 
ATOM      3  F   UNL     1       4.725  -1.485  23.972  0.00  0.00    -0.133 F 
ATOM     34  C   UNL     1       5.340  -0.291  23.840  0.00  0.00    +0.575 C 
ENDBRANCH   5  34
ENDBRANCH  33   5
ENDBRANCH  23  26
ENDBRANCH  12  18
BRANCH   6  17
ATOM     17  C   UNL     1      -4.577  -0.070  25.181  0.00  0.00    +0.120 C 
BRANCH  17  19
ATOM     19  C   UNL     1      -3.231  -0.743  25.227  0.00  0.00    -0.032 A 
ATOM     21  C   UNL     1      -2.945  -1.793  24.353  0.00  0.00    +0.023 A 
ATOM     22  C   UNL     1      -2.268  -0.314  26.141  0.00  0.00    +0.005 A 
ATOM     24  C   UNL     1      -1.696  -2.413  24.394  0.00  0.00    +0.052 A 
ATOM     25  C   UNL     1      -1.019  -0.936  26.182  0.00  0.00    +0.002 A 
ATOM     27  C   UNL     1      -0.734  -1.985  25.309  0.00  0.00    +0.019 A 
BRANCH  24  32
ATOM     11  N   UNL     1      -1.165  -4.366  22.778  0.00  0.00    -0.191 NA
ATOM     32  C   UNL     1      -1.403  -3.491  23.503  0.00  0.00    +0.099 C 
ENDBRANCH  24  32
ENDBRANCH  17  19
ENDBRANCH   6  17
TORSDOF 7
ENDMDL
MODEL 3
REMARK VINA RESULT:       6.3      4.722      9.030
REMARK  Name = 26744820
REMARK  7 active torsions:
REMARK  status: ('A' for Active; 'I' for Inactive)
REMARK    1  A    between atoms: O_5  and  C_33
REMARK    2  A    between atoms: O_5  and  C_34
REMARK    3  A    between atoms: N_6  and  C_17
REMARK    4  A    between atoms: C_12  and  C_18
REMARK    5  A    between atoms: C_17  and  C_19
REMARK    6  A    between atoms: C_23  and  C_26
REMARK    7  A    between atoms: C_24  and  C_32
REMARK                            x       y       z     vdW  Elec       q    Type
REMARK                         _______ _______ _______ _____ _____    ______ ____
ROOT
ATOM      6  N   UNL     1       2.547   1.164  23.591  0.00  0.00    -0.281 NA
ATOM      7  N   UNL     1       6.170   0.263  23.230  0.00  0.00    -0.347 N 
ATOM      8  N   UNL     1       5.482  -1.825  23.638  0.00  0.00    -0.240 NA
ATOM     12  C   UNL     1       2.063  -0.193  23.161  0.00  0.00    +0.152 C 
ATOM     13  C   UNL     1       2.990  -1.351  23.672  0.00  0.00    +0.086 C 
ATOM     14  C   UNL     1       3.917   1.464  23.078  0.00  0.00    +0.140 C 
ATOM     15  C   UNL     1       4.810   0.306  23.279  0.00  0.00    +0.053 A 
ATOM     16  C   UNL     1       4.413  -0.983  23.522  0.00  0.00    +0.065 A 
ATOM     20  C   UNL     1       6.529  -1.044  23.452  0.00  0.00    +0.197 A 
ATOM     35  H   UNL     1       6.798   1.037  23.058  0.00  0.00    +0.167 HD
ENDROOT
BRANCH  12  18
ATOM      4  O   UNL     1       0.356  -1.814  23.854  0.00  0.00    -0.336 OA
ATOM      9  N   UNL     1      -0.378   0.301  23.771  0.00  0.00    -0.190 NA
ATOM     10  N   UNL     1      -0.992  -1.853  24.233  0.00  0.00    -0.056 NA
ATOM     18  C   UNL     1       0.637  -0.508  23.600  0.00  0.00    +0.245 A 
ATOM     23  C   UNL     1      -1.354  -0.570  24.160  0.00  0.00    +0.202 A 
BRANCH  23  26
ATOM     26  C   UNL     1      -2.682  -0.123  24.470  0.00  0.00    +0.023 A 
ATOM     28  C   UNL     1      -3.277   0.880  23.705  0.00  0.00    +0.015 A 
ATOM     29  C   UNL     1      -3.376  -0.692  25.537  0.00  0.00    +0.015 A 
ATOM     30  C   UNL     1      -4.568   1.314  24.009  0.00  0.00    +0.046 A 
ATOM     31  C   UNL     1      -4.667  -0.258  25.840  0.00  0.00    +0.046 A 
ATOM     33  C   UNL     1      -5.262   0.745  25.076  0.00  0.00    +0.130 A 
BRANCH  33   5
ATOM      5  O   UNL     1      -6.522   1.169  25.372  0.00  0.00    -0.406 OA
BRANCH   5  34
ATOM      1  F   UNL     1      -5.448   2.643  26.700  0.00  0.00    -0.133 F 
ATOM      2  F   UNL     1      -7.248   3.317  25.661  0.00  0.00    -0.133 F 
ATOM      3  F   UNL     1      -7.398   1.904  27.353  0.00  0.00    -0.133 F 
ATOM     34  C   UNL     1      -6.672   2.260  26.272  0.00  0.00    +0.575 C 
ENDBRANCH   5  34
ENDBRANCH  33   5
ENDBRANCH  23  26
ENDBRANCH  12  18
BRANCH   6  17
ATOM     17  C   UNL     1       1.650   2.242  23.154  0.00  0.00    +0.120 C 
BRANCH  17  19
ATOM     19  C   UNL     1       0.634   2.587  24.210  0.00  0.00    -0.032 A 
ATOM     21  C   UNL     1      -0.539   3.255  23.858  0.00  0.00    +0.023 A 
ATOM     22  C   UNL     1       0.866   2.236  25.541  0.00  0.00    +0.005 A 
ATOM     24  C   UNL     1      -1.481   3.571  24.838  0.00  0.00    +0.052 A 
ATOM     25  C   UNL     1      -0.077   2.554  26.519  0.00  0.00    +0.002 A 
ATOM     27  C   UNL     1      -1.250   3.221  26.168  0.00  0.00    +0.019 A 
BRANCH  24  32
ATOM     11  N   UNL     1      -3.657   4.815  24.188  0.00  0.00    -0.191 NA
ATOM     32  C   UNL     1      -2.682   4.258  24.480  0.00  0.00    +0.099 C 
ENDBRANCH  24  32
ENDBRANCH  17  19
ENDBRANCH   6  17
TORSDOF 7
ENDMDL
MODEL 4
REMARK VINA RESULT:       6.7      2.087      5.035
REMARK  Name = 26744820
REMARK  7 active torsions:
REMARK  status: ('A' for Active; 'I' for Inactive)
REMARK    1  A    between atoms: O_5  and  C_33
REMARK    2  A    between atoms: O_5  and  C_34
REMARK    3  A    between atoms: N_6  and  C_17
REMARK    4  A    between atoms: C_12  and  C_18
REMARK    5  A    between atoms: C_17  and  C_19
REMARK    6  A    between atoms: C_23  and  C_26
REMARK    7  A    between atoms: C_24  and  C_32
REMARK                            x       y       z     vdW  Elec       q    Type
REMARK                         _______ _______ _______ _____ _____    ______ ____
ROOT
ATOM      6  N   UNL     1      -1.872   0.459  22.933  0.00  0.00    -0.281 NA
ATOM      7  N   UNL     1      -4.875  -1.453  24.114  0.00  0.00    -0.347 N 
ATOM      8  N   UNL     1      -3.423  -3.114  24.475  0.00  0.00    -0.240 NA
ATOM     12  C   UNL     1      -0.914  -0.317  23.793  0.00  0.00    +0.152 C 
ATOM     13  C   UNL     1      -1.307  -1.832  23.914  0.00  0.00    +0.086 C 
ATOM     14  C   UNL     1      -3.265   0.427  23.468  0.00  0.00    +0.140 C 
ATOM     15  C   UNL     1      -3.637  -0.945  23.865  0.00  0.00    +0.053 A 
ATOM     16  C   UNL     1      -2.766  -1.977  24.100  0.00  0.00    +0.065 A 
ATOM     20  C   UNL     1      -4.695  -2.764  24.478  0.00  0.00    +0.197 A 
ATOM     35  H   UNL     1      -5.758  -0.963  24.050  0.00  0.00    +0.167 HD
ENDROOT
BRANCH  12  18
ATOM      4  O   UNL     1       0.732  -0.119  21.984  0.00  0.00    -0.336 OA
ATOM      9  N   UNL     1       1.640  -0.295  24.025  0.00  0.00    -0.190 NA
ATOM     10  N   UNL     1       2.120  -0.079  21.799  0.00  0.00    -0.056 NA
ATOM     18  C   UNL     1       0.535  -0.247  23.323  0.00  0.00    +0.245 A 
ATOM     23  C   UNL     1       2.584  -0.188  23.047  0.00  0.00    +0.202 A 
BRANCH  23  26
ATOM     26  C   UNL     1       3.987  -0.190  23.351  0.00  0.00    +0.023 A 
ATOM     28  C   UNL     1       4.587  -1.339  23.866  0.00  0.00    +0.015 A 
ATOM     29  C   UNL     1       4.749   0.957  23.131  0.00  0.00    +0.015 A 
ATOM     30  C   UNL     1       5.950  -1.339  24.163  0.00  0.00    +0.046 A 
ATOM     31  C   UNL     1       6.112   0.956  23.427  0.00  0.00    +0.046 A 
ATOM     33  C   UNL     1       6.712  -0.193  23.943  0.00  0.00    +0.130 A 
BRANCH  33   5
ATOM      5  O   UNL     1       8.043  -0.193  24.232  0.00  0.00    -0.406 OA
BRANCH   5  34
ATOM      1  F   UNL     1      10.153  -0.646  23.573  0.00  0.00    -0.133 F 
ATOM      2  F   UNL     1       8.544  -0.907  22.118  0.00  0.00    -0.133 F 
ATOM      3  F   UNL     1       9.172   1.119  22.737  0.00  0.00    -0.133 F 
ATOM     34  C   UNL     1       8.968  -0.149  23.152  0.00  0.00    +0.575 C 
ENDBRANCH   5  34
ENDBRANCH  33   5
ENDBRANCH  23  26
ENDBRANCH  12  18
BRANCH   6  17
ATOM     17  C   UNL     1      -1.474   1.864  22.780  0.00  0.00    +0.120 C 
BRANCH  17  19
ATOM     19  C   UNL     1      -1.922   2.704  23.946  0.00  0.00    -0.032 A 
ATOM     21  C   UNL     1      -3.283   2.855  24.215  0.00  0.00    +0.023 A 
ATOM     22  C   UNL     1      -0.976   3.329  24.759  0.00  0.00    +0.005 A 
ATOM     24  C   UNL     1      -3.697   3.631  25.298  0.00  0.00    +0.052 A 
ATOM     25  C   UNL     1      -1.391   4.105  25.842  0.00  0.00    +0.002 A 
ATOM     27  C   UNL     1      -2.751   4.256  26.111  0.00  0.00    +0.019 A 
BRANCH  24  32
ATOM     11  N   UNL     1      -6.221   3.918  25.796  0.00  0.00    -0.191 NA
ATOM     32  C   UNL     1      -5.090   3.790  25.573  0.00  0.00    +0.099 C 
ENDBRANCH  24  32
ENDBRANCH  17  19
ENDBRANCH   6  17
TORSDOF 7
ENDMDL
MODEL 5
REMARK VINA RESULT:       6.9      2.205      3.704
REMARK  Name = 26744820
REMARK  7 active torsions:
REMARK  status: ('A' for Active; 'I' for Inactive)
REMARK    1  A    between atoms: O_5  and  C_33
REMARK    2  A    between atoms: O_5  and  C_34
REMARK    3  A    between atoms: N_6  and  C_17
REMARK    4  A    between atoms: C_12  and  C_18
REMARK    5  A    between atoms: C_17  and  C_19
REMARK    6  A    between atoms: C_23  and  C_26
REMARK    7  A    between atoms: C_24  and  C_32
REMARK                            x       y       z     vdW  Elec       q    Type
REMARK                         _______ _______ _______ _____ _____    ______ ____
ROOT
ATOM      6  N   UNL     1      -0.739   1.445  25.619  0.00  0.00    -0.281 NA
ATOM      7  N   UNL     1      -2.601   4.652  26.182  0.00  0.00    -0.347 N 
ATOM      8  N   UNL     1      -1.248   5.478  24.606  0.00  0.00    -0.240 NA
ATOM     12  C   UNL     1      -0.392   1.780  24.194  0.00  0.00    +0.152 C 
ATOM     13  C   UNL     1      -0.090   3.307  23.993  0.00  0.00    +0.086 C 
ATOM     14  C   UNL     1      -1.948   2.180  26.093  0.00  0.00    +0.140 C 
ATOM     15  C   UNL     1      -1.875   3.603  25.707  0.00  0.00    +0.053 A 
ATOM     16  C   UNL     1      -1.061   4.132  24.740  0.00  0.00    +0.065 A 
ATOM     20  C   UNL     1      -2.188   5.762  25.488  0.00  0.00    +0.197 A 
ATOM     35  H   UNL     1      -3.311   4.624  26.902  0.00  0.00    +0.167 HD
ENDROOT
BRANCH  12  18
ATOM      4  O   UNL     1       0.518   0.071  22.686  0.00  0.00    -0.336 OA
ATOM      9  N   UNL     1       2.061   1.069  23.966  0.00  0.00    -0.190 NA
ATOM     10  N   UNL     1       1.744  -0.514  22.346  0.00  0.00    -0.056 NA
ATOM     18  C   UNL     1       0.794   0.993  23.646  0.00  0.00    +0.245 A 
ATOM     23  C   UNL     1       2.604   0.127  23.142  0.00  0.00    +0.202 A 
BRANCH  23  26
ATOM     26  C   UNL     1       4.012  -0.149  23.139  0.00  0.00    +0.023 A 
ATOM     28  C   UNL     1       4.520  -1.199  23.903  0.00  0.00    +0.015 A 
ATOM     29  C   UNL     1       4.872   0.634  22.370  0.00  0.00    +0.015 A 
ATOM     30  C   UNL     1       5.889  -1.465  23.899  0.00  0.00    +0.046 A 
ATOM     31  C   UNL     1       6.242   0.367  22.365  0.00  0.00    +0.046 A 
ATOM     33  C   UNL     1       6.750  -0.683  23.130  0.00  0.00    +0.130 A 
BRANCH  33   5
ATOM      5  O   UNL     1       8.086  -0.942  23.126  0.00  0.00    -0.406 OA
BRANCH   5  34
ATOM      1  F   UNL     1       9.695   0.423  22.326  0.00  0.00    -0.133 F 
ATOM      2  F   UNL     1       8.307   1.229  23.809  0.00  0.00    -0.133 F 
ATOM      3  F   UNL     1       9.848  -0.239  24.404  0.00  0.00    -0.133 F 
ATOM     34  C   UNL     1       8.981   0.121  23.434  0.00  0.00    +0.575 C 
ENDBRANCH   5  34
ENDBRANCH  33   5
ENDBRANCH  23  26
ENDBRANCH  12  18
BRANCH   6  17
ATOM     17  C   UNL     1      -0.971   0.009  25.815  0.00  0.00    +0.120 C 
BRANCH  17  19
ATOM     19  C   UNL     1      -2.295  -0.428  25.247  0.00  0.00    -0.032 A 
ATOM     21  C   UNL     1      -3.382   0.447  25.257  0.00  0.00    +0.023 A 
ATOM     22  C   UNL     1      -2.435  -1.707  24.708  0.00  0.00    +0.005 A 
ATOM     24  C   UNL     1      -4.607   0.043  24.728  0.00  0.00    +0.052 A 
ATOM     25  C   UNL     1      -3.661  -2.111  24.179  0.00  0.00    +0.002 A 
ATOM     27  C   UNL     1      -4.747  -1.236  24.189  0.00  0.00    +0.019 A 
BRANCH  24  32
ATOM     11  N   UNL     1      -6.627   1.663  24.750  0.00  0.00    -0.191 NA
ATOM     32  C   UNL     1      -5.722   0.937  24.740  0.00  0.00    +0.099 C 
ENDBRANCH  24  32
ENDBRANCH  17  19
ENDBRANCH   6  17
TORSDOF 7
ENDMDL
