MODEL 1
REMARK VINA RESULT:       0.9      0.000      0.000
REMARK  Name = 44716327
REMARK  9 active torsions:
REMARK  status: ('A' for Active; 'I' for Inactive)
REMARK    1  A    between atoms: O_1  and  C_27
REMARK    2  A    between atoms: O_1  and  C_31
REMARK    3  A    between atoms: N_3  and  C_19
REMARK    4  A    between atoms: N_4  and  C_14
REMARK    5  A    between atoms: N_4  and  C_18
REMARK    6  A    between atoms: C_8  and  C_15
REMARK    7  A    between atoms: C_9  and  C_14
REMARK    8  A    between atoms: C_17  and  C_20
REMARK    9  A    between atoms: C_18  and  C_21
REMARK                            x       y       z     vdW  Elec       q    Type
REMARK                         _______ _______ _______ _____ _____    ______ ____
ROOT
ATOM      2  N   UNL     1      -4.687   3.878  24.558  0.00  0.00    -0.298 NA
ATOM      7  C   UNL     1      -2.545   3.575  26.009  0.00  0.00    +0.002 C 
ATOM      8  C   UNL     1      -2.178   3.617  24.500  0.00  0.00    +0.055 C 
ATOM      9  C   UNL     1      -4.884   2.771  25.531  0.00  0.00    +0.071 C 
ATOM     10  C   UNL     1      -3.562   2.441  26.255  0.00  0.00    +0.024 C 
ATOM     11  C   UNL     1      -3.262   4.905  26.329  0.00  0.00    +0.019 C 
ATOM     12  C   UNL     1      -3.510   3.595  23.698  0.00  0.00    +0.094 C 
ATOM     13  C   UNL     1      -4.411   5.116  25.327  0.00  0.00    +0.085 C 
ENDROOT
BRANCH   8  15
ATOM      3  N   UNL     1      -1.501   1.623  23.084  0.00  0.00    -0.270 N 
ATOM      5  N   UNL     1      -0.472   0.826  22.749  0.00  0.00    -0.171 NA
ATOM     15  C   UNL     1      -1.172   2.601  23.976  0.00  0.00    +0.044 A 
ATOM     16  C   UNL     1       0.164   2.433  24.243  0.00  0.00    +0.053 A 
ATOM     17  C   UNL     1       0.543   1.326  23.460  0.00  0.00    +0.093 A 
ATOM     19  C   UNL     1      -2.800   1.380  22.500  0.00  0.00    +0.172 C 
BRANCH  17  20
ATOM     20  C   UNL     1       1.854   0.737  23.379  0.00  0.00    +0.002 A 
ATOM     22  C   UNL     1       2.958   1.532  23.072  0.00  0.00    +0.013 A 
ATOM     23  C   UNL     1       2.019  -0.630  23.606  0.00  0.00    +0.013 A 
ATOM     25  C   UNL     1       4.229   0.961  22.992  0.00  0.00    +0.046 A 
ATOM     26  C   UNL     1       3.290  -1.201  23.526  0.00  0.00    +0.046 A 
ATOM     27  C   UNL     1       4.394  -0.405  23.218  0.00  0.00    +0.120 A 
BRANCH  27   1
ATOM      1  O   UNL     1       5.634  -0.963  23.141  0.00  0.00    -0.495 OA
ATOM     31  C   UNL     1       6.747  -0.109  23.397  0.00  0.00    +0.277 C 
ENDBRANCH  27   1
ENDBRANCH  17  20
ENDBRANCH   8  15
BRANCH   9  14
ATOM     14  C   UNL     1      -5.507   1.532  24.885  0.00  0.00    +0.100 C 
BRANCH  14   4
ATOM      4  N   UNL     1      -5.047   0.321  25.544  0.00  0.00    -0.309 NA
ATOM     32  H   UNL     1      -5.816  -0.070  26.089  0.00  0.00    +0.122 HD
BRANCH   4  18
ATOM     18  C   UNL     1      -4.602  -0.669  24.571  0.00  0.00    +0.136 C 
BRANCH  18  21
ATOM      6  N   UNL     1      -2.456  -0.348  25.669  0.00  0.00    -0.259 NA
ATOM     21  C   UNL     1      -3.188  -1.116  24.832  0.00  0.00    +0.055 A 
ATOM     24  C   UNL     1      -2.716  -2.265  24.219  0.00  0.00    +0.024 A 
ATOM     28  C   UNL     1      -1.406  -2.651  24.483  0.00  0.00    +0.003 A 
ATOM     29  C   UNL     1      -1.187  -0.754  25.901  0.00  0.00    +0.111 A 
ATOM     30  C   UNL     1      -0.620  -1.886  25.338  0.00  0.00    +0.020 A 
ENDBRANCH  18  21
ENDBRANCH   4  18
ENDBRANCH  14   4
ENDBRANCH   9  14
TORSDOF 7
ENDMDL
MODEL 2
REMARK VINA RESULT:       2.2      1.335      1.820
REMARK  Name = 44716327
REMARK  9 active torsions:
REMARK  status: ('A' for Active; 'I' for Inactive)
REMARK    1  A    between atoms: O_1  and  C_27
REMARK    2  A    between atoms: O_1  and  C_31
REMARK    3  A    between atoms: N_3  and  C_19
REMARK    4  A    between atoms: N_4  and  C_14
REMARK    5  A    between atoms: N_4  and  C_18
REMARK    6  A    between atoms: C_8  and  C_15
REMARK    7  A    between atoms: C_9  and  C_14
REMARK    8  A    between atoms: C_17  and  C_20
REMARK    9  A    between atoms: C_18  and  C_21
REMARK                            x       y       z     vdW  Elec       q    Type
REMARK                         _______ _______ _______ _____ _____    ______ ____
ROOT
ATOM      2  N   UNL     1      -5.840   2.426  24.454  0.00  0.00    -0.298 NA
ATOM      7  C   UNL     1      -4.199   3.854  25.887  0.00  0.00    +0.002 C 
ATOM      8  C   UNL     1      -3.644   3.667  24.448  0.00  0.00    +0.055 C 
ATOM      9  C   UNL     1      -5.573   1.746  25.748  0.00  0.00    +0.071 C 
ATOM     10  C   UNL     1      -4.449   2.469  26.521  0.00  0.00    +0.024 C 
ATOM     11  C   UNL     1      -5.573   4.543  25.747  0.00  0.00    +0.019 C 
ATOM     12  C   UNL     1      -4.567   2.647  23.723  0.00  0.00    +0.094 C 
ATOM     13  C   UNL     1      -6.439   3.750  24.750  0.00  0.00    +0.085 C 
ENDROOT
BRANCH   8  15
ATOM      3  N   UNL     1      -1.167   4.210  24.561  0.00  0.00    -0.270 N 
ATOM      5  N   UNL     1       0.065   3.716  24.352  0.00  0.00    -0.171 NA
ATOM     15  C   UNL     1      -2.168   3.326  24.286  0.00  0.00    +0.044 A 
ATOM     16  C   UNL     1      -1.549   2.174  23.868  0.00  0.00    +0.053 A 
ATOM     17  C   UNL     1      -0.174   2.472  23.929  0.00  0.00    +0.093 A 
ATOM     19  C   UNL     1      -1.313   5.568  25.033  0.00  0.00    +0.172 C 
BRANCH  17  20
ATOM     20  C   UNL     1       0.914   1.592  23.590  0.00  0.00    +0.002 A 
ATOM     22  C   UNL     1       2.219   2.082  23.543  0.00  0.00    +0.013 A 
ATOM     23  C   UNL     1       0.662   0.249  23.308  0.00  0.00    +0.013 A 
ATOM     25  C   UNL     1       3.273   1.230  23.214  0.00  0.00    +0.046 A 
ATOM     26  C   UNL     1       1.716  -0.603  22.979  0.00  0.00    +0.046 A 
ATOM     27  C   UNL     1       3.022  -0.112  22.932  0.00  0.00    +0.120 A 
BRANCH  27   1
ATOM      1  O   UNL     1       4.050  -0.945  22.611  0.00  0.00    -0.495 OA
ATOM     31  C   UNL     1       5.097  -1.083  23.571  0.00  0.00    +0.277 C 
ENDBRANCH  27   1
ENDBRANCH  17  20
ENDBRANCH   8  15
BRANCH   9  14
ATOM     14  C   UNL     1      -5.278   0.255  25.574  0.00  0.00    +0.100 C 
BRANCH  14   4
ATOM      4  N   UNL     1      -4.774  -0.018  24.238  0.00  0.00    -0.309 NA
ATOM     32  H   UNL     1      -4.006   0.624  24.038  0.00  0.00    +0.122 HD
BRANCH   4  18
ATOM     18  C   UNL     1      -4.288  -1.389  24.131  0.00  0.00    +0.136 C 
BRANCH  18  21
ATOM      6  N   UNL     1      -2.502  -0.600  25.582  0.00  0.00    -0.259 NA
ATOM     21  C   UNL     1      -2.897  -1.535  24.690  0.00  0.00    +0.055 A 
ATOM     24  C   UNL     1      -2.107  -2.594  24.274  0.00  0.00    +0.024 A 
ATOM     28  C   UNL     1      -0.828  -2.701  24.809  0.00  0.00    +0.003 A 
ATOM     29  C   UNL     1      -1.252  -0.737  26.081  0.00  0.00    +0.111 A 
ATOM     30  C   UNL     1      -0.385  -1.759  25.730  0.00  0.00    +0.020 A 
ENDBRANCH  18  21
ENDBRANCH   4  18
ENDBRANCH  14   4
ENDBRANCH   9  14
TORSDOF 7
ENDMDL
MODEL 3
REMARK VINA RESULT:       2.3      1.440      4.089
REMARK  Name = 44716327
REMARK  9 active torsions:
REMARK  status: ('A' for Active; 'I' for Inactive)
REMARK    1  A    between atoms: O_1  and  C_27
REMARK    2  A    between atoms: O_1  and  C_31
REMARK    3  A    between atoms: N_3  and  C_19
REMARK    4  A    between atoms: N_4  and  C_14
REMARK    5  A    between atoms: N_4  and  C_18
REMARK    6  A    between atoms: C_8  and  C_15
REMARK    7  A    between atoms: C_9  and  C_14
REMARK    8  A    between atoms: C_17  and  C_20
REMARK    9  A    between atoms: C_18  and  C_21
REMARK                            x       y       z     vdW  Elec       q    Type
REMARK                         _______ _______ _______ _____ _____    ______ ____
ROOT
ATOM      2  N   UNL     1      -3.971  -0.347  25.646  0.00  0.00    -0.298 NA
ATOM      7  C   UNL     1      -2.898  -1.633  23.650  0.00  0.00    +0.002 C 
ATOM      8  C   UNL     1      -1.811  -1.227  24.684  0.00  0.00    +0.055 C 
ATOM      9  C   UNL     1      -4.426   0.240  24.360  0.00  0.00    +0.071 C 
ATOM     10  C   UNL     1      -3.646  -0.369  23.176  0.00  0.00    +0.024 C 
ATOM     11  C   UNL     1      -3.921  -2.510  24.403  0.00  0.00    +0.019 C 
ATOM     12  C   UNL     1      -2.489  -0.299  25.731  0.00  0.00    +0.094 C 
ATOM     13  C   UNL     1      -4.389  -1.770  25.670  0.00  0.00    +0.085 C 
ENDROOT
BRANCH   8  15
ATOM      3  N   UNL     1      -0.442   0.491  23.412  0.00  0.00    -0.270 N 
ATOM      5  N   UNL     1       0.805   0.833  23.048  0.00  0.00    -0.171 NA
ATOM     15  C   UNL     1      -0.503  -0.648  24.161  0.00  0.00    +0.044 A 
ATOM     16  C   UNL     1       0.793  -1.079  24.296  0.00  0.00    +0.053 A 
ATOM     17  C   UNL     1       1.556  -0.129  23.591  0.00  0.00    +0.093 A 
ATOM     19  C   UNL     1      -1.552   1.317  22.996  0.00  0.00    +0.172 C 
BRANCH  17  20
ATOM     20  C   UNL     1       2.986  -0.123  23.424  0.00  0.00    +0.002 A 
ATOM     22  C   UNL     1       3.743  -1.213  23.856  0.00  0.00    +0.013 A 
ATOM     23  C   UNL     1       3.614   0.973  22.832  0.00  0.00    +0.013 A 
ATOM     25  C   UNL     1       5.129  -1.207  23.696  0.00  0.00    +0.046 A 
ATOM     26  C   UNL     1       5.000   0.979  22.672  0.00  0.00    +0.046 A 
ATOM     27  C   UNL     1       5.757  -0.111  23.105  0.00  0.00    +0.120 A 
BRANCH  27   1
ATOM      1  O   UNL     1       7.110  -0.104  22.948  0.00  0.00    -0.495 OA
ATOM     31  C   UNL     1       7.702  -1.269  22.374  0.00  0.00    +0.277 C 
ENDBRANCH  27   1
ENDBRANCH  17  20
ENDBRANCH   8  15
BRANCH   9  14
ATOM     14  C   UNL     1      -4.360   1.769  24.361  0.00  0.00    +0.100 C 
BRANCH  14   4
ATOM      4  N   UNL     1      -4.837   2.305  25.625  0.00  0.00    -0.309 NA
ATOM     32  H   UNL     1      -4.491   1.718  26.384  0.00  0.00    +0.122 HD
BRANCH   4  18
ATOM     18  C   UNL     1      -4.365   3.670  25.827  0.00  0.00    +0.136 C 
BRANCH  18  21
ATOM      6  N   UNL     1      -2.125   2.792  26.182  0.00  0.00    -0.259 NA
ATOM     21  C   UNL     1      -2.875   3.780  25.645  0.00  0.00    +0.055 A 
ATOM     24  C   UNL     1      -2.354   4.861  24.953  0.00  0.00    +0.024 A 
ATOM     28  C   UNL     1      -0.973   4.932  24.802  0.00  0.00    +0.003 A 
ATOM     29  C   UNL     1      -0.787   2.896  26.016  0.00  0.00    +0.111 A 
ATOM     30  C   UNL     1      -0.168   3.935  25.341  0.00  0.00    +0.020 A 
ENDBRANCH  18  21
ENDBRANCH   4  18
ENDBRANCH  14   4
ENDBRANCH   9  14
TORSDOF 7
ENDMDL
MODEL 4
REMARK VINA RESULT:       2.5      2.596      3.865
REMARK  Name = 44716327
REMARK  9 active torsions:
REMARK  status: ('A' for Active; 'I' for Inactive)
REMARK    1  A    between atoms: O_1  and  C_27
REMARK    2  A    between atoms: O_1  and  C_31
REMARK    3  A    between atoms: N_3  and  C_19
REMARK    4  A    between atoms: N_4  and  C_14
REMARK    5  A    between atoms: N_4  and  C_18
REMARK    6  A    between atoms: C_8  and  C_15
REMARK    7  A    between atoms: C_9  and  C_14
REMARK    8  A    between atoms: C_17  and  C_20
REMARK    9  A    between atoms: C_18  and  C_21
REMARK                            x       y       z     vdW  Elec       q    Type
REMARK                         _______ _______ _______ _____ _____    ______ ____
ROOT
ATOM      2  N   UNL     1      -4.042   2.431  25.550  0.00  0.00    -0.298 NA
ATOM      7  C   UNL     1      -3.003   2.323  23.163  0.00  0.00    +0.002 C 
ATOM      8  C   UNL     1      -2.782   0.981  23.915  0.00  0.00    +0.055 C 
ATOM      9  C   UNL     1      -3.185   3.623  25.314  0.00  0.00    +0.071 C 
ATOM     10  C   UNL     1      -2.400   3.476  23.993  0.00  0.00    +0.024 C 
ATOM     11  C   UNL     1      -4.528   2.553  23.106  0.00  0.00    +0.019 C 
ATOM     12  C   UNL     1      -3.243   1.190  25.385  0.00  0.00    +0.094 C 
ATOM     13  C   UNL     1      -5.113   2.431  24.525  0.00  0.00    +0.085 C 
ENDROOT
BRANCH   8  15
ATOM      3  N   UNL     1      -1.200  -0.998  24.075  0.00  0.00    -0.270 N 
ATOM      5  N   UNL     1       0.083  -1.378  23.948  0.00  0.00    -0.171 NA
ATOM     15  C   UNL     1      -1.409   0.327  23.829  0.00  0.00    +0.044 A 
ATOM     16  C   UNL     1      -0.178   0.850  23.519  0.00  0.00    +0.053 A 
ATOM     17  C   UNL     1       0.703  -0.244  23.608  0.00  0.00    +0.093 A 
ATOM     19  C   UNL     1      -2.194  -1.980  24.447  0.00  0.00    +0.172 C 
BRANCH  17  20
ATOM     20  C   UNL     1       2.124  -0.229  23.375  0.00  0.00    +0.002 A 
ATOM     22  C   UNL     1       2.716   0.869  22.751  0.00  0.00    +0.013 A 
ATOM     23  C   UNL     1       2.907  -1.313  23.773  0.00  0.00    +0.013 A 
ATOM     25  C   UNL     1       4.092   0.884  22.525  0.00  0.00    +0.046 A 
ATOM     26  C   UNL     1       4.283  -1.298  23.546  0.00  0.00    +0.046 A 
ATOM     27  C   UNL     1       4.875  -0.199  22.922  0.00  0.00    +0.120 A 
BRANCH  27   1
ATOM      1  O   UNL     1       6.219  -0.186  22.702  0.00  0.00    -0.495 OA
ATOM     31  C   UNL     1       7.064  -0.121  23.850  0.00  0.00    +0.277 C 
ENDBRANCH  27   1
ENDBRANCH  17  20
ENDBRANCH   8  15
BRANCH   9  14
ATOM     14  C   UNL     1      -2.261   3.920  26.497  0.00  0.00    +0.100 C 
BRANCH  14   4
ATOM      4  N   UNL     1      -0.868   3.756  26.117  0.00  0.00    -0.309 NA
ATOM     32  H   UNL     1      -0.316   4.489  26.565  0.00  0.00    +0.122 HD
BRANCH   4  18
ATOM     18  C   UNL     1      -0.360   2.455  26.536  0.00  0.00    +0.136 C 
BRANCH  18  21
ATOM      6  N   UNL     1       1.862   2.952  27.390  0.00  0.00    -0.259 NA
ATOM     21  C   UNL     1       0.600   2.574  27.690  0.00  0.00    +0.055 A 
ATOM     24  C   UNL     1       0.157   2.296  28.972  0.00  0.00    +0.024 A 
ATOM     28  C   UNL     1       1.068   2.417  30.016  0.00  0.00    +0.003 A 
ATOM     29  C   UNL     1       2.720   3.058  28.430  0.00  0.00    +0.111 A 
ATOM     30  C   UNL     1       2.377   2.804  29.748  0.00  0.00    +0.020 A 
ENDBRANCH  18  21
ENDBRANCH   4  18
ENDBRANCH  14   4
ENDBRANCH   9  14
TORSDOF 7
ENDMDL
MODEL 5
REMARK VINA RESULT:       2.7      1.682      3.800
REMARK  Name = 44716327
REMARK  9 active torsions:
REMARK  status: ('A' for Active; 'I' for Inactive)
REMARK    1  A    between atoms: O_1  and  C_27
REMARK    2  A    between atoms: O_1  and  C_31
REMARK    3  A    between atoms: N_3  and  C_19
REMARK    4  A    between atoms: N_4  and  C_14
REMARK    5  A    between atoms: N_4  and  C_18
REMARK    6  A    between atoms: C_8  and  C_15
REMARK    7  A    between atoms: C_9  and  C_14
REMARK    8  A    between atoms: C_17  and  C_20
REMARK    9  A    between atoms: C_18  and  C_21
REMARK                            x       y       z     vdW  Elec       q    Type
REMARK                         _______ _______ _______ _____ _____    ______ ____
ROOT
ATOM      2  N   UNL     1      -5.309   2.042  26.198  0.00  0.00    -0.298 NA
ATOM      7  C   UNL     1      -5.039   1.090  23.789  0.00  0.00    +0.002 C 
ATOM      8  C   UNL     1      -4.356   0.153  24.824  0.00  0.00    +0.055 C 
ATOM      9  C   UNL     1      -4.801   3.101  25.288  0.00  0.00    +0.071 C 
ATOM     10  C   UNL     1      -4.439   2.507  23.910  0.00  0.00    +0.024 C 
ATOM     11  C   UNL     1      -6.525   1.190  24.194  0.00  0.00    +0.019 C 
ATOM     12  C   UNL     1      -4.382   0.882  26.197  0.00  0.00    +0.094 C 
ATOM     13  C   UNL     1      -6.621   1.586  25.679  0.00  0.00    +0.085 C 
ENDROOT
BRANCH   8  15
ATOM      3  N   UNL     1      -2.694  -1.735  24.486  0.00  0.00    -0.270 N 
ATOM      5  N   UNL     1      -1.419  -2.017  24.168  0.00  0.00    -0.171 NA
ATOM     15  C   UNL     1      -2.977  -0.400  24.491  0.00  0.00    +0.044 A 
ATOM     16  C   UNL     1      -1.807   0.233  24.153  0.00  0.00    +0.053 A 
ATOM     17  C   UNL     1      -0.882  -0.811  23.966  0.00  0.00    +0.093 A 
ATOM     19  C   UNL     1      -3.604  -2.817  24.782  0.00  0.00    +0.172 C 
BRANCH  17  20
ATOM     20  C   UNL     1       0.504  -0.679  23.598  0.00  0.00    +0.002 A 
ATOM     22  C   UNL     1       0.864   0.118  22.511  0.00  0.00    +0.013 A 
ATOM     23  C   UNL     1       1.486  -1.349  24.328  0.00  0.00    +0.013 A 
ATOM     25  C   UNL     1       2.207   0.245  22.154  0.00  0.00    +0.046 A 
ATOM     26  C   UNL     1       2.828  -1.222  23.971  0.00  0.00    +0.046 A 
ATOM     27  C   UNL     1       3.188  -0.425  22.884  0.00  0.00    +0.120 A 
BRANCH  27   1
ATOM      1  O   UNL     1       4.499  -0.302  22.536  0.00  0.00    -0.495 OA
ATOM     31  C   UNL     1       5.418   0.023  23.579  0.00  0.00    +0.277 C 
ENDBRANCH  27   1
ENDBRANCH  17  20
ENDBRANCH   8  15
BRANCH   9  14
ATOM     14  C   UNL     1      -3.635   3.883  25.896  0.00  0.00    +0.100 C 
BRANCH  14   4
ATOM      4  N   UNL     1      -3.371   5.092  25.134  0.00  0.00    -0.309 NA
ATOM     32  H   UNL     1      -3.944   5.849  25.508  0.00  0.00    +0.122 HD
BRANCH   4  18
ATOM     18  C   UNL     1      -1.966   5.472  25.223  0.00  0.00    +0.136 C 
BRANCH  18  21
ATOM      6  N   UNL     1      -1.043   3.574  26.433  0.00  0.00    -0.259 NA
ATOM     21  C   UNL     1      -1.063   4.268  25.274  0.00  0.00    +0.055 A 
ATOM     24  C   UNL     1      -0.313   3.935  24.157  0.00  0.00    +0.024 A 
ATOM     28  C   UNL     1       0.510   2.817  24.236  0.00  0.00    +0.003 A 
ATOM     29  C   UNL     1      -0.231   2.494  26.473  0.00  0.00    +0.111 A 
ATOM     30  C   UNL     1       0.558   2.077  25.413  0.00  0.00    +0.020 A 
ENDBRANCH  18  21
ENDBRANCH   4  18
ENDBRANCH  14   4
ENDBRANCH   9  14
TORSDOF 7
ENDMDL
