MODEL 1
REMARK VINA RESULT:      -2.4      0.000      0.000
REMARK  Name = 51137536
REMARK  7 active torsions:
REMARK  status: ('A' for Active; 'I' for Inactive)
REMARK    1  A    between atoms: N_4  and  C_12
REMARK    2  A    between atoms: N_7  and  C_25
REMARK    3  A    between atoms: N_7  and  C_28
REMARK    4  A    between atoms: N_7  and  C_29
REMARK    5  A    between atoms: C_8  and  C_13
REMARK    6  A    between atoms: C_12  and  C_14
REMARK    7  A    between atoms: C_17  and  C_21
REMARK                            x       y       z     vdW  Elec       q    Type
REMARK                         _______ _______ _______ _____ _____    ______ ____
ROOT
ATOM      4  N   UNL     1      16.827  -8.619  25.924  0.00  0.00    -0.297 NA
ATOM      8  C   UNL     1      16.259  -9.085  28.150  0.00  0.00    +0.092 C 
ATOM      9  C   UNL     1      15.464 -10.009  27.212  0.00  0.00    +0.029 C 
ATOM     10  C   UNL     1      16.796  -7.973  27.238  0.00  0.00    +0.097 C 
ATOM     11  C   UNL     1      15.570  -9.362  25.838  0.00  0.00    +0.085 C 
ENDROOT
BRANCH   8  13
ATOM      1  O   UNL     1      14.212  -9.028  29.495  0.00  0.00    -0.420 OA
ATOM      5  N   UNL     1      15.833  -7.679  30.243  0.00  0.00    -0.112 NA
ATOM      6  N   UNL     1      14.745  -7.549  31.086  0.00  0.00    -0.107 NA
ATOM     13  C   UNL     1      15.476  -8.551  29.329  0.00  0.00    +0.222 A 
ATOM     17  C   UNL     1      13.824  -8.354  30.611  0.00  0.00    +0.248 A 
BRANCH  17  21
ATOM     21  C   UNL     1      12.496  -8.627  31.079  0.00  0.00    +0.039 A 
ATOM     23  C   UNL     1      11.863  -9.820  30.726  0.00  0.00    +0.015 A 
ATOM     24  C   UNL     1      11.836  -7.699  31.886  0.00  0.00    +0.015 A 
ATOM     25  C   UNL     1       9.912  -9.158  31.989  0.00  0.00    +0.029 A 
ATOM     26  C   UNL     1      10.572 -10.086  31.181  0.00  0.00    +0.024 A 
ATOM     27  C   UNL     1      10.545  -7.965  32.340  0.00  0.00    +0.024 A 
BRANCH  25   7
ATOM      7  N   UNL     1       8.607  -9.426  32.447  0.00  0.00    -0.336 N 
ATOM     28  C   UNL     1       7.647  -8.350  32.601  0.00  0.00    +0.129 C 
ATOM     29  C   UNL     1       8.208 -10.780  32.778  0.00  0.00    +0.129 C 
ENDBRANCH  25   7
ENDBRANCH  17  21
ENDBRANCH   8  13
BRANCH   4  12
ATOM     12  C   UNL     1      16.980  -7.662  24.838  0.00  0.00    +0.119 C 
BRANCH  12  14
ATOM      2  O   UNL     1      16.623  -2.759  24.260  0.00  0.00    -0.453 OA
ATOM      3  O   UNL     1      17.069  -2.333  26.589  0.00  0.00    -0.453 OA
ATOM     14  C   UNL     1      17.013  -6.242  25.343  0.00  0.00    -0.030 A 
ATOM     15  C   UNL     1      16.783  -5.187  24.458  0.00  0.00    +0.054 A 
ATOM     16  C   UNL     1      17.274  -5.994  26.702  0.00  0.00    +0.009 A 
ATOM     18  C   UNL     1      16.821  -3.905  24.967  0.00  0.00    +0.167 A 
ATOM     19  C   UNL     1      17.306  -4.686  27.192  0.00  0.00    +0.050 A 
ATOM     20  C   UNL     1      17.076  -3.661  26.298  0.00  0.00    +0.166 A 
ATOM     22  C   UNL     1      16.782  -1.767  25.295  0.00  0.00    +0.466 C 
ENDBRANCH  12  14
ENDBRANCH   4  12
TORSDOF 5
ENDMDL
MODEL 2
REMARK VINA RESULT:      -2.4      1.749      2.315
REMARK  Name = 51137536
REMARK  7 active torsions:
REMARK  status: ('A' for Active; 'I' for Inactive)
REMARK    1  A    between atoms: N_4  and  C_12
REMARK    2  A    between atoms: N_7  and  C_25
REMARK    3  A    between atoms: N_7  and  C_28
REMARK    4  A    between atoms: N_7  and  C_29
REMARK    5  A    between atoms: C_8  and  C_13
REMARK    6  A    between atoms: C_12  and  C_14
REMARK    7  A    between atoms: C_17  and  C_21
REMARK                            x       y       z     vdW  Elec       q    Type
REMARK                         _______ _______ _______ _____ _____    ______ ____
ROOT
ATOM      4  N   UNL     1      16.630  -9.072  27.424  0.00  0.00    -0.297 NA
ATOM      8  C   UNL     1      15.387 -10.016  29.174  0.00  0.00    +0.092 C 
ATOM      9  C   UNL     1      14.593 -10.124  27.862  0.00  0.00    +0.029 C 
ATOM     10  C   UNL     1      16.487  -8.986  28.880  0.00  0.00    +0.097 C 
ATOM     11  C   UNL     1      15.261  -9.137  26.913  0.00  0.00    +0.085 C 
ENDROOT
BRANCH   8  13
ATOM      1  O   UNL     1      13.211  -9.798  30.278  0.00  0.00    -0.420 OA
ATOM      5  N   UNL     1      14.949  -9.234  31.569  0.00  0.00    -0.112 NA
ATOM      6  N   UNL     1      13.794  -9.067  32.309  0.00  0.00    -0.107 NA
ATOM     13  C   UNL     1      14.561  -9.662  30.390  0.00  0.00    +0.222 A 
ATOM     17  C   UNL     1      12.806  -9.407  31.516  0.00  0.00    +0.248 A 
BRANCH  17  21
ATOM     21  C   UNL     1      11.391  -9.430  31.749  0.00  0.00    +0.039 A 
ATOM     23  C   UNL     1      10.692 -10.636  31.685  0.00  0.00    +0.015 A 
ATOM     24  C   UNL     1      10.713  -8.245  32.039  0.00  0.00    +0.015 A 
ATOM     25  C   UNL     1       8.638  -9.473  32.202  0.00  0.00    +0.029 A 
ATOM     26  C   UNL     1       9.316 -10.658  31.911  0.00  0.00    +0.024 A 
ATOM     27  C   UNL     1       9.337  -8.268  32.266  0.00  0.00    +0.024 A 
BRANCH  25   7
ATOM      7  N   UNL     1       7.247  -9.496  32.430  0.00  0.00    -0.336 N 
ATOM     28  C   UNL     1       6.541 -10.757  32.536  0.00  0.00    +0.129 C 
ATOM     29  C   UNL     1       6.504  -8.258  32.552  0.00  0.00    +0.129 C 
ENDBRANCH  25   7
ENDBRANCH  17  21
ENDBRANCH   8  13
BRANCH   4  12
ATOM     12  C   UNL     1      17.374  -7.949  26.873  0.00  0.00    +0.119 C 
BRANCH  12  14
ATOM      2  O   UNL     1      17.405  -3.069  27.701  0.00  0.00    -0.453 OA
ATOM      3  O   UNL     1      17.110  -3.351  30.076  0.00  0.00    -0.453 OA
ATOM     14  C   UNL     1      17.301  -6.736  27.763  0.00  0.00    -0.030 A 
ATOM     15  C   UNL     1      17.402  -5.460  27.206  0.00  0.00    +0.054 A 
ATOM     16  C   UNL     1      17.129  -6.901  29.149  0.00  0.00    +0.009 A 
ATOM     18  C   UNL     1      17.326  -4.379  28.061  0.00  0.00    +0.167 A 
ATOM     19  C   UNL     1      17.055  -5.790  29.993  0.00  0.00    +0.050 A 
ATOM     20  C   UNL     1      17.158  -4.540  29.418  0.00  0.00    +0.166 A 
ATOM     22  C   UNL     1      17.267  -2.423  28.983  0.00  0.00    +0.466 C 
ENDBRANCH  12  14
ENDBRANCH   4  12
TORSDOF 5
ENDMDL
MODEL 3
REMARK VINA RESULT:      -2.3      1.815      2.602
REMARK  Name = 51137536
REMARK  7 active torsions:
REMARK  status: ('A' for Active; 'I' for Inactive)
REMARK    1  A    between atoms: N_4  and  C_12
REMARK    2  A    between atoms: N_7  and  C_25
REMARK    3  A    between atoms: N_7  and  C_28
REMARK    4  A    between atoms: N_7  and  C_29
REMARK    5  A    between atoms: C_8  and  C_13
REMARK    6  A    between atoms: C_12  and  C_14
REMARK    7  A    between atoms: C_17  and  C_21
REMARK                            x       y       z     vdW  Elec       q    Type
REMARK                         _______ _______ _______ _____ _____    ______ ____
ROOT
ATOM      4  N   UNL     1      17.268  -7.894  25.118  0.00  0.00    -0.297 NA
ATOM      8  C   UNL     1      17.319  -9.300  26.993  0.00  0.00    +0.092 C 
ATOM      9  C   UNL     1      16.591 -10.008  25.838  0.00  0.00    +0.029 C 
ATOM     10  C   UNL     1      17.362  -7.823  26.578  0.00  0.00    +0.097 C 
ATOM     11  C   UNL     1      16.240  -8.900  24.854  0.00  0.00    +0.085 C 
ENDROOT
BRANCH   8  13
ATOM      1  O   UNL     1      15.612  -8.751  28.663  0.00  0.00    -0.420 OA
ATOM      5  N   UNL     1      17.056 -10.329  29.319  0.00  0.00    -0.112 NA
ATOM      6  N   UNL     1      16.156 -10.120  30.347  0.00  0.00    -0.107 NA
ATOM     13  C   UNL     1      16.701  -9.510  28.357  0.00  0.00    +0.222 A 
ATOM     17  C   UNL     1      15.333  -9.191  29.920  0.00  0.00    +0.248 A 
BRANCH  17  21
ATOM     21  C   UNL     1      14.206  -8.580  30.562  0.00  0.00    +0.039 A 
ATOM     23  C   UNL     1      13.323  -9.357  31.311  0.00  0.00    +0.015 A 
ATOM     24  C   UNL     1      13.992  -7.206  30.437  0.00  0.00    +0.015 A 
ATOM     25  C   UNL     1      12.013  -7.390  31.811  0.00  0.00    +0.029 A 
ATOM     26  C   UNL     1      12.226  -8.763  31.936  0.00  0.00    +0.024 A 
ATOM     27  C   UNL     1      12.896  -6.612  31.061  0.00  0.00    +0.024 A 
BRANCH  25   7
ATOM      7  N   UNL     1      10.904  -6.789  32.441  0.00  0.00    -0.336 N 
ATOM     28  C   UNL     1      10.959  -5.402  32.860  0.00  0.00    +0.129 C 
ATOM     29  C   UNL     1       9.697  -7.553  32.685  0.00  0.00    +0.129 C 
ENDBRANCH  25   7
ENDBRANCH  17  21
ENDBRANCH   8  13
BRANCH   4  12
ATOM     12  C   UNL     1      16.949  -6.605  24.520  0.00  0.00    +0.119 C 
BRANCH  12  14
ATOM      2  O   UNL     1      17.287  -4.787  29.111  0.00  0.00    -0.453 OA
ATOM      3  O   UNL     1      17.387  -2.510  28.329  0.00  0.00    -0.453 OA
ATOM     14  C   UNL     1      17.065  -5.480  25.515  0.00  0.00    -0.030 A 
ATOM     15  C   UNL     1      17.116  -5.766  26.881  0.00  0.00    +0.054 A 
ATOM     16  C   UNL     1      17.123  -4.152  25.058  0.00  0.00    +0.009 A 
ATOM     18  C   UNL     1      17.225  -4.703  27.754  0.00  0.00    +0.167 A 
ATOM     19  C   UNL     1      17.234  -3.093  25.963  0.00  0.00    +0.050 A 
ATOM     20  C   UNL     1      17.282  -3.402  27.307  0.00  0.00    +0.166 A 
ATOM     22  C   UNL     1      17.390  -3.394  29.468  0.00  0.00    +0.466 C 
ENDBRANCH  12  14
ENDBRANCH   4  12
TORSDOF 5
ENDMDL
MODEL 4
REMARK VINA RESULT:      -1.1      2.437      3.709
REMARK  Name = 51137536
REMARK  7 active torsions:
REMARK  status: ('A' for Active; 'I' for Inactive)
REMARK    1  A    between atoms: N_4  and  C_12
REMARK    2  A    between atoms: N_7  and  C_25
REMARK    3  A    between atoms: N_7  and  C_28
REMARK    4  A    between atoms: N_7  and  C_29
REMARK    5  A    between atoms: C_8  and  C_13
REMARK    6  A    between atoms: C_12  and  C_14
REMARK    7  A    between atoms: C_17  and  C_21
REMARK                            x       y       z     vdW  Elec       q    Type
REMARK                         _______ _______ _______ _____ _____    ______ ____
ROOT
ATOM      4  N   UNL     1      16.296  -9.859  29.297  0.00  0.00    -0.297 NA
ATOM      8  C   UNL     1      14.507 -10.134  30.787  0.00  0.00    +0.092 C 
ATOM      9  C   UNL     1      14.065 -10.540  29.371  0.00  0.00    +0.029 C 
ATOM     10  C   UNL     1      15.806  -9.343  30.578  0.00  0.00    +0.097 C 
ATOM     11  C   UNL     1      15.111  -9.938  28.443  0.00  0.00    +0.085 C 
ENDROOT
BRANCH   8  13
ATOM      1  O   UNL     1      12.178  -9.767  31.452  0.00  0.00    -0.420 OA
ATOM      5  N   UNL     1      13.631  -8.351  32.397  0.00  0.00    -0.112 NA
ATOM      6  N   UNL     1      12.366  -8.035  32.855  0.00  0.00    -0.107 NA
ATOM     13  C   UNL     1      13.474  -9.368  31.581  0.00  0.00    +0.222 A 
ATOM     17  C   UNL     1      11.551  -8.886  32.277  0.00  0.00    +0.248 A 
BRANCH  17  21
ATOM     21  C   UNL     1      10.128  -9.028  32.380  0.00  0.00    +0.039 A 
ATOM     23  C   UNL     1       9.302  -7.915  32.221  0.00  0.00    +0.015 A 
ATOM     24  C   UNL     1       9.568 -10.280  32.641  0.00  0.00    +0.015 A 
ATOM     25  C   UNL     1       7.358  -9.304  32.581  0.00  0.00    +0.029 A 
ATOM     26  C   UNL     1       7.917  -8.052  32.321  0.00  0.00    +0.024 A 
ATOM     27  C   UNL     1       8.184 -10.417  32.741  0.00  0.00    +0.024 A 
BRANCH  25   7
ATOM      7  N   UNL     1       5.960  -9.443  32.684  0.00  0.00    -0.336 N 
ATOM     28  C   UNL     1       5.098  -8.279  32.609  0.00  0.00    +0.129 C 
ATOM     29  C   UNL     1       5.364 -10.751  32.873  0.00  0.00    +0.129 C 
ENDBRANCH  25   7
ENDBRANCH  17  21
ENDBRANCH   8  13
BRANCH   4  12
ATOM     12  C   UNL     1      17.338  -9.019  28.723  0.00  0.00    +0.119 C 
BRANCH  12  14
ATOM      2  O   UNL     1      16.354  -5.004  31.446  0.00  0.00    -0.453 OA
ATOM      3  O   UNL     1      16.213  -3.579  29.507  0.00  0.00    -0.453 OA
ATOM     14  C   UNL     1      17.036  -7.553  28.897  0.00  0.00    -0.030 A 
ATOM     15  C   UNL     1      16.843  -7.033  30.178  0.00  0.00    +0.054 A 
ATOM     16  C   UNL     1      16.953  -6.722  27.765  0.00  0.00    +0.009 A 
ATOM     18  C   UNL     1      16.571  -5.684  30.286  0.00  0.00    +0.167 A 
ATOM     19  C   UNL     1      16.677  -5.360  27.903  0.00  0.00    +0.050 A 
ATOM     20  C   UNL     1      16.490  -4.870  29.179  0.00  0.00    +0.166 A 
ATOM     22  C   UNL     1      16.128  -3.671  30.944  0.00  0.00    +0.466 C 
ENDBRANCH  12  14
ENDBRANCH   4  12
TORSDOF 5
ENDMDL
MODEL 5
REMARK VINA RESULT:       0.9     16.503     19.908
REMARK  Name = 51137536
REMARK  7 active torsions:
REMARK  status: ('A' for Active; 'I' for Inactive)
REMARK    1  A    between atoms: N_4  and  C_12
REMARK    2  A    between atoms: N_7  and  C_25
REMARK    3  A    between atoms: N_7  and  C_28
REMARK    4  A    between atoms: N_7  and  C_29
REMARK    5  A    between atoms: C_8  and  C_13
REMARK    6  A    between atoms: C_12  and  C_14
REMARK    7  A    between atoms: C_17  and  C_21
REMARK                            x       y       z     vdW  Elec       q    Type
REMARK                         _______ _______ _______ _____ _____    ______ ____
ROOT
ATOM      4  N   UNL     1      -5.740   2.820  25.203  0.00  0.00    -0.297 NA
ATOM      8  C   UNL     1      -5.325   0.589  24.612  0.00  0.00    +0.092 C 
ATOM      9  C   UNL     1      -5.954   0.642  26.015  0.00  0.00    +0.029 C 
ATOM     10  C   UNL     1      -4.862   2.027  24.340  0.00  0.00    +0.097 C 
ATOM     11  C   UNL     1      -5.789   2.086  26.468  0.00  0.00    +0.085 C 
ENDROOT
BRANCH   8  13
ATOM      1  O   UNL     1      -2.959   0.059  24.260  0.00  0.00    -0.420 OA
ATOM      5  N   UNL     1      -4.276  -1.738  24.465  0.00  0.00    -0.112 NA
ATOM      6  N   UNL     1      -2.980  -2.178  24.274  0.00  0.00    -0.107 NA
ATOM     13  C   UNL     1      -4.217  -0.427  24.451  0.00  0.00    +0.222 A 
ATOM     17  C   UNL     1      -2.247  -1.095  24.158  0.00  0.00    +0.248 A 
BRANCH  17  21
ATOM     21  C   UNL     1      -0.837  -0.945  23.946  0.00  0.00    +0.039 A 
ATOM     23  C   UNL     1       0.064  -1.759  24.633  0.00  0.00    +0.015 A 
ATOM     24  C   UNL     1      -0.365   0.017  23.051  0.00  0.00    +0.015 A 
ATOM     25  C   UNL     1       1.907  -0.652  23.532  0.00  0.00    +0.029 A 
ATOM     26  C   UNL     1       1.435  -1.613  24.427  0.00  0.00    +0.024 A 
ATOM     27  C   UNL     1       1.007   0.163  22.845  0.00  0.00    +0.024 A 
BRANCH  25   7
ATOM      7  N   UNL     1       3.293  -0.503  23.324  0.00  0.00    -0.336 N 
ATOM     28  C   UNL     1       4.221  -1.503  23.816  0.00  0.00    +0.129 C 
ATOM     29  C   UNL     1       3.810   0.656  22.624  0.00  0.00    +0.129 C 
ENDBRANCH  25   7
ENDBRANCH  17  21
ENDBRANCH   8  13
BRANCH   4  12
ATOM     12  C   UNL     1      -5.265   4.186  25.373  0.00  0.00    +0.119 C 
BRANCH  12  14
ATOM      2  O   UNL     1      -0.741   2.292  26.040  0.00  0.00    -0.453 OA
ATOM      3  O   UNL     1       0.343   4.336  25.364  0.00  0.00    -0.453 OA
ATOM     14  C   UNL     1      -3.760   4.262  25.361  0.00  0.00    -0.030 A 
ATOM     15  C   UNL     1      -3.007   3.149  25.738  0.00  0.00    +0.054 A 
ATOM     16  C   UNL     1      -3.129   5.455  24.967  0.00  0.00    +0.009 A 
ATOM     18  C   UNL     1      -1.632   3.266  25.708  0.00  0.00    +0.167 A 
ATOM     19  C   UNL     1      -1.735   5.547  24.945  0.00  0.00    +0.050 A 
ATOM     20  C   UNL     1      -1.013   4.433  25.322  0.00  0.00    +0.166 A 
ATOM     22  C   UNL     1       0.509   2.978  25.820  0.00  0.00    +0.466 C 
ENDBRANCH  12  14
ENDBRANCH   4  12
TORSDOF 5
ENDMDL
