MODEL 1
REMARK VINA RESULT:       2.4      0.000      0.000
REMARK  Name = 51137142
REMARK  5 active torsions:
REMARK  status: ('A' for Active; 'I' for Inactive)
REMARK    1  A    between atoms: S_1  and  C_22
REMARK    2  A    between atoms: S_1  and  C_24
REMARK    3  A    between atoms: N_6  and  C_8
REMARK    4  A    between atoms: C_9  and  C_15
REMARK    5  A    between atoms: C_24  and  C_25
REMARK                            x       y       z     vdW  Elec       q    Type
REMARK                         _______ _______ _______ _____ _____    ______ ____
ROOT
ATOM      3  O   UNL     1      -1.561  -1.387  24.285  0.00  0.00    -0.439 OA
ATOM      7  N   UNL     1      -1.423   0.676  23.357  0.00  0.00    -0.213 NA
ATOM     15  C   UNL     1      -0.879  -0.513  23.492  0.00  0.00    +0.201 A 
ATOM     18  C   UNL     1      -2.562   0.593  24.121  0.00  0.00    +0.111 A 
ATOM     19  C   UNL     1      -2.649  -0.669  24.691  0.00  0.00    +0.155 A 
ATOM     20  C   UNL     1      -3.571   1.528  24.387  0.00  0.00    +0.058 A 
ATOM     21  C   UNL     1      -3.678  -1.092  25.523  0.00  0.00    +0.050 A 
ATOM     22  C   UNL     1      -4.628   1.138  25.223  0.00  0.00    +0.090 A 
ATOM     23  C   UNL     1      -4.678  -0.147  25.778  0.00  0.00    +0.030 A 
ENDROOT
BRANCH  15   9
ATOM      6  N   UNL     1       2.735  -0.823  22.976  0.00  0.00    -0.298 NA
ATOM      9  C   UNL     1       0.402  -1.035  22.884  0.00  0.00    +0.090 C 
ATOM     10  C   UNL     1       1.584  -1.009  23.862  0.00  0.00    +0.097 C 
ATOM     11  C   UNL     1       2.309   0.189  22.011  0.00  0.00    +0.085 C 
ATOM     12  C   UNL     1       0.897  -0.256  21.653  0.00  0.00    +0.029 C 
BRANCH   6   8
ATOM      2  O   UNL     1       6.796  -0.067  23.734  0.00  0.00    -0.380 OA
ATOM      8  C   UNL     1       3.940  -0.427  23.704  0.00  0.00    +0.061 C 
ATOM     13  C   UNL     1       4.914  -1.604  23.801  0.00  0.00    +0.047 C 
ATOM     14  C   UNL     1       4.624   0.766  23.029  0.00  0.00    +0.047 C 
ATOM     16  C   UNL     1       6.219  -1.159  24.451  0.00  0.00    +0.161 C 
ATOM     17  C   UNL     1       5.945   1.080  23.722  0.00  0.00    +0.161 C 
ENDBRANCH   6   8
ENDBRANCH  15   9
BRANCH  22   1
ATOM      1  S   UNL     1      -5.905   2.279  25.579  0.00  0.00    -0.003 S 
ATOM      4  O   UNL     1      -6.965   2.116  24.596  0.00  0.00    -0.169 OA
ATOM      5  O   UNL     1      -6.209   2.177  26.999  0.00  0.00    -0.169 OA
BRANCH   1  24
ATOM     24  C   UNL     1      -5.166   3.870  25.289  0.00  0.00    +0.168 C 
ATOM     25  C   UNL     1      -3.865   4.023  26.043  0.00  0.00    +0.028 C 
ENDBRANCH   1  24
ENDBRANCH  22   1
TORSDOF 4
ENDMDL
MODEL 2
REMARK VINA RESULT:       3.2      1.554      2.457
REMARK  Name = 51137142
REMARK  5 active torsions:
REMARK  status: ('A' for Active; 'I' for Inactive)
REMARK    1  A    between atoms: S_1  and  C_22
REMARK    2  A    between atoms: S_1  and  C_24
REMARK    3  A    between atoms: N_6  and  C_8
REMARK    4  A    between atoms: C_9  and  C_15
REMARK    5  A    between atoms: C_24  and  C_25
REMARK                            x       y       z     vdW  Elec       q    Type
REMARK                         _______ _______ _______ _____ _____    ______ ____
ROOT
ATOM      3  O   UNL     1      -0.078   1.550  23.889  0.00  0.00    -0.439 OA
ATOM      7  N   UNL     1      -1.855   0.151  23.735  0.00  0.00    -0.213 NA
ATOM     15  C   UNL     1      -0.569   0.331  23.529  0.00  0.00    +0.201 A 
ATOM     18  C   UNL     1      -2.259   1.347  24.279  0.00  0.00    +0.111 A 
ATOM     19  C   UNL     1      -1.173   2.205  24.374  0.00  0.00    +0.155 A 
ATOM     20  C   UNL     1      -3.514   1.790  24.717  0.00  0.00    +0.058 A 
ATOM     21  C   UNL     1      -1.229   3.498  24.880  0.00  0.00    +0.050 A 
ATOM     22  C   UNL     1      -3.610   3.090  25.234  0.00  0.00    +0.090 A 
ATOM     23  C   UNL     1      -2.489   3.925  25.314  0.00  0.00    +0.030 A 
ENDROOT
BRANCH  15   9
ATOM      6  N   UNL     1       2.722  -0.931  22.528  0.00  0.00    -0.298 NA
ATOM      9  C   UNL     1       0.433  -0.638  22.944  0.00  0.00    +0.090 C 
ATOM     10  C   UNL     1       1.813  -0.545  23.609  0.00  0.00    +0.097 C 
ATOM     11  C   UNL     1       2.216  -0.238  21.344  0.00  0.00    +0.085 C 
ATOM     12  C   UNL     1       0.712  -0.452  21.443  0.00  0.00    +0.029 C 
BRANCH   6   8
ATOM      2  O   UNL     1       6.064   0.432  24.675  0.00  0.00    -0.380 OA
ATOM      8  C   UNL     1       4.113  -0.591  22.821  0.00  0.00    +0.061 C 
ATOM     13  C   UNL     1       4.242   0.902  23.137  0.00  0.00    +0.047 C 
ATOM     14  C   UNL     1       4.649  -1.423  23.991  0.00  0.00    +0.047 C 
ATOM     16  C   UNL     1       5.668   1.233  23.562  0.00  0.00    +0.161 C 
ATOM     17  C   UNL     1       6.053  -0.963  24.368  0.00  0.00    +0.161 C 
ENDBRANCH   6   8
ENDBRANCH  15   9
BRANCH  22   1
ATOM      1  S   UNL     1      -5.161   3.678  25.790  0.00  0.00    -0.003 S 
ATOM      4  O   UNL     1      -5.129   3.787  27.240  0.00  0.00    -0.169 OA
ATOM      5  O   UNL     1      -5.512   4.837  24.982  0.00  0.00    -0.169 OA
BRANCH   1  24
ATOM     24  C   UNL     1      -6.296   2.369  25.392  0.00  0.00    +0.168 C 
ATOM     25  C   UNL     1      -6.589   1.504  26.598  0.00  0.00    +0.028 C 
ENDBRANCH   1  24
ENDBRANCH  22   1
TORSDOF 4
ENDMDL
MODEL 3
REMARK VINA RESULT:       5.0      2.850      8.927
REMARK  Name = 51137142
REMARK  5 active torsions:
REMARK  status: ('A' for Active; 'I' for Inactive)
REMARK    1  A    between atoms: S_1  and  C_22
REMARK    2  A    between atoms: S_1  and  C_24
REMARK    3  A    between atoms: N_6  and  C_8
REMARK    4  A    between atoms: C_9  and  C_15
REMARK    5  A    between atoms: C_24  and  C_25
REMARK                            x       y       z     vdW  Elec       q    Type
REMARK                         _______ _______ _______ _____ _____    ______ ____
ROOT
ATOM      3  O   UNL     1      -0.459   0.183  23.023  0.00  0.00    -0.439 OA
ATOM      7  N   UNL     1      -0.043  -1.584  24.380  0.00  0.00    -0.213 NA
ATOM     15  C   UNL     1      -0.946  -0.822  23.803  0.00  0.00    +0.201 A 
ATOM     18  C   UNL     1       1.147  -1.044  23.953  0.00  0.00    +0.111 A 
ATOM     19  C   UNL     1       0.895   0.038  23.122  0.00  0.00    +0.155 A 
ATOM     20  C   UNL     1       2.476  -1.402  24.216  0.00  0.00    +0.058 A 
ATOM     21  C   UNL     1       1.875   0.814  22.515  0.00  0.00    +0.050 A 
ATOM     22  C   UNL     1       3.493  -0.642  23.621  0.00  0.00    +0.090 A 
ATOM     23  C   UNL     1       3.196   0.443  22.787  0.00  0.00    +0.030 A 
ENDROOT
BRANCH  15   9
ATOM      6  N   UNL     1      -4.376   0.324  24.392  0.00  0.00    -0.298 NA
ATOM      9  C   UNL     1      -2.451  -0.919  23.891  0.00  0.00    +0.090 C 
ATOM     10  C   UNL     1      -3.155   0.411  23.587  0.00  0.00    +0.097 C 
ATOM     11  C   UNL     1      -3.942  -0.222  25.677  0.00  0.00    +0.085 C 
ATOM     12  C   UNL     1      -2.992  -1.340  25.268  0.00  0.00    +0.029 C 
BRANCH   6   8
ATOM      2  O   UNL     1      -5.379   4.074  25.994  0.00  0.00    -0.380 OA
ATOM      8  C   UNL     1      -5.043   1.617  24.532  0.00  0.00    +0.061 C 
ATOM     13  C   UNL     1      -5.801   1.684  25.860  0.00  0.00    +0.047 C 
ATOM     14  C   UNL     1      -4.038   2.769  24.442  0.00  0.00    +0.047 C 
ATOM     16  C   UNL     1      -6.395   3.073  26.062  0.00  0.00    +0.161 C 
ATOM     17  C   UNL     1      -4.730   4.098  24.722  0.00  0.00    +0.161 C 
ENDBRANCH   6   8
ENDBRANCH  15   9
BRANCH  22   1
ATOM      1  S   UNL     1       5.165  -1.058  23.928  0.00  0.00    -0.003 S 
ATOM      4  O   UNL     1       5.581  -0.435  25.175  0.00  0.00    -0.169 OA
ATOM      5  O   UNL     1       5.303  -2.496  23.753  0.00  0.00    -0.169 OA
BRANCH   1  24
ATOM     24  C   UNL     1       6.064  -0.257  22.621  0.00  0.00    +0.168 C 
ATOM     25  C   UNL     1       7.555  -0.292  22.871  0.00  0.00    +0.028 C 
ENDBRANCH   1  24
ENDBRANCH  22   1
TORSDOF 4
ENDMDL
MODEL 4
REMARK VINA RESULT:       5.3      3.188      9.011
REMARK  Name = 51137142
REMARK  5 active torsions:
REMARK  status: ('A' for Active; 'I' for Inactive)
REMARK    1  A    between atoms: S_1  and  C_22
REMARK    2  A    between atoms: S_1  and  C_24
REMARK    3  A    between atoms: N_6  and  C_8
REMARK    4  A    between atoms: C_9  and  C_15
REMARK    5  A    between atoms: C_24  and  C_25
REMARK                            x       y       z     vdW  Elec       q    Type
REMARK                         _______ _______ _______ _____ _____    ______ ____
ROOT
ATOM      3  O   UNL     1      -1.149   1.624  24.384  0.00  0.00    -0.439 OA
ATOM      7  N   UNL     1       0.583   3.041  24.745  0.00  0.00    -0.213 NA
ATOM     15  C   UNL     1      -0.706   2.816  24.873  0.00  0.00    +0.201 A 
ATOM     18  C   UNL     1       1.041   1.907  24.118  0.00  0.00    +0.111 A 
ATOM     19  C   UNL     1      -0.016   1.038  23.896  0.00  0.00    +0.155 A 
ATOM     20  C   UNL     1       2.326   1.531  23.704  0.00  0.00    +0.058 A 
ATOM     21  C   UNL     1       0.095  -0.203  23.282  0.00  0.00    +0.050 A 
ATOM     22  C   UNL     1       2.479   0.285  23.079  0.00  0.00    +0.090 A 
ATOM     23  C   UNL     1       1.384  -0.564  22.874  0.00  0.00    +0.030 A 
ENDROOT
BRANCH  15   9
ATOM      6  N   UNL     1      -4.075   3.951  25.760  0.00  0.00    -0.298 NA
ATOM      9  C   UNL     1      -1.759   3.707  25.492  0.00  0.00    +0.090 C 
ATOM     10  C   UNL     1      -3.024   2.942  25.903  0.00  0.00    +0.097 C 
ATOM     11  C   UNL     1      -3.774   4.635  24.503  0.00  0.00    +0.085 C 
ATOM     12  C   UNL     1      -2.266   4.837  24.580  0.00  0.00    +0.029 C 
BRANCH   6   8
ATOM      2  O   UNL     1      -7.080   1.018  25.778  0.00  0.00    -0.380 OA
ATOM      8  C   UNL     1      -5.414   3.366  25.769  0.00  0.00    +0.061 C 
ATOM     13  C   UNL     1      -5.629   2.507  24.520  0.00  0.00    +0.047 C 
ATOM     14  C   UNL     1      -5.641   2.525  27.029  0.00  0.00    +0.047 C 
ATOM     16  C   UNL     1      -6.977   1.800  24.588  0.00  0.00    +0.161 C 
ATOM     17  C   UNL     1      -6.988   1.817  26.958  0.00  0.00    +0.161 C 
ENDBRANCH   6   8
ENDBRANCH  15   9
BRANCH  22   1
ATOM      1  S   UNL     1       4.068  -0.217  22.546  0.00  0.00    -0.003 S 
ATOM      4  O   UNL     1       4.250  -1.622  22.877  0.00  0.00    -0.169 OA
ATOM      5  O   UNL     1       4.239   0.234  21.174  0.00  0.00    -0.169 OA
BRANCH   1  24
ATOM     24  C   UNL     1       5.188   0.707  23.572  0.00  0.00    +0.168 C 
ATOM     25  C   UNL     1       5.769  -0.151  24.672  0.00  0.00    +0.028 C 
ENDBRANCH   1  24
ENDBRANCH  22   1
TORSDOF 4
ENDMDL
