MODEL 1
REMARK VINA RESULT:      -3.8      0.000      0.000
REMARK  Name = 38029432
REMARK  15 active torsions:
REMARK  status: ('A' for Active; 'I' for Inactive)
REMARK    1  A    between atoms: O_3  and  C_26
REMARK    2  A    between atoms: N_5  and  C_15
REMARK    3  A    between atoms: N_6  and  C_23
REMARK    4  A    between atoms: C_8  and  C_12
REMARK    5  A    between atoms: C_9  and  C_15
REMARK    6  A    between atoms: C_11  and  C_16
REMARK    7  A    between atoms: C_12  and  C_17
REMARK    8  A    between atoms: C_12  and  C_18
REMARK    9  A    between atoms: C_13  and  C_19
REMARK   10  A    between atoms: C_16  and  C_20
REMARK   11  A    between atoms: C_21  and  C_22
REMARK   12  A    between atoms: C_22  and  C_24
REMARK   13  A    between atoms: C_23  and  C_25
REMARK   14  A    between atoms: C_24  and  C_26
REMARK   15  A    between atoms: C_31  and  C_32
REMARK                            x       y       z     vdW  Elec       q    Type
REMARK                         _______ _______ _______ _____ _____    ______ ____
ROOT
ATOM      8  C   UNL     1      -1.363   0.055  24.711  0.00  0.00    +0.000 C 
ATOM      9  C   UNL     1      -0.508  -1.214  24.467  0.00  0.00    +0.032 C 
ATOM     10  C   UNL     1      -2.453  -0.226  25.756  0.00  0.00    +0.012 C 
ATOM     11  C   UNL     1      -3.390  -1.371  25.327  0.00  0.00    +0.023 C 
ATOM     13  C   UNL     1      -2.617  -2.571  24.817  0.00  0.00    -0.073 C 
ATOM     14  C   UNL     1      -1.326  -2.483  24.450  0.00  0.00    -0.022 C 
ATOM     19  C   UNL     1      -3.349  -3.883  24.782  0.00  0.00    +0.039 C 
ENDROOT
BRANCH   8  12
ATOM     12  C   UNL     1      -0.506   1.242  25.162  0.00  0.00    -0.013 C 
ATOM     17  C   UNL     1      -0.563   2.363  24.129  0.00  0.00    +0.007 C 
ATOM     18  C   UNL     1      -0.964   1.740  26.529  0.00  0.00    +0.007 C 
ENDBRANCH   8  12
BRANCH   9  15
ATOM     15  C   UNL     1       0.289  -1.101  23.162  0.00  0.00    +0.112 C 
BRANCH  15   5
ATOM      2  O   UNL     1       2.151  -0.225  21.128  0.00  0.00    -0.276 OA
ATOM      5  N   UNL     1       1.447  -0.283  23.345  0.00  0.00    -0.315 N 
ATOM     21  C   UNL     1       2.297   0.096  22.305  0.00  0.00    +0.214 C 
ATOM     33  H   UNL     1       1.629   0.086  24.273  0.00  0.00    +0.149 HD
BRANCH  21  22
ATOM     22  C   UNL     1       3.445   0.962  22.793  0.00  0.00    +0.107 C 
BRANCH  22  24
ATOM     24  C   UNL     1       4.784   0.232  22.752  0.00  0.00    +0.129 C 
BRANCH  24  26
ATOM      4  O   UNL     1       5.773  -0.355  24.897  0.00  0.00    -0.251 OA
ATOM     26  C   UNL     1       5.003  -0.616  23.982  0.00  0.00    +0.305 C 
BRANCH  26   3
ATOM      3  O   UNL     1       4.226  -1.732  23.961  0.00  0.00    -0.481 OA
ATOM     35  H   UNL     1       3.649  -1.760  23.168  0.00  0.00    +0.295 HD
ENDBRANCH  26   3
ENDBRANCH  24  26
ENDBRANCH  22  24
ENDBRANCH  21  22
ENDBRANCH  15   5
ENDBRANCH   9  15
BRANCH  11  16
ATOM     16  C   UNL     1      -4.409  -0.892  24.287  0.00  0.00    +0.103 C 
BRANCH  16  20
ATOM      1  O   UNL     1      -3.857   1.338  23.528  0.00  0.00    -0.276 OA
ATOM      6  N   UNL     1      -5.485   1.055  25.162  0.00  0.00    -0.311 N 
ATOM     20  C   UNL     1      -4.528   0.615  24.260  0.00  0.00    +0.214 C 
ATOM     34  H   UNL     1      -5.992   0.378  25.724  0.00  0.00    +0.149 HD
BRANCH   6  23
ATOM     23  C   UNL     1      -5.809   2.450  25.351  0.00  0.00    +0.139 C 
BRANCH  23  25
ATOM     25  C   UNL     1      -4.595   3.328  25.243  0.00  0.00    -0.030 A 
ATOM     27  C   UNL     1      -3.800   3.560  26.366  0.00  0.00    +0.006 A 
ATOM     28  C   UNL     1      -4.262   3.910  24.020  0.00  0.00    +0.006 A 
ATOM     29  C   UNL     1      -2.673   4.376  26.265  0.00  0.00    +0.019 A 
ATOM     30  C   UNL     1      -3.134   4.725  23.920  0.00  0.00    +0.019 A 
ATOM     31  C   UNL     1      -2.339   4.958  25.042  0.00  0.00    +0.052 A 
BRANCH  31  32
ATOM      7  N   UNL     1      -0.247   6.470  24.856  0.00  0.00    -0.191 NA
ATOM     32  C   UNL     1      -1.185   5.793  24.940  0.00  0.00    +0.099 C 
ENDBRANCH  31  32
ENDBRANCH  23  25
ENDBRANCH   6  23
ENDBRANCH  16  20
ENDBRANCH  11  16
TORSDOF 12
ENDMDL
MODEL 2
REMARK VINA RESULT:      -2.3      1.698      3.359
REMARK  Name = 38029432
REMARK  15 active torsions:
REMARK  status: ('A' for Active; 'I' for Inactive)
REMARK    1  A    between atoms: O_3  and  C_26
REMARK    2  A    between atoms: N_5  and  C_15
REMARK    3  A    between atoms: N_6  and  C_23
REMARK    4  A    between atoms: C_8  and  C_12
REMARK    5  A    between atoms: C_9  and  C_15
REMARK    6  A    between atoms: C_11  and  C_16
REMARK    7  A    between atoms: C_12  and  C_17
REMARK    8  A    between atoms: C_12  and  C_18
REMARK    9  A    between atoms: C_13  and  C_19
REMARK   10  A    between atoms: C_16  and  C_20
REMARK   11  A    between atoms: C_21  and  C_22
REMARK   12  A    between atoms: C_22  and  C_24
REMARK   13  A    between atoms: C_23  and  C_25
REMARK   14  A    between atoms: C_24  and  C_26
REMARK   15  A    between atoms: C_31  and  C_32
REMARK                            x       y       z     vdW  Elec       q    Type
REMARK                         _______ _______ _______ _____ _____    ______ ____
ROOT
ATOM      8  C   UNL     1      -3.296  -0.773  24.897  0.00  0.00    +0.000 C 
ATOM      9  C   UNL     1      -2.233  -0.086  24.002  0.00  0.00    +0.032 C 
ATOM     10  C   UNL     1      -4.708  -0.504  24.354  0.00  0.00    +0.012 C 
ATOM     11  C   UNL     1      -5.028   1.001  24.283  0.00  0.00    +0.023 C 
ATOM     13  C   UNL     1      -3.899   1.788  23.649  0.00  0.00    -0.073 C 
ATOM     14  C   UNL     1      -2.660   1.280  23.520  0.00  0.00    -0.022 C 
ATOM     19  C   UNL     1      -4.238   3.156  23.125  0.00  0.00    +0.039 C 
ENDROOT
BRANCH   8  12
ATOM     12  C   UNL     1      -3.060  -2.282  25.004  0.00  0.00    -0.013 C 
ATOM     17  C   UNL     1      -4.062  -3.041  24.140  0.00  0.00    +0.007 C 
ATOM     18  C   UNL     1      -1.629  -2.627  24.602  0.00  0.00    +0.007 C 
ENDBRANCH   8  12
BRANCH   9  15
ATOM     15  C   UNL     1      -0.887   0.025  24.728  0.00  0.00    +0.112 C 
BRANCH  15   5
ATOM      2  O   UNL     1       1.404   1.625  23.978  0.00  0.00    -0.276 OA
ATOM      5  N   UNL     1       0.187  -0.354  23.864  0.00  0.00    -0.315 N 
ATOM     21  C   UNL     1       1.260   0.482  23.552  0.00  0.00    +0.214 C 
ATOM     33  H   UNL     1       0.195  -1.303  23.501  0.00  0.00    +0.149 HD
BRANCH  21  22
ATOM     22  C   UNL     1       2.247  -0.183  22.610  0.00  0.00    +0.107 C 
BRANCH  22  24
ATOM     24  C   UNL     1       3.563   0.582  22.509  0.00  0.00    +0.129 C 
BRANCH  24  26
ATOM      4  O   UNL     1       5.442   0.795  24.042  0.00  0.00    -0.251 OA
ATOM     26  C   UNL     1       4.573   0.105  23.526  0.00  0.00    +0.305 C 
BRANCH  26   3
ATOM      3  O   UNL     1       4.405  -1.213  23.813  0.00  0.00    -0.481 OA
ATOM     35  H   UNL     1       5.113  -1.766  23.417  0.00  0.00    +0.295 HD
ENDBRANCH  26   3
ENDBRANCH  24  26
ENDBRANCH  22  24
ENDBRANCH  21  22
ENDBRANCH  15   5
ENDBRANCH   9  15
BRANCH  11  16
ATOM     16  C   UNL     1      -5.375   1.558  25.668  0.00  0.00    +0.103 C 
BRANCH  16  20
ATOM      1  O   UNL     1      -5.440   3.975  25.582  0.00  0.00    -0.276 OA
ATOM      6  N   UNL     1      -3.558   2.909  26.432  0.00  0.00    -0.311 N 
ATOM     20  C   UNL     1      -4.827   2.952  25.875  0.00  0.00    +0.214 C 
ATOM     34  H   UNL     1      -3.133   2.012  26.642  0.00  0.00    +0.149 HD
BRANCH   6  23
ATOM     23  C   UNL     1      -2.790   4.096  26.737  0.00  0.00    +0.139 C 
BRANCH  23  25
ATOM     25  C   UNL     1      -1.869   4.473  25.613  0.00  0.00    -0.030 A 
ATOM     27  C   UNL     1      -0.946   3.547  25.126  0.00  0.00    +0.006 A 
ATOM     28  C   UNL     1      -1.937   5.749  25.053  0.00  0.00    +0.006 A 
ATOM     29  C   UNL     1      -0.090   3.897  24.082  0.00  0.00    +0.019 A 
ATOM     30  C   UNL     1      -1.082   6.099  24.008  0.00  0.00    +0.019 A 
ATOM     31  C   UNL     1      -0.159   5.174  23.522  0.00  0.00    +0.052 A 
BRANCH  31  32
ATOM      7  N   UNL     1       1.432   5.823  21.586  0.00  0.00    -0.191 NA
ATOM     32  C   UNL     1       0.718   5.532  22.453  0.00  0.00    +0.099 C 
ENDBRANCH  31  32
ENDBRANCH  23  25
ENDBRANCH   6  23
ENDBRANCH  16  20
ENDBRANCH  11  16
TORSDOF 12
ENDMDL
MODEL 3
REMARK VINA RESULT:      -2.1      2.455      5.844
REMARK  Name = 38029432
REMARK  15 active torsions:
REMARK  status: ('A' for Active; 'I' for Inactive)
REMARK    1  A    between atoms: O_3  and  C_26
REMARK    2  A    between atoms: N_5  and  C_15
REMARK    3  A    between atoms: N_6  and  C_23
REMARK    4  A    between atoms: C_8  and  C_12
REMARK    5  A    between atoms: C_9  and  C_15
REMARK    6  A    between atoms: C_11  and  C_16
REMARK    7  A    between atoms: C_12  and  C_17
REMARK    8  A    between atoms: C_12  and  C_18
REMARK    9  A    between atoms: C_13  and  C_19
REMARK   10  A    between atoms: C_16  and  C_20
REMARK   11  A    between atoms: C_21  and  C_22
REMARK   12  A    between atoms: C_22  and  C_24
REMARK   13  A    between atoms: C_23  and  C_25
REMARK   14  A    between atoms: C_24  and  C_26
REMARK   15  A    between atoms: C_31  and  C_32
REMARK                            x       y       z     vdW  Elec       q    Type
REMARK                         _______ _______ _______ _____ _____    ______ ____
ROOT
ATOM      8  C   UNL     1      -3.773   2.482  24.354  0.00  0.00    +0.000 C 
ATOM      9  C   UNL     1      -4.503   3.602  25.138  0.00  0.00    +0.032 C 
ATOM     10  C   UNL     1      -4.749   1.348  24.007  0.00  0.00    +0.012 C 
ATOM     11  C   UNL     1      -5.391   0.727  25.263  0.00  0.00    +0.023 C 
ATOM     13  C   UNL     1      -5.900   1.788  26.219  0.00  0.00    -0.073 C 
ATOM     14  C   UNL     1      -5.501   3.070  26.138  0.00  0.00    -0.022 C 
ATOM     19  C   UNL     1      -6.911   1.350  27.240  0.00  0.00    +0.039 C 
ENDROOT
BRANCH   8  12
ATOM     12  C   UNL     1      -3.121   3.014  23.075  0.00  0.00    -0.013 C 
ATOM     17  C   UNL     1      -2.594   1.861  22.227  0.00  0.00    +0.007 C 
ATOM     18  C   UNL     1      -4.114   3.859  22.283  0.00  0.00    +0.007 C 
ENDBRANCH   8  12
BRANCH   9  15
ATOM     15  C   UNL     1      -3.503   4.520  25.851  0.00  0.00    +0.112 C 
BRANCH  15   5
ATOM      2  O   UNL     1      -1.375   6.160  24.779  0.00  0.00    -0.276 OA
ATOM      5  N   UNL     1      -2.160   4.119  25.572  0.00  0.00    -0.315 N 
ATOM     21  C   UNL     1      -1.190   4.977  25.052  0.00  0.00    +0.214 C 
ATOM     33  H   UNL     1      -1.883   3.172  25.816  0.00  0.00    +0.149 HD
BRANCH  21  22
ATOM     22  C   UNL     1       0.144   4.279  24.856  0.00  0.00    +0.107 C 
BRANCH  22  24
ATOM     24  C   UNL     1      -0.015   2.794  24.547  0.00  0.00    +0.129 C 
BRANCH  24  26
ATOM      4  O   UNL     1      -0.958   1.087  26.003  0.00  0.00    -0.251 OA
ATOM     26  C   UNL     1      -0.130   1.965  25.804  0.00  0.00    +0.305 C 
BRANCH  26   3
ATOM      3  O   UNL     1       0.817   2.311  26.716  0.00  0.00    -0.481 OA
ATOM     35  H   UNL     1       1.081   1.549  27.276  0.00  0.00    +0.295 HD
ENDBRANCH  26   3
ENDBRANCH  24  26
ENDBRANCH  22  24
ENDBRANCH  21  22
ENDBRANCH  15   5
ENDBRANCH   9  15
BRANCH  11  16
ATOM     16  C   UNL     1      -4.420  -0.226  25.967  0.00  0.00    +0.103 C 
BRANCH  16  20
ATOM      1  O   UNL     1      -4.441  -1.855  24.178  0.00  0.00    -0.276 OA
ATOM      6  N   UNL     1      -2.427  -1.299  25.197  0.00  0.00    -0.311 N 
ATOM     20  C   UNL     1      -3.799  -1.217  25.008  0.00  0.00    +0.214 C 
ATOM     34  H   UNL     1      -1.984  -0.727  25.910  0.00  0.00    +0.149 HD
BRANCH   6  23
ATOM     23  C   UNL     1      -1.575  -2.170  24.420  0.00  0.00    +0.139 C 
BRANCH  23  25
ATOM     25  C   UNL     1      -0.326  -1.473  23.964  0.00  0.00    -0.030 A 
ATOM     27  C   UNL     1       0.895  -1.756  24.577  0.00  0.00    +0.006 A 
ATOM     28  C   UNL     1      -0.386  -0.543  22.926  0.00  0.00    +0.006 A 
ATOM     29  C   UNL     1       2.055  -1.108  24.154  0.00  0.00    +0.019 A 
ATOM     30  C   UNL     1       0.776   0.104  22.501  0.00  0.00    +0.019 A 
ATOM     31  C   UNL     1       1.996  -0.179  23.115  0.00  0.00    +0.052 A 
BRANCH  31  32
ATOM      7  N   UNL     1       4.149   1.024  22.330  0.00  0.00    -0.191 NA
ATOM     32  C   UNL     1       3.185   0.484  22.682  0.00  0.00    +0.099 C 
ENDBRANCH  31  32
ENDBRANCH  23  25
ENDBRANCH   6  23
ENDBRANCH  16  20
ENDBRANCH  11  16
TORSDOF 12
ENDMDL
MODEL 4
REMARK VINA RESULT:      -1.9      2.650      5.741
REMARK  Name = 38029432
REMARK  15 active torsions:
REMARK  status: ('A' for Active; 'I' for Inactive)
REMARK    1  A    between atoms: O_3  and  C_26
REMARK    2  A    between atoms: N_5  and  C_15
REMARK    3  A    between atoms: N_6  and  C_23
REMARK    4  A    between atoms: C_8  and  C_12
REMARK    5  A    between atoms: C_9  and  C_15
REMARK    6  A    between atoms: C_11  and  C_16
REMARK    7  A    between atoms: C_12  and  C_17
REMARK    8  A    between atoms: C_12  and  C_18
REMARK    9  A    between atoms: C_13  and  C_19
REMARK   10  A    between atoms: C_16  and  C_20
REMARK   11  A    between atoms: C_21  and  C_22
REMARK   12  A    between atoms: C_22  and  C_24
REMARK   13  A    between atoms: C_23  and  C_25
REMARK   14  A    between atoms: C_24  and  C_26
REMARK   15  A    between atoms: C_31  and  C_32
REMARK                            x       y       z     vdW  Elec       q    Type
REMARK                         _______ _______ _______ _____ _____    ______ ____
ROOT
ATOM      8  C   UNL     1      -3.484   2.433  24.155  0.00  0.00    +0.000 C 
ATOM      9  C   UNL     1      -4.049   3.621  24.973  0.00  0.00    +0.032 C 
ATOM     10  C   UNL     1      -4.602   1.438  23.811  0.00  0.00    +0.012 C 
ATOM     11  C   UNL     1      -5.293   0.880  25.071  0.00  0.00    +0.023 C 
ATOM     13  C   UNL     1      -5.643   1.978  26.055  0.00  0.00    -0.073 C 
ATOM     14  C   UNL     1      -5.087   3.201  25.986  0.00  0.00    -0.022 C 
ATOM     19  C   UNL     1      -6.681   1.652  27.092  0.00  0.00    +0.039 C 
ENDROOT
BRANCH   8  12
ATOM     12  C   UNL     1      -2.795   2.902  22.870  0.00  0.00    -0.013 C 
ATOM     17  C   UNL     1      -2.255   1.709  22.088  0.00  0.00    +0.007 C 
ATOM     18  C   UNL     1      -3.761   3.717  22.016  0.00  0.00    +0.007 C 
ENDBRANCH   8  12
BRANCH   9  15
ATOM     15  C   UNL     1      -2.927   4.391  25.678  0.00  0.00    +0.112 C 
BRANCH  15   5
ATOM      2  O   UNL     1      -0.129   4.080  25.009  0.00  0.00    -0.276 OA
ATOM      5  N   UNL     1      -1.990   3.490  26.273  0.00  0.00    -0.315 N 
ATOM     21  C   UNL     1      -0.651   3.402  25.890  0.00  0.00    +0.214 C 
ATOM     33  H   UNL     1      -2.305   2.921  27.054  0.00  0.00    +0.149 HD
BRANCH  21  22
ATOM     22  C   UNL     1       0.105   2.358  26.692  0.00  0.00    +0.107 C 
BRANCH  22  24
ATOM     24  C   UNL     1       0.161   2.692  28.179  0.00  0.00    +0.129 C 
BRANCH  24  26
ATOM      4  O   UNL     1       2.556   3.097  28.315  0.00  0.00    -0.251 OA
ATOM     26  C   UNL     1       1.554   2.539  28.741  0.00  0.00    +0.305 C 
BRANCH  26   3
ATOM      3  O   UNL     1       1.572   1.690  29.802  0.00  0.00    -0.481 OA
ATOM     35  H   UNL     1       1.704   0.759  29.523  0.00  0.00    +0.295 HD
ENDBRANCH  26   3
ENDBRANCH  24  26
ENDBRANCH  22  24
ENDBRANCH  21  22
ENDBRANCH  15   5
ENDBRANCH   9  15
BRANCH  11  16
ATOM     16  C   UNL     1      -4.436  -0.201  25.738  0.00  0.00    +0.103 C 
BRANCH  16  20
ATOM      1  O   UNL     1      -4.435  -1.948  24.062  0.00  0.00    -0.276 OA
ATOM      6  N   UNL     1      -2.432  -0.928  24.655  0.00  0.00    -0.311 N 
ATOM     20  C   UNL     1      -3.803  -1.130  24.726  0.00  0.00    +0.214 C 
ATOM     34  H   UNL     1      -1.999  -0.223  25.243  0.00  0.00    +0.149 HD
BRANCH   6  23
ATOM     23  C   UNL     1      -1.569  -1.679  23.772  0.00  0.00    +0.139 C 
BRANCH  23  25
ATOM     25  C   UNL     1      -0.290  -0.949  23.482  0.00  0.00    -0.030 A 
ATOM     27  C   UNL     1       0.489  -1.316  22.384  0.00  0.00    +0.006 A 
ATOM     28  C   UNL     1       0.119   0.097  24.309  0.00  0.00    +0.006 A 
ATOM     29  C   UNL     1       1.678  -0.637  22.115  0.00  0.00    +0.019 A 
ATOM     30  C   UNL     1       1.307   0.776  24.039  0.00  0.00    +0.019 A 
ATOM     31  C   UNL     1       2.087   0.410  22.942  0.00  0.00    +0.052 A 
BRANCH  31  32
ATOM      7  N   UNL     1       4.292   1.668  22.439  0.00  0.00    -0.191 NA
ATOM     32  C   UNL     1       3.304   1.104  22.665  0.00  0.00    +0.099 C 
ENDBRANCH  31  32
ENDBRANCH  23  25
ENDBRANCH   6  23
ENDBRANCH  16  20
ENDBRANCH  11  16
TORSDOF 12
ENDMDL
MODEL 5
REMARK VINA RESULT:      -1.8      2.348      7.031
REMARK  Name = 38029432
REMARK  15 active torsions:
REMARK  status: ('A' for Active; 'I' for Inactive)
REMARK    1  A    between atoms: O_3  and  C_26
REMARK    2  A    between atoms: N_5  and  C_15
REMARK    3  A    between atoms: N_6  and  C_23
REMARK    4  A    between atoms: C_8  and  C_12
REMARK    5  A    between atoms: C_9  and  C_15
REMARK    6  A    between atoms: C_11  and  C_16
REMARK    7  A    between atoms: C_12  and  C_17
REMARK    8  A    between atoms: C_12  and  C_18
REMARK    9  A    between atoms: C_13  and  C_19
REMARK   10  A    between atoms: C_16  and  C_20
REMARK   11  A    between atoms: C_21  and  C_22
REMARK   12  A    between atoms: C_22  and  C_24
REMARK   13  A    between atoms: C_23  and  C_25
REMARK   14  A    between atoms: C_24  and  C_26
REMARK   15  A    between atoms: C_31  and  C_32
REMARK                            x       y       z     vdW  Elec       q    Type
REMARK                         _______ _______ _______ _____ _____    ______ ____
ROOT
ATOM      8  C   UNL     1      -3.306   0.920  23.783  0.00  0.00    +0.000 C 
ATOM      9  C   UNL     1      -4.623   0.423  24.431  0.00  0.00    +0.032 C 
ATOM     10  C   UNL     1      -2.438  -0.271  23.351  0.00  0.00    +0.012 C 
ATOM     11  C   UNL     1      -2.084  -1.194  24.533  0.00  0.00    +0.023 C 
ATOM     13  C   UNL     1      -3.299  -1.514  25.381  0.00  0.00    -0.073 C 
ATOM     14  C   UNL     1      -4.429  -0.788  25.311  0.00  0.00    -0.022 C 
ATOM     19  C   UNL     1      -3.200  -2.716  26.278  0.00  0.00    +0.039 C 
ENDROOT
BRANCH   8  12
ATOM     12  C   UNL     1      -3.570   1.832  22.582  0.00  0.00    -0.013 C 
ATOM     17  C   UNL     1      -3.807   3.267  23.044  0.00  0.00    +0.007 C 
ATOM     18  C   UNL     1      -2.408   1.766  21.597  0.00  0.00    +0.007 C 
ENDBRANCH   8  12
BRANCH   9  15
ATOM     15  C   UNL     1      -5.299   1.539  25.236  0.00  0.00    +0.112 C 
BRANCH  15   5
ATOM      2  O   UNL     1      -5.632   4.357  25.797  0.00  0.00    -0.276 OA
ATOM      5  N   UNL     1      -4.324   2.434  25.778  0.00  0.00    -0.315 N 
ATOM     21  C   UNL     1      -4.567   3.787  26.019  0.00  0.00    +0.214 C 
ATOM     33  H   UNL     1      -3.424   2.051  26.052  0.00  0.00    +0.149 HD
BRANCH  21  22
ATOM     22  C   UNL     1      -3.352   4.492  26.594  0.00  0.00    +0.107 C 
BRANCH  22  24
ATOM     24  C   UNL     1      -2.042   3.834  26.172  0.00  0.00    +0.129 C 
BRANCH  24  26
ATOM      4  O   UNL     1      -1.348   5.866  25.028  0.00  0.00    -0.251 OA
ATOM     26  C   UNL     1      -1.310   4.648  25.132  0.00  0.00    +0.305 C 
BRANCH  26   3
ATOM      3  O   UNL     1      -0.582   3.855  24.302  0.00  0.00    -0.481 OA
ATOM     35  H   UNL     1      -0.167   3.107  24.782  0.00  0.00    +0.295 HD
ENDBRANCH  26   3
ENDBRANCH  24  26
ENDBRANCH  22  24
ENDBRANCH  21  22
ENDBRANCH  15   5
ENDBRANCH   9  15
BRANCH  11  16
ATOM     16  C   UNL     1      -0.962  -0.593  25.386  0.00  0.00    +0.103 C 
BRANCH  16  20
ATOM      1  O   UNL     1       0.338   1.397  24.930  0.00  0.00    -0.276 OA
ATOM      6  N   UNL     1       0.325  -0.341  23.387  0.00  0.00    -0.311 N 
ATOM     20  C   UNL     1      -0.036   0.283  24.572  0.00  0.00    +0.214 C 
ATOM     34  H   UNL     1      -0.034  -1.268  23.180  0.00  0.00    +0.149 HD
BRANCH   6  23
ATOM     23  C   UNL     1       1.202   0.266  22.412  0.00  0.00    +0.139 C 
BRANCH  23  25
ATOM     25  C   UNL     1       2.648   0.114  22.785  0.00  0.00    -0.030 A 
ATOM     27  C   UNL     1       3.528   1.183  22.616  0.00  0.00    +0.006 A 
ATOM     28  C   UNL     1       3.111  -1.096  23.303  0.00  0.00    +0.006 A 
ATOM     29  C   UNL     1       4.872   1.042  22.963  0.00  0.00    +0.019 A 
ATOM     30  C   UNL     1       4.455  -1.236  23.651  0.00  0.00    +0.019 A 
ATOM     31  C   UNL     1       5.335  -0.168  23.481  0.00  0.00    +0.052 A 
BRANCH  31  32
ATOM      7  N   UNL     1       7.830  -0.428  24.123  0.00  0.00    -0.191 NA
ATOM     32  C   UNL     1       6.711  -0.311  23.836  0.00  0.00    +0.099 C 
ENDBRANCH  31  32
ENDBRANCH  23  25
ENDBRANCH   6  23
ENDBRANCH  16  20
ENDBRANCH  11  16
TORSDOF 12
ENDMDL
MODEL 6
REMARK VINA RESULT:      -1.7      2.307      6.960
REMARK  Name = 38029432
REMARK  15 active torsions:
REMARK  status: ('A' for Active; 'I' for Inactive)
REMARK    1  A    between atoms: O_3  and  C_26
REMARK    2  A    between atoms: N_5  and  C_15
REMARK    3  A    between atoms: N_6  and  C_23
REMARK    4  A    between atoms: C_8  and  C_12
REMARK    5  A    between atoms: C_9  and  C_15
REMARK    6  A    between atoms: C_11  and  C_16
REMARK    7  A    between atoms: C_12  and  C_17
REMARK    8  A    between atoms: C_12  and  C_18
REMARK    9  A    between atoms: C_13  and  C_19
REMARK   10  A    between atoms: C_16  and  C_20
REMARK   11  A    between atoms: C_21  and  C_22
REMARK   12  A    between atoms: C_22  and  C_24
REMARK   13  A    between atoms: C_23  and  C_25
REMARK   14  A    between atoms: C_24  and  C_26
REMARK   15  A    between atoms: C_31  and  C_32
REMARK                            x       y       z     vdW  Elec       q    Type
REMARK                         _______ _______ _______ _____ _____    ______ ____
ROOT
ATOM      8  C   UNL     1      -3.663   2.997  25.564  0.00  0.00    +0.000 C 
ATOM      9  C   UNL     1      -3.739   2.962  24.016  0.00  0.00    +0.032 C 
ATOM     10  C   UNL     1      -2.752   4.143  26.029  0.00  0.00    +0.012 C 
ATOM     11  C   UNL     1      -1.322   4.013  25.472  0.00  0.00    +0.023 C 
ATOM     13  C   UNL     1      -1.321   3.710  23.987  0.00  0.00    -0.073 C 
ATOM     14  C   UNL     1      -2.415   3.254  23.352  0.00  0.00    -0.022 C 
ATOM     19  C   UNL     1      -0.045   3.986  23.241  0.00  0.00    +0.039 C 
ENDROOT
BRANCH   8  12
ATOM     12  C   UNL     1      -5.049   3.145  26.199  0.00  0.00    -0.013 C 
ATOM     17  C   UNL     1      -5.814   4.291  25.547  0.00  0.00    +0.007 C 
ATOM     18  C   UNL     1      -5.828   1.839  26.084  0.00  0.00    +0.007 C 
ENDBRANCH   8  12
BRANCH   9  15
ATOM     15  C   UNL     1      -4.276   1.615  23.519  0.00  0.00    +0.112 C 
BRANCH  15   5
ATOM      2  O   UNL     1      -4.326  -1.241  23.057  0.00  0.00    -0.276 OA
ATOM      5  N   UNL     1      -4.003   0.580  24.467  0.00  0.00    -0.315 N 
ATOM     21  C   UNL     1      -4.050  -0.781  24.161  0.00  0.00    +0.214 C 
ATOM     33  H   UNL     1      -3.707   0.853  25.400  0.00  0.00    +0.149 HD
BRANCH  21  22
ATOM     22  C   UNL     1      -3.718  -1.648  25.362  0.00  0.00    +0.107 C 
BRANCH  22  24
ATOM     24  C   UNL     1      -2.862  -2.855  24.992  0.00  0.00    +0.129 C 
BRANCH  24  26
ATOM      4  O   UNL     1      -1.028  -2.538  23.423  0.00  0.00    -0.251 OA
ATOM     26  C   UNL     1      -1.472  -2.451  24.560  0.00  0.00    +0.305 C 
BRANCH  26   3
ATOM      3  O   UNL     1      -0.749  -1.966  25.604  0.00  0.00    -0.481 OA
ATOM     35  H   UNL     1       0.111  -2.429  25.699  0.00  0.00    +0.295 HD
ENDBRANCH  26   3
ENDBRANCH  24  26
ENDBRANCH  22  24
ENDBRANCH  21  22
ENDBRANCH  15   5
ENDBRANCH   9  15
BRANCH  11  16
ATOM     16  C   UNL     1      -0.519   2.963  26.248  0.00  0.00    +0.103 C 
BRANCH  16  20
ATOM      1  O   UNL     1      -1.230   0.696  25.789  0.00  0.00    -0.276 OA
ATOM      6  N   UNL     1       0.507   1.624  24.555  0.00  0.00    -0.311 N 
ATOM     20  C   UNL     1      -0.479   1.633  25.530  0.00  0.00    +0.214 C 
ATOM     34  H   UNL     1       1.078   2.452  24.411  0.00  0.00    +0.149 HD
BRANCH   6  23
ATOM     23  C   UNL     1       0.773   0.480  23.713  0.00  0.00    +0.139 C 
BRANCH  23  25
ATOM     25  C   UNL     1       2.245   0.263  23.508  0.00  0.00    -0.030 A 
ATOM     27  C   UNL     1       3.040   1.297  23.013  0.00  0.00    +0.006 A 
ATOM     28  C   UNL     1       2.817  -0.971  23.815  0.00  0.00    +0.006 A 
ATOM     29  C   UNL     1       4.407   1.096  22.823  0.00  0.00    +0.019 A 
ATOM     30  C   UNL     1       4.185  -1.172  23.625  0.00  0.00    +0.019 A 
ATOM     31  C   UNL     1       4.980  -0.139  23.130  0.00  0.00    +0.052 A 
BRANCH  31  32
ATOM      7  N   UNL     1       7.517  -0.512  22.778  0.00  0.00    -0.191 NA
ATOM     32  C   UNL     1       6.380  -0.344  22.935  0.00  0.00    +0.099 C 
ENDBRANCH  31  32
ENDBRANCH  23  25
ENDBRANCH   6  23
ENDBRANCH  16  20
ENDBRANCH  11  16
TORSDOF 12
ENDMDL
MODEL 7
REMARK VINA RESULT:      -1.6      1.690      5.055
REMARK  Name = 38029432
REMARK  15 active torsions:
REMARK  status: ('A' for Active; 'I' for Inactive)
REMARK    1  A    between atoms: O_3  and  C_26
REMARK    2  A    between atoms: N_5  and  C_15
REMARK    3  A    between atoms: N_6  and  C_23
REMARK    4  A    between atoms: C_8  and  C_12
REMARK    5  A    between atoms: C_9  and  C_15
REMARK    6  A    between atoms: C_11  and  C_16
REMARK    7  A    between atoms: C_12  and  C_17
REMARK    8  A    between atoms: C_12  and  C_18
REMARK    9  A    between atoms: C_13  and  C_19
REMARK   10  A    between atoms: C_16  and  C_20
REMARK   11  A    between atoms: C_21  and  C_22
REMARK   12  A    between atoms: C_22  and  C_24
REMARK   13  A    between atoms: C_23  and  C_25
REMARK   14  A    between atoms: C_24  and  C_26
REMARK   15  A    between atoms: C_31  and  C_32
REMARK                            x       y       z     vdW  Elec       q    Type
REMARK                         _______ _______ _______ _____ _____    ______ ____
ROOT
ATOM      8  C   UNL     1      -2.813   2.395  23.906  0.00  0.00    +0.000 C 
ATOM      9  C   UNL     1      -1.570   3.044  24.566  0.00  0.00    +0.032 C 
ATOM     10  C   UNL     1      -3.891   3.454  23.635  0.00  0.00    +0.012 C 
ATOM     11  C   UNL     1      -4.340   4.170  24.924  0.00  0.00    +0.023 C 
ATOM     13  C   UNL     1      -3.159   4.607  25.766  0.00  0.00    -0.073 C 
ATOM     14  C   UNL     1      -1.926   4.102  25.582  0.00  0.00    -0.022 C 
ATOM     19  C   UNL     1      -3.419   5.671  26.796  0.00  0.00    +0.039 C 
ENDROOT
BRANCH   8  12
ATOM     12  C   UNL     1      -2.454   1.675  22.602  0.00  0.00    -0.013 C 
ATOM     17  C   UNL     1      -3.168   0.330  22.522  0.00  0.00    +0.007 C 
ATOM     18  C   UNL     1      -2.805   2.546  21.400  0.00  0.00    +0.007 C 
ENDBRANCH   8  12
BRANCH   9  15
ATOM     15  C   UNL     1      -0.676   1.985  25.221  0.00  0.00    +0.112 C 
BRANCH  15   5
ATOM      2  O   UNL     1       0.331   0.091  23.279  0.00  0.00    -0.276 OA
ATOM      5  N   UNL     1       0.620   1.972  24.616  0.00  0.00    -0.315 N 
ATOM     21  C   UNL     1       1.028   1.018  23.684  0.00  0.00    +0.214 C 
ATOM     33  H   UNL     1       1.258   2.731  24.839  0.00  0.00    +0.149 HD
BRANCH  21  22
ATOM     22  C   UNL     1       2.453   1.251  23.215  0.00  0.00    +0.107 C 
BRANCH  22  24
ATOM     24  C   UNL     1       3.143  -0.039  22.782  0.00  0.00    +0.129 C 
BRANCH  24  26
ATOM      4  O   UNL     1       5.353   0.586  23.588  0.00  0.00    -0.251 OA
ATOM     26  C   UNL     1       4.458  -0.243  23.496  0.00  0.00    +0.305 C 
BRANCH  26   3
ATOM      3  O   UNL     1       4.539  -1.486  24.043  0.00  0.00    -0.481 OA
ATOM     35  H   UNL     1       4.629  -2.181  23.357  0.00  0.00    +0.295 HD
ENDBRANCH  26   3
ENDBRANCH  24  26
ENDBRANCH  22  24
ENDBRANCH  21  22
ENDBRANCH  15   5
ENDBRANCH   9  15
BRANCH  11  16
ATOM     16  C   UNL     1      -5.301   3.295  25.736  0.00  0.00    +0.103 C 
BRANCH  16  20
ATOM      1  O   UNL     1      -6.280   1.782  24.121  0.00  0.00    -0.276 OA
ATOM      6  N   UNL     1      -4.804   0.957  25.716  0.00  0.00    -0.311 N 
ATOM     20  C   UNL     1      -5.536   1.951  25.084  0.00  0.00    +0.214 C 
ATOM     34  H   UNL     1      -4.211   1.196  26.505  0.00  0.00    +0.149 HD
BRANCH   6  23
ATOM     23  C   UNL     1      -4.836  -0.428  25.305  0.00  0.00    +0.139 C 
BRANCH  23  25
ATOM     25  C   UNL     1      -3.470  -1.051  25.319  0.00  0.00    -0.030 A 
ATOM     27  C   UNL     1      -3.214  -2.188  24.553  0.00  0.00    +0.006 A 
ATOM     28  C   UNL     1      -2.456  -0.490  26.096  0.00  0.00    +0.006 A 
ATOM     29  C   UNL     1      -1.945  -2.766  24.566  0.00  0.00    +0.019 A 
ATOM     30  C   UNL     1      -1.186  -1.068  26.108  0.00  0.00    +0.019 A 
ATOM     31  C   UNL     1      -0.930  -2.206  25.343  0.00  0.00    +0.052 A 
BRANCH  31  32
ATOM      7  N   UNL     1       1.425  -3.280  25.368  0.00  0.00    -0.191 NA
ATOM     32  C   UNL     1       0.369  -2.799  25.356  0.00  0.00    +0.099 C 
ENDBRANCH  31  32
ENDBRANCH  23  25
ENDBRANCH   6  23
ENDBRANCH  16  20
ENDBRANCH  11  16
TORSDOF 12
ENDMDL
MODEL 8
REMARK VINA RESULT:      -1.6      1.777      5.153
REMARK  Name = 38029432
REMARK  15 active torsions:
REMARK  status: ('A' for Active; 'I' for Inactive)
REMARK    1  A    between atoms: O_3  and  C_26
REMARK    2  A    between atoms: N_5  and  C_15
REMARK    3  A    between atoms: N_6  and  C_23
REMARK    4  A    between atoms: C_8  and  C_12
REMARK    5  A    between atoms: C_9  and  C_15
REMARK    6  A    between atoms: C_11  and  C_16
REMARK    7  A    between atoms: C_12  and  C_17
REMARK    8  A    between atoms: C_12  and  C_18
REMARK    9  A    between atoms: C_13  and  C_19
REMARK   10  A    between atoms: C_16  and  C_20
REMARK   11  A    between atoms: C_21  and  C_22
REMARK   12  A    between atoms: C_22  and  C_24
REMARK   13  A    between atoms: C_23  and  C_25
REMARK   14  A    between atoms: C_24  and  C_26
REMARK   15  A    between atoms: C_31  and  C_32
REMARK                            x       y       z     vdW  Elec       q    Type
REMARK                         _______ _______ _______ _____ _____    ______ ____
ROOT
ATOM      8  C   UNL     1      -2.230   2.347  23.908  0.00  0.00    +0.000 C 
ATOM      9  C   UNL     1      -0.766   2.850  23.837  0.00  0.00    +0.032 C 
ATOM     10  C   UNL     1      -3.206   3.489  23.583  0.00  0.00    +0.012 C 
ATOM     11  C   UNL     1      -3.050   4.680  24.548  0.00  0.00    +0.023 C 
ATOM     13  C   UNL     1      -1.597   5.065  24.738  0.00  0.00    -0.073 C 
ATOM     14  C   UNL     1      -0.590   4.240  24.401  0.00  0.00    -0.022 C 
ATOM     19  C   UNL     1      -1.327   6.441  25.281  0.00  0.00    +0.039 C 
ENDROOT
BRANCH   8  12
ATOM     12  C   UNL     1      -2.475   1.170  22.960  0.00  0.00    -0.013 C 
ATOM     17  C   UNL     1      -2.495   1.648  21.511  0.00  0.00    +0.007 C 
ATOM     18  C   UNL     1      -1.411   0.095  23.160  0.00  0.00    +0.007 C 
ENDBRANCH   8  12
BRANCH   9  15
ATOM     15  C   UNL     1       0.186   1.884  24.549  0.00  0.00    +0.112 C 
BRANCH  15   5
ATOM      2  O   UNL     1       1.474  -0.122  22.909  0.00  0.00    -0.276 OA
ATOM      5  N   UNL     1       1.494   1.946  23.975  0.00  0.00    -0.315 N 
ATOM     21  C   UNL     1       2.043   0.929  23.192  0.00  0.00    +0.214 C 
ATOM     33  H   UNL     1       2.030   2.799  24.100  0.00  0.00    +0.149 HD
BRANCH  21  22
ATOM     22  C   UNL     1       3.446   1.267  22.720  0.00  0.00    +0.107 C 
BRANCH  22  24
ATOM     24  C   UNL     1       4.345   0.037  22.636  0.00  0.00    +0.129 C 
BRANCH  24  26
ATOM      4  O   UNL     1       5.647   0.648  24.600  0.00  0.00    -0.251 OA
ATOM     26  C   UNL     1       5.089  -0.208  23.927  0.00  0.00    +0.305 C 
BRANCH  26   3
ATOM      3  O   UNL     1       5.068  -1.524  24.271  0.00  0.00    -0.481 OA
ATOM     35  H   UNL     1       5.089  -2.107  23.482  0.00  0.00    +0.295 HD
ENDBRANCH  26   3
ENDBRANCH  24  26
ENDBRANCH  22  24
ENDBRANCH  21  22
ENDBRANCH  15   5
ENDBRANCH   9  15
BRANCH  11  16
ATOM     16  C   UNL     1      -3.722   4.391  25.895  0.00  0.00    +0.103 C 
BRANCH  16  20
ATOM      1  O   UNL     1      -5.994   3.680  25.465  0.00  0.00    -0.276 OA
ATOM      6  N   UNL     1      -4.388   2.100  26.037  0.00  0.00    -0.311 N 
ATOM     20  C   UNL     1      -4.842   3.383  25.768  0.00  0.00    +0.214 C 
ATOM     34  H   UNL     1      -3.412   1.954  26.277  0.00  0.00    +0.149 HD
BRANCH   6  23
ATOM     23  C   UNL     1      -5.243   0.936  25.993  0.00  0.00    +0.139 C 
BRANCH  23  25
ATOM     25  C   UNL     1      -4.549  -0.249  25.387  0.00  0.00    -0.030 A 
ATOM     27  C   UNL     1      -4.957  -0.736  24.145  0.00  0.00    +0.006 A 
ATOM     28  C   UNL     1      -3.494  -0.861  26.064  0.00  0.00    +0.006 A 
ATOM     29  C   UNL     1      -4.311  -1.837  23.581  0.00  0.00    +0.019 A 
ATOM     30  C   UNL     1      -2.848  -1.962  25.500  0.00  0.00    +0.019 A 
ATOM     31  C   UNL     1      -3.256  -2.449  24.258  0.00  0.00    +0.052 A 
BRANCH  31  32
ATOM      7  N   UNL     1      -2.061  -4.492  23.209  0.00  0.00    -0.191 NA
ATOM     32  C   UNL     1      -2.596  -3.576  23.680  0.00  0.00    +0.099 C 
ENDBRANCH  31  32
ENDBRANCH  23  25
ENDBRANCH   6  23
ENDBRANCH  16  20
ENDBRANCH  11  16
TORSDOF 12
ENDMDL
MODEL 9
REMARK VINA RESULT:      -0.8      2.019      5.517
REMARK  Name = 38029432
REMARK  15 active torsions:
REMARK  status: ('A' for Active; 'I' for Inactive)
REMARK    1  A    between atoms: O_3  and  C_26
REMARK    2  A    between atoms: N_5  and  C_15
REMARK    3  A    between atoms: N_6  and  C_23
REMARK    4  A    between atoms: C_8  and  C_12
REMARK    5  A    between atoms: C_9  and  C_15
REMARK    6  A    between atoms: C_11  and  C_16
REMARK    7  A    between atoms: C_12  and  C_17
REMARK    8  A    between atoms: C_12  and  C_18
REMARK    9  A    between atoms: C_13  and  C_19
REMARK   10  A    between atoms: C_16  and  C_20
REMARK   11  A    between atoms: C_21  and  C_22
REMARK   12  A    between atoms: C_22  and  C_24
REMARK   13  A    between atoms: C_23  and  C_25
REMARK   14  A    between atoms: C_24  and  C_26
REMARK   15  A    between atoms: C_31  and  C_32
REMARK                            x       y       z     vdW  Elec       q    Type
REMARK                         _______ _______ _______ _____ _____    ______ ____
ROOT
ATOM      8  C   UNL     1      -2.928   2.024  24.775  0.00  0.00    +0.000 C 
ATOM      9  C   UNL     1      -2.296   2.443  23.424  0.00  0.00    +0.032 C 
ATOM     10  C   UNL     1      -3.356   3.264  25.574  0.00  0.00    +0.012 C 
ATOM     11  C   UNL     1      -2.174   4.210  25.859  0.00  0.00    +0.023 C 
ATOM     13  C   UNL     1      -1.340   4.460  24.619  0.00  0.00    -0.073 C 
ATOM     14  C   UNL     1      -1.419   3.667  23.535  0.00  0.00    -0.022 C 
ATOM     19  C   UNL     1      -0.447   5.669  24.635  0.00  0.00    +0.039 C 
ENDROOT
BRANCH   8  12
ATOM     12  C   UNL     1      -4.128   1.093  24.579  0.00  0.00    -0.013 C 
ATOM     17  C   UNL     1      -5.433   1.868  24.731  0.00  0.00    +0.007 C 
ATOM     18  C   UNL     1      -4.057   0.415  23.214  0.00  0.00    +0.007 C 
ENDBRANCH   8  12
BRANCH   9  15
ATOM     15  C   UNL     1      -1.493   1.292  22.808  0.00  0.00    +0.112 C 
BRANCH  15   5
ATOM      2  O   UNL     1       0.667  -0.445  21.979  0.00  0.00    -0.276 OA
ATOM      5  N   UNL     1      -0.139   1.317  23.265  0.00  0.00    -0.315 N 
ATOM     21  C   UNL     1       0.847   0.439  22.812  0.00  0.00    +0.214 C 
ATOM     33  H   UNL     1       0.132   2.049  23.916  0.00  0.00    +0.149 HD
BRANCH  21  22
ATOM     22  C   UNL     1       2.189   0.696  23.473  0.00  0.00    +0.107 C 
BRANCH  22  24
ATOM     24  C   UNL     1       3.363   0.409  22.542  0.00  0.00    +0.129 C 
BRANCH  24  26
ATOM      4  O   UNL     1       5.645   0.339  23.384  0.00  0.00    -0.251 OA
ATOM     26  C   UNL     1       4.541  -0.178  23.282  0.00  0.00    +0.305 C 
BRANCH  26   3
ATOM      3  O   UNL     1       4.229  -1.378  23.840  0.00  0.00    -0.481 OA
ATOM     35  H   UNL     1       4.012  -1.292  24.794  0.00  0.00    +0.295 HD
ENDBRANCH  26   3
ENDBRANCH  24  26
ENDBRANCH  22  24
ENDBRANCH  21  22
ENDBRANCH  15   5
ENDBRANCH   9  15
BRANCH  11  16
ATOM     16  C   UNL     1      -1.307   3.681  27.006  0.00  0.00    +0.103 C 
BRANCH  16  20
ATOM      1  O   UNL     1       0.639   2.658  25.994  0.00  0.00    -0.276 OA
ATOM      6  N   UNL     1      -1.013   1.311  26.920  0.00  0.00    -0.311 N 
ATOM     20  C   UNL     1      -0.435   2.523  26.574  0.00  0.00    +0.214 C 
ATOM     34  H   UNL     1      -1.906   1.300  27.403  0.00  0.00    +0.149 HD
BRANCH   6  23
ATOM     23  C   UNL     1      -0.401   0.034  26.628  0.00  0.00    +0.139 C 
BRANCH  23  25
ATOM     25  C   UNL     1      -1.341  -0.886  25.903  0.00  0.00    -0.030 A 
ATOM     27  C   UNL     1      -2.654  -1.035  26.350  0.00  0.00    +0.006 A 
ATOM     28  C   UNL     1      -0.901  -1.591  24.783  0.00  0.00    +0.006 A 
ATOM     29  C   UNL     1      -3.527  -1.890  25.677  0.00  0.00    +0.019 A 
ATOM     30  C   UNL     1      -1.775  -2.446  24.110  0.00  0.00    +0.019 A 
ATOM     31  C   UNL     1      -3.088  -2.595  24.556  0.00  0.00    +0.052 A 
BRANCH  31  32
ATOM      7  N   UNL     1      -4.709  -4.182  23.311  0.00  0.00    -0.191 NA
ATOM     32  C   UNL     1      -3.982  -3.470  23.868  0.00  0.00    +0.099 C 
ENDBRANCH  31  32
ENDBRANCH  23  25
ENDBRANCH   6  23
ENDBRANCH  16  20
ENDBRANCH  11  16
TORSDOF 12
ENDMDL
MODEL 10
REMARK VINA RESULT:      -0.1      1.806      5.017
REMARK  Name = 38029432
REMARK  15 active torsions:
REMARK  status: ('A' for Active; 'I' for Inactive)
REMARK    1  A    between atoms: O_3  and  C_26
REMARK    2  A    between atoms: N_5  and  C_15
REMARK    3  A    between atoms: N_6  and  C_23
REMARK    4  A    between atoms: C_8  and  C_12
REMARK    5  A    between atoms: C_9  and  C_15
REMARK    6  A    between atoms: C_11  and  C_16
REMARK    7  A    between atoms: C_12  and  C_17
REMARK    8  A    between atoms: C_12  and  C_18
REMARK    9  A    between atoms: C_13  and  C_19
REMARK   10  A    between atoms: C_16  and  C_20
REMARK   11  A    between atoms: C_21  and  C_22
REMARK   12  A    between atoms: C_22  and  C_24
REMARK   13  A    between atoms: C_23  and  C_25
REMARK   14  A    between atoms: C_24  and  C_26
REMARK   15  A    between atoms: C_31  and  C_32
REMARK                            x       y       z     vdW  Elec       q    Type
REMARK                         _______ _______ _______ _____ _____    ______ ____
ROOT
ATOM      8  C   UNL     1      -1.810   4.148  24.760  0.00  0.00    +0.000 C 
ATOM      9  C   UNL     1      -1.913   3.596  26.205  0.00  0.00    +0.032 C 
ATOM     10  C   UNL     1      -3.084   4.922  24.390  0.00  0.00    +0.012 C 
ATOM     11  C   UNL     1      -4.347   4.046  24.491  0.00  0.00    +0.023 C 
ATOM     13  C   UNL     1      -4.386   3.260  25.786  0.00  0.00    -0.073 C 
ATOM     14  C   UNL     1      -3.290   3.081  26.545  0.00  0.00    -0.022 C 
ATOM     19  C   UNL     1      -5.724   2.721  26.210  0.00  0.00    +0.039 C 
ENDROOT
BRANCH   8  12
ATOM     12  C   UNL     1      -0.584   5.048  24.581  0.00  0.00    -0.013 C 
ATOM     17  C   UNL     1      -0.032   4.920  23.165  0.00  0.00    +0.007 C 
ATOM     18  C   UNL     1      -0.939   6.499  24.894  0.00  0.00    +0.007 C 
ENDBRANCH   8  12
BRANCH   9  15
ATOM     15  C   UNL     1      -0.878   2.492  26.451  0.00  0.00    +0.112 C 
BRANCH  15   5
ATOM      2  O   UNL     1       1.284   2.251  24.543  0.00  0.00    -0.276 OA
ATOM      5  N   UNL     1      -0.807   1.606  25.331  0.00  0.00    -0.315 N 
ATOM     21  C   UNL     1       0.277   1.552  24.455  0.00  0.00    +0.214 C 
ATOM     33  H   UNL     1      -1.565   0.942  25.199  0.00  0.00    +0.149 HD
BRANCH  21  22
ATOM     22  C   UNL     1       0.076   0.521  23.360  0.00  0.00    +0.107 C 
BRANCH  22  24
ATOM     24  C   UNL     1       1.259  -0.435  23.233  0.00  0.00    +0.129 C 
BRANCH  24  26
ATOM      4  O   UNL     1       2.350  -0.202  21.071  0.00  0.00    -0.251 OA
ATOM     26  C   UNL     1       2.296   0.075  22.261  0.00  0.00    +0.305 C 
BRANCH  26   3
ATOM      3  O   UNL     1       3.187   0.900  22.872  0.00  0.00    -0.481 OA
ATOM     35  H   UNL     1       3.224   1.781  22.442  0.00  0.00    +0.295 HD
ENDBRANCH  26   3
ENDBRANCH  24  26
ENDBRANCH  22  24
ENDBRANCH  21  22
ENDBRANCH  15   5
ENDBRANCH   9  15
BRANCH  11  16
ATOM     16  C   UNL     1      -4.473   3.116  23.279  0.00  0.00    +0.103 C 
BRANCH  16  20
ATOM      1  O   UNL     1      -3.158   1.098  23.503  0.00  0.00    -0.276 OA
ATOM      6  N   UNL     1      -5.387   1.090  24.158  0.00  0.00    -0.311 N 
ATOM     20  C   UNL     1      -4.235   1.669  23.646  0.00  0.00    +0.214 C 
ATOM     34  H   UNL     1      -6.233   1.646  24.242  0.00  0.00    +0.149 HD
BRANCH   6  23
ATOM     23  C   UNL     1      -5.453  -0.288  24.590  0.00  0.00    +0.139 C 
BRANCH  23  25
ATOM     25  C   UNL     1      -4.088  -0.871  24.817  0.00  0.00    -0.030 A 
ATOM     27  C   UNL     1      -3.339  -0.480  25.927  0.00  0.00    +0.006 A 
ATOM     28  C   UNL     1      -3.570  -1.804  23.919  0.00  0.00    +0.006 A 
ATOM     29  C   UNL     1      -2.071  -1.022  26.138  0.00  0.00    +0.019 A 
ATOM     30  C   UNL     1      -2.302  -2.347  24.131  0.00  0.00    +0.019 A 
ATOM     31  C   UNL     1      -1.553  -1.956  25.240  0.00  0.00    +0.052 A 
BRANCH  31  32
ATOM      7  N   UNL     1       0.801  -2.959  25.635  0.00  0.00    -0.191 NA
ATOM     32  C   UNL     1      -0.254  -2.510  25.457  0.00  0.00    +0.099 C 
ENDBRANCH  31  32
ENDBRANCH  23  25
ENDBRANCH   6  23
ENDBRANCH  16  20
ENDBRANCH  11  16
TORSDOF 12
ENDMDL
