MODEL 1
REMARK VINA RESULT:      -2.5      0.000      0.000
REMARK  Name = 45783564
REMARK  9 active torsions:
REMARK  status: ('A' for Active; 'I' for Inactive)
REMARK    1  A    between atoms: O_3  and  C_24
REMARK    2  A    between atoms: O_3  and  C_25
REMARK    3  A    between atoms: O_4  and  C_26
REMARK    4  A    between atoms: O_4  and  C_27
REMARK    5  A    between atoms: N_5  and  C_13
REMARK    6  A    between atoms: C_9  and  C_14
REMARK    7  A    between atoms: C_13  and  C_15
REMARK    8  A    between atoms: C_17  and  C_19
REMARK    9  A    between atoms: C_25  and  C_26
REMARK                            x       y       z     vdW  Elec       q    Type
REMARK                         _______ _______ _______ _____ _____    ______ ____
ROOT
ATOM      2  O   UNL     1      -2.499   3.240  25.437  0.00  0.00    -0.336 OA
ATOM      6  N   UNL     1      -2.337   1.622  23.896  0.00  0.00    -0.190 NA
ATOM      7  N   UNL     1      -1.130   3.014  25.253  0.00  0.00    -0.056 NA
ATOM     14  C   UNL     1      -3.139   2.380  24.601  0.00  0.00    +0.245 A 
ATOM     17  C   UNL     1      -1.115   2.047  24.330  0.00  0.00    +0.204 A 
ENDROOT
BRANCH  17  19
ATOM      8  N   UNL     1       2.476   1.707  23.424  0.00  0.00    -0.221 NA
ATOM     19  C   UNL     1       0.102   1.482  23.822  0.00  0.00    +0.041 A 
ATOM     21  C   UNL     1       0.119   0.215  23.250  0.00  0.00    +0.018 A 
ATOM     22  C   UNL     1       1.297   2.181  23.884  0.00  0.00    +0.126 A 
ATOM     23  C   UNL     1       1.312  -0.307  22.766  0.00  0.00    +0.068 A 
ATOM     24  C   UNL     1       2.453   0.471  22.875  0.00  0.00    +0.215 A 
BRANCH  24   3
ATOM      3  O   UNL     1       3.642  -0.021  22.404  0.00  0.00    -0.474 OA
BRANCH   3  25
ATOM     25  C   UNL     1       4.815   0.714  22.735  0.00  0.00    +0.258 C 
BRANCH  25  26
ATOM     26  C   UNL     1       5.855  -0.238  23.292  0.00  0.00    +0.200 C 
BRANCH  26   4
ATOM      4  O   UNL     1       5.315  -0.902  24.428  0.00  0.00    -0.380 OA
ATOM     27  C   UNL     1       4.619  -2.084  24.058  0.00  0.00    +0.194 C 
ENDBRANCH  26   4
ENDBRANCH  25  26
ENDBRANCH   3  25
ENDBRANCH  24   3
ENDBRANCH  17  19
BRANCH  14   9
ATOM      5  N   UNL     1      -5.256   1.222  25.207  0.00  0.00    -0.287 NA
ATOM      9  C   UNL     1      -4.652   2.429  24.611  0.00  0.00    +0.146 C 
ATOM     10  C   UNL     1      -5.204   3.597  25.448  0.00  0.00    +0.030 C 
ATOM     11  C   UNL     1      -6.153   2.955  26.450  0.00  0.00    +0.017 C 
ATOM     12  C   UNL     1      -6.529   1.642  25.793  0.00  0.00    +0.085 C 
BRANCH   5  13
ATOM     13  C   UNL     1      -5.425   0.132  24.253  0.00  0.00    +0.127 C 
BRANCH  13  15
ATOM      1  S   UNL     1      -3.446  -0.943  25.886  0.00  0.00    -0.100 S 
ATOM     15  C   UNL     1      -4.431  -0.975  24.485  0.00  0.00    +0.004 A 
ATOM     16  C   UNL     1      -4.175  -2.076  23.698  0.00  0.00    +0.012 A 
ATOM     18  C   UNL     1      -3.158  -2.905  24.252  0.00  0.00    +0.008 A 
ATOM     20  C   UNL     1      -2.675  -2.406  25.441  0.00  0.00    +0.045 A 
ENDBRANCH  13  15
ENDBRANCH   5  13
ENDBRANCH  14   9
TORSDOF 8
ENDMDL
MODEL 2
REMARK VINA RESULT:      -1.1      2.222      3.612
REMARK  Name = 45783564
REMARK  9 active torsions:
REMARK  status: ('A' for Active; 'I' for Inactive)
REMARK    1  A    between atoms: O_3  and  C_24
REMARK    2  A    between atoms: O_3  and  C_25
REMARK    3  A    between atoms: O_4  and  C_26
REMARK    4  A    between atoms: O_4  and  C_27
REMARK    5  A    between atoms: N_5  and  C_13
REMARK    6  A    between atoms: C_9  and  C_14
REMARK    7  A    between atoms: C_13  and  C_15
REMARK    8  A    between atoms: C_17  and  C_19
REMARK    9  A    between atoms: C_25  and  C_26
REMARK                            x       y       z     vdW  Elec       q    Type
REMARK                         _______ _______ _______ _____ _____    ______ ____
ROOT
ATOM      2  O   UNL     1      -3.315  -0.731  25.165  0.00  0.00    -0.336 OA
ATOM      6  N   UNL     1      -2.250   1.168  24.638  0.00  0.00    -0.190 NA
ATOM      7  N   UNL     1      -2.093  -1.115  24.599  0.00  0.00    -0.056 NA
ATOM     14  C   UNL     1      -3.327   0.628  25.150  0.00  0.00    +0.245 A 
ATOM     17  C   UNL     1      -1.522   0.060  24.314  0.00  0.00    +0.204 A 
ENDROOT
BRANCH  17  19
ATOM      8  N   UNL     1       1.378  -0.690  22.109  0.00  0.00    -0.221 NA
ATOM     19  C   UNL     1      -0.228   0.161  23.704  0.00  0.00    +0.041 A 
ATOM     21  C   UNL     1       0.665   1.159  24.081  0.00  0.00    +0.018 A 
ATOM     22  C   UNL     1       0.174  -0.730  22.722  0.00  0.00    +0.126 A 
ATOM     23  C   UNL     1       1.912   1.234  23.473  0.00  0.00    +0.068 A 
ATOM     24  C   UNL     1       2.218   0.295  22.501  0.00  0.00    +0.215 A 
BRANCH  24   3
ATOM      3  O   UNL     1       3.442   0.346  21.887  0.00  0.00    -0.474 OA
BRANCH   3  25
ATOM     25  C   UNL     1       4.410   1.216  22.461  0.00  0.00    +0.258 C 
BRANCH  25  26
ATOM     26  C   UNL     1       4.975   0.572  23.712  0.00  0.00    +0.200 C 
BRANCH  26   4
ATOM      4  O   UNL     1       5.568  -0.674  23.366  0.00  0.00    -0.380 OA
ATOM     27  C   UNL     1       4.853  -1.764  23.930  0.00  0.00    +0.194 C 
ENDBRANCH  26   4
ENDBRANCH  25  26
ENDBRANCH   3  25
ENDBRANCH  24   3
ENDBRANCH  17  19
BRANCH  14   9
ATOM      5  N   UNL     1      -4.600   2.746  25.436  0.00  0.00    -0.287 NA
ATOM      9  C   UNL     1      -4.560   1.298  25.719  0.00  0.00    +0.146 C 
ATOM     10  C   UNL     1      -5.867   0.746  25.121  0.00  0.00    +0.030 C 
ATOM     11  C   UNL     1      -6.602   1.963  24.579  0.00  0.00    +0.017 C 
ATOM     12  C   UNL     1      -6.014   3.115  25.370  0.00  0.00    +0.085 C 
BRANCH   5  13
ATOM     13  C   UNL     1      -3.871   3.543  26.415  0.00  0.00    +0.127 C 
BRANCH  13  15
ATOM      1  S   UNL     1      -2.435   5.417  24.944  0.00  0.00    -0.100 S 
ATOM     15  C   UNL     1      -2.533   3.992  25.888  0.00  0.00    +0.004 A 
ATOM     16  C   UNL     1      -1.303   3.396  26.057  0.00  0.00    +0.012 A 
ATOM     18  C   UNL     1      -0.264   4.121  25.404  0.00  0.00    +0.008 A 
ATOM     20  C   UNL     1      -0.741   5.241  24.761  0.00  0.00    +0.045 A 
ENDBRANCH  13  15
ENDBRANCH   5  13
ENDBRANCH  14   9
TORSDOF 8
ENDMDL
