MODEL 1
REMARK VINA RESULT:       5.9      0.000      0.000
REMARK  Name = 11883077
REMARK  9 active torsions:
REMARK  status: ('A' for Active; 'I' for Inactive)
REMARK    1  A    between atoms: O_2  and  C_15
REMARK    2  A    between atoms: O_3  and  C_20
REMARK    3  A    between atoms: N_8  and  C_26
REMARK    4  A    between atoms: C_10  and  C_18
REMARK    5  A    between atoms: C_12  and  C_20
REMARK    6  A    between atoms: C_12  and  C_21
REMARK    7  A    between atoms: C_13  and  C_23
REMARK    8  A    between atoms: C_23  and  C_24
REMARK    9  A    between atoms: C_32  and  C_33
REMARK                            x       y       z     vdW  Elec       q    Type
REMARK                         _______ _______ _______ _____ _____    ______ ____
ROOT
ATOM      1  S   UNL     1       0.453   2.092  25.846  0.00  0.00    -0.057 S 
ATOM      5  O   UNL     1       2.009   0.139  21.956  0.00  0.00    -0.266 OA
ATOM      7  N   UNL     1      -0.183   1.352  23.450  0.00  0.00    -0.229 NA
ATOM      9  N   UNL     1       2.092   0.956  24.142  0.00  0.00    -0.258 N 
ATOM     10  C   UNL     1      -3.833   2.284  24.271  0.00  0.00    -0.019 C 
ATOM     11  C   UNL     1      -3.395   3.441  25.274  0.00  0.00    +0.011 C 
ATOM     12  C   UNL     1      -4.544   4.169  26.073  0.00  0.00    +0.021 C 
ATOM     13  C   UNL     1      -2.614   2.005  23.278  0.00  0.00    +0.054 C 
ATOM     14  C   UNL     1      -5.047   2.761  23.432  0.00  0.00    +0.010 C 
ATOM     15  C   UNL     1      -5.695   4.535  25.095  0.00  0.00    +0.123 C 
ATOM     16  C   UNL     1      -2.195   2.999  26.162  0.00  0.00    +0.049 C 
ATOM     17  C   UNL     1      -6.178   3.351  24.264  0.00  0.00    +0.032 C 
ATOM     18  C   UNL     1      -4.216   0.972  24.998  0.00  0.00    +0.012 C 
ATOM     19  C   UNL     1      -1.314   1.894  24.032  0.00  0.00    +0.058 A 
ATOM     21  C   UNL     1      -3.990   5.501  26.655  0.00  0.00    +0.016 C 
ATOM     22  C   UNL     1      -1.143   2.363  25.319  0.00  0.00    +0.015 A 
ATOM     25  C   UNL     1       0.807   1.398  24.315  0.00  0.00    +0.165 A 
ATOM     32  C   UNL     1       2.640   0.353  22.988  0.00  0.00    +0.285 C 
ATOM     40  H   UNL     1       2.700   1.082  24.947  0.00  0.00    +0.157 HD
ENDROOT
BRANCH  32  33
ATOM      6  O   UNL     1       4.310  -1.270  23.675  0.00  0.00    -0.458 OA
ATOM     33  C   UNL     1       4.049  -0.062  23.111  0.00  0.00    +0.189 A 
ATOM     34  C   UNL     1       5.218   0.564  22.746  0.00  0.00    +0.054 A 
ATOM     35  C   UNL     1       6.266  -0.316  23.111  0.00  0.00    +0.042 A 
ATOM     36  C   UNL     1       5.661  -1.417  23.673  0.00  0.00    +0.196 A 
ENDBRANCH  32  33
BRANCH  15   2
ATOM      2  O   UNL     1      -6.806   5.079  25.807  0.00  0.00    -0.391 OA
ATOM     37  H   UNL     1      -6.801   6.042  25.672  0.00  0.00    +0.210 HD
ENDBRANCH  15   2
BRANCH  12  20
ATOM     20  C   UNL     1      -5.082   3.378  27.286  0.00  0.00    +0.165 C 
BRANCH  20   3
ATOM      3  O   UNL     1      -6.220   2.661  26.863  0.00  0.00    -0.394 OA
ATOM     38  H   UNL     1      -6.127   2.508  25.907  0.00  0.00    +0.209 HD
ENDBRANCH  20   3
ENDBRANCH  12  20
BRANCH  13  23
ATOM     23  C   UNL     1      -2.819   0.811  22.335  0.00  0.00    +0.106 C 
BRANCH  23  24
ATOM      4  O   UNL     1      -4.095  -1.049  23.212  0.00  0.00    -0.276 OA
ATOM      8  N   UNL     1      -1.811  -0.928  23.626  0.00  0.00    -0.312 N 
ATOM     24  C   UNL     1      -3.011  -0.482  23.092  0.00  0.00    +0.214 C 
ATOM     39  H   UNL     1      -0.964  -0.409  23.416  0.00  0.00    +0.149 HD
BRANCH   8  26
ATOM     26  C   UNL     1      -1.693  -2.141  24.403  0.00  0.00    +0.073 C 
ATOM     27  C   UNL     1      -0.686  -1.968  25.546  0.00  0.00    +0.022 C 
ATOM     28  C   UNL     1      -3.059  -2.592  24.930  0.00  0.00    +0.022 C 
ATOM     29  C   UNL     1      -1.215  -1.065  26.659  0.00  0.00    +0.002 C 
ATOM     30  C   UNL     1      -3.584  -1.687  26.045  0.00  0.00    +0.002 C 
ATOM     31  C   UNL     1      -2.570  -1.539  27.175  0.00  0.00    +0.000 C 
ENDBRANCH   8  26
ENDBRANCH  23  24
ENDBRANCH  13  23
TORSDOF 7
ENDMDL
