MODEL 1
REMARK VINA RESULT:       9.9      0.000      0.000
REMARK  Name = 44716363
REMARK  9 active torsions:
REMARK  status: ('A' for Active; 'I' for Inactive)
REMARK    1  A    between atoms: O_1  and  C_16
REMARK    2  A    between atoms: O_1  and  C_21
REMARK    3  A    between atoms: N_5  and  C_19
REMARK    4  A    between atoms: N_7  and  C_27
REMARK    5  A    between atoms: C_9  and  C_15
REMARK    6  A    between atoms: C_10  and  C_16
REMARK    7  A    between atoms: C_18  and  C_20
REMARK    8  A    between atoms: C_36  and  C_37
REMARK    9  A    between atoms: C_37  and  C_38
REMARK                            x       y       z     vdW  Elec       q    Type
REMARK                         _______ _______ _______ _____ _____    ______ ____
ROOT
ATOM      4  N   UNL     1      -5.499   2.402  26.089  0.00  0.00    -0.296 NA
ATOM      8  C   UNL     1      -5.188   1.078  23.868  0.00  0.00    +0.002 C 
ATOM      9  C   UNL     1      -4.334   0.445  25.002  0.00  0.00    +0.055 C 
ATOM     10  C   UNL     1      -5.187   3.339  24.978  0.00  0.00    +0.095 C 
ATOM     11  C   UNL     1      -4.797   2.562  23.702  0.00  0.00    +0.026 C 
ATOM     12  C   UNL     1      -6.655   1.046  24.345  0.00  0.00    +0.019 C 
ATOM     13  C   UNL     1      -4.413   1.399  26.228  0.00  0.00    +0.094 C 
ATOM     14  C   UNL     1      -6.749   1.684  25.742  0.00  0.00    +0.085 C 
ENDROOT
BRANCH   9  15
ATOM      5  N   UNL     1      -2.494  -1.266  24.650  0.00  0.00    -0.270 N 
ATOM      6  N   UNL     1      -1.194  -1.419  24.347  0.00  0.00    -0.171 NA
ATOM     15  C   UNL     1      -2.905   0.035  24.681  0.00  0.00    +0.044 A 
ATOM     17  C   UNL     1      -1.796   0.785  24.379  0.00  0.00    +0.053 A 
ATOM     18  C   UNL     1      -0.772  -0.161  24.183  0.00  0.00    +0.093 A 
ATOM     19  C   UNL     1      -3.301  -2.437  24.904  0.00  0.00    +0.172 C 
BRANCH  18  20
ATOM     20  C   UNL     1       0.600   0.112  23.844  0.00  0.00    +0.003 A 
ATOM     22  C   UNL     1       1.572  -0.873  24.026  0.00  0.00    +0.018 A 
ATOM     23  C   UNL     1       0.956   1.357  23.334  0.00  0.00    +0.011 A 
ATOM     24  C   UNL     1       2.915  -0.622  23.700  0.00  0.00    -0.017 A 
ATOM     25  C   UNL     1       2.285   1.623  23.004  0.00  0.00    +0.009 A 
ATOM     26  C   UNL     1       3.277   0.645  23.181  0.00  0.00    -0.018 A 
ATOM     28  C   UNL     1       3.907  -1.600  23.877  0.00  0.00    +0.008 A 
ATOM     29  C   UNL     1       4.620   0.895  22.855  0.00  0.00    +0.008 A 
ATOM     32  C   UNL     1       5.237  -1.334  23.547  0.00  0.00    +0.001 A 
ATOM     33  C   UNL     1       5.592  -0.089  23.037  0.00  0.00    +0.001 A 
ENDBRANCH  18  20
ENDBRANCH   9  15
BRANCH  10  16
ATOM     16  C   UNL     1      -4.125   4.370  25.366  0.00  0.00    +0.252 C 
BRANCH  16   1
ATOM      1  O   UNL     1      -3.048   4.265  24.455  0.00  0.00    -0.449 OA
BRANCH   1  21
ATOM      2  O   UNL     1      -0.814   4.751  24.492  0.00  0.00    -0.226 OA
ATOM      7  N   UNL     1      -1.817   3.428  26.143  0.00  0.00    -0.251 N 
ATOM     21  C   UNL     1      -1.783   4.196  24.996  0.00  0.00    +0.405 C 
ATOM     39  H   UNL     1      -2.723   3.048  26.404  0.00  0.00    +0.158 HD
BRANCH   7  27
ATOM     27  C   UNL     1      -0.744   3.104  27.004  0.00  0.00    +0.036 A 
ATOM     30  C   UNL     1      -0.932   3.113  28.387  0.00  0.00    +0.024 A 
ATOM     31  C   UNL     1       0.503   2.775  26.472  0.00  0.00    +0.024 A 
ATOM     34  C   UNL     1       0.127   2.795  29.236  0.00  0.00    +0.013 A 
ATOM     35  C   UNL     1       1.561   2.457  27.322  0.00  0.00    +0.013 A 
ATOM     36  C   UNL     1       1.374   2.466  28.704  0.00  0.00    +0.017 A 
BRANCH  36  37
ATOM      3  O   UNL     1       2.279   1.639  30.718  0.00  0.00    -0.292 OA
ATOM     37  C   UNL     1       2.477   2.134  29.592  0.00  0.00    +0.160 C 
ATOM     38  C   UNL     1       3.917   2.390  29.158  0.00  0.00    +0.091 C 
ENDBRANCH  36  37
ENDBRANCH   7  27
ENDBRANCH   1  21
ENDBRANCH  16   1
ENDBRANCH  10  16
TORSDOF 7
ENDMDL
MODEL 2
REMARK VINA RESULT:      13.2      2.984      5.052
REMARK  Name = 44716363
REMARK  9 active torsions:
REMARK  status: ('A' for Active; 'I' for Inactive)
REMARK    1  A    between atoms: O_1  and  C_16
REMARK    2  A    between atoms: O_1  and  C_21
REMARK    3  A    between atoms: N_5  and  C_19
REMARK    4  A    between atoms: N_7  and  C_27
REMARK    5  A    between atoms: C_9  and  C_15
REMARK    6  A    between atoms: C_10  and  C_16
REMARK    7  A    between atoms: C_18  and  C_20
REMARK    8  A    between atoms: C_36  and  C_37
REMARK    9  A    between atoms: C_37  and  C_38
REMARK                            x       y       z     vdW  Elec       q    Type
REMARK                         _______ _______ _______ _____ _____    ______ ____
ROOT
ATOM      4  N   UNL     1      -4.308   4.709  24.795  0.00  0.00    -0.296 NA
ATOM      8  C   UNL     1      -1.726   5.046  24.764  0.00  0.00    +0.002 C 
ATOM      9  C   UNL     1      -2.156   4.037  23.662  0.00  0.00    +0.055 C 
ATOM     10  C   UNL     1      -3.759   4.550  26.167  0.00  0.00    +0.095 C 
ATOM     11  C   UNL     1      -2.215   4.540  26.138  0.00  0.00    +0.026 C 
ATOM     12  C   UNL     1      -2.473   6.366  24.474  0.00  0.00    +0.019 C 
ATOM     13  C   UNL     1      -3.667   3.736  23.874  0.00  0.00    +0.094 C 
ATOM     14  C   UNL     1      -3.976   6.076  24.327  0.00  0.00    +0.085 C 
ENDROOT
BRANCH   9  15
ATOM      5  N   UNL     1      -1.839   1.624  22.947  0.00  0.00    -0.270 N 
ATOM      6  N   UNL     1      -0.953   0.616  22.883  0.00  0.00    -0.171 NA
ATOM     15  C   UNL     1      -1.334   2.769  23.490  0.00  0.00    +0.044 A 
ATOM     17  C   UNL     1      -0.026   2.490  23.803  0.00  0.00    +0.053 A 
ATOM     18  C   UNL     1       0.153   1.151  23.407  0.00  0.00    +0.093 A 
ATOM     19  C   UNL     1      -3.183   1.413  22.461  0.00  0.00    +0.172 C 
BRANCH  18  20
ATOM     20  C   UNL     1       1.359   0.373  23.523  0.00  0.00    +0.003 A 
ATOM     22  C   UNL     1       2.601   0.977  23.321  0.00  0.00    +0.018 A 
ATOM     23  C   UNL     1       1.286  -0.981  23.838  0.00  0.00    +0.011 A 
ATOM     24  C   UNL     1       3.786   0.232  23.430  0.00  0.00    -0.017 A 
ATOM     25  C   UNL     1       2.453  -1.735  23.951  0.00  0.00    +0.009 A 
ATOM     26  C   UNL     1       3.711  -1.145  23.750  0.00  0.00    -0.018 A 
ATOM     28  C   UNL     1       5.044   0.823  23.229  0.00  0.00    +0.008 A 
ATOM     29  C   UNL     1       4.897  -1.890  23.861  0.00  0.00    +0.008 A 
ATOM     32  C   UNL     1       6.212   0.068  23.343  0.00  0.00    +0.001 A 
ATOM     33  C   UNL     1       6.138  -1.286  23.658  0.00  0.00    +0.001 A 
ENDBRANCH  18  20
ENDBRANCH   9  15
BRANCH  10  16
ATOM     16  C   UNL     1      -4.324   3.321  26.882  0.00  0.00    +0.252 C 
BRANCH  16   1
ATOM      1  O   UNL     1      -5.537   2.956  26.252  0.00  0.00    -0.449 OA
BRANCH   1  21
ATOM      2  O   UNL     1      -6.423   1.503  24.726  0.00  0.00    -0.226 OA
ATOM      7  N   UNL     1      -4.362   1.101  25.759  0.00  0.00    -0.251 N 
ATOM     21  C   UNL     1      -5.520   1.805  25.496  0.00  0.00    +0.405 C 
ATOM     39  H   UNL     1      -3.727   1.515  26.436  0.00  0.00    +0.158 HD
BRANCH   7  27
ATOM     27  C   UNL     1      -3.947  -0.130  25.201  0.00  0.00    +0.036 A 
ATOM     30  C   UNL     1      -2.725  -0.689  25.576  0.00  0.00    +0.024 A 
ATOM     31  C   UNL     1      -4.759  -0.786  24.275  0.00  0.00    +0.024 A 
ATOM     34  C   UNL     1      -2.315  -1.903  25.024  0.00  0.00    +0.013 A 
ATOM     35  C   UNL     1      -4.348  -1.999  23.725  0.00  0.00    +0.013 A 
ATOM     36  C   UNL     1      -3.126  -2.558  24.099  0.00  0.00    +0.017 A 
BRANCH  36  37
ATOM      3  O   UNL     1      -3.498  -4.763  23.349  0.00  0.00    -0.292 OA
ATOM     37  C   UNL     1      -2.697  -3.824  23.524  0.00  0.00    +0.160 C 
ATOM     38  C   UNL     1      -1.241  -4.031  23.122  0.00  0.00    +0.091 C 
ENDBRANCH  36  37
ENDBRANCH   7  27
ENDBRANCH   1  21
ENDBRANCH  16   1
ENDBRANCH  10  16
TORSDOF 7
ENDMDL
