MODEL 1
REMARK VINA RESULT:      -4.7      0.000      0.000
REMARK  Name = 75537067
REMARK  3 active torsions:
REMARK  status: ('A' for Active; 'I' for Inactive)
REMARK    1  A    between atoms: N_3  and  C_9
REMARK    2  A    between atoms: N_5  and  C_18
REMARK    3  A    between atoms: C_18  and  C_19
REMARK                            x       y       z     vdW  Elec       q    Type
REMARK                         _______ _______ _______ _____ _____    ______ ____
ROOT
ATOM      2  O   UNL     1      -3.804 -10.577  16.999  0.00  0.00    -0.252 OA
ATOM      3  N   UNL     1      -5.044 -10.133  12.098  0.00  0.00    -0.296 NA
ATOM      4  N   UNL     1      -4.722 -10.673  14.839  0.00  0.00    -0.278 N 
ATOM      5  N   UNL     1      -6.124 -10.484  16.584  0.00  0.00    -0.279 N 
ATOM      7  C   UNL     1      -6.045 -10.769  14.255  0.00  0.00    +0.109 C 
ATOM      8  C   UNL     1      -6.154  -9.856  13.034  0.00  0.00    +0.108 C 
ATOM     10  C   UNL     1      -3.738  -9.898  12.745  0.00  0.00    +0.104 C 
ATOM     11  C   UNL     1      -6.977 -10.410  15.410  0.00  0.00    +0.133 C 
ATOM     12  C   UNL     1      -3.560 -10.780  13.983  0.00  0.00    +0.125 C 
ATOM     15  C   UNL     1      -4.762 -10.582  16.237  0.00  0.00    +0.305 C 
ENDROOT
BRANCH   3   9
ATOM      1  O   UNL     1      -6.119  -9.020   8.195  0.00  0.00    -0.380 OA
ATOM      9  C   UNL     1      -5.174  -9.308  10.899  0.00  0.00    +0.061 C 
ATOM     13  C   UNL     1      -6.646  -9.044  10.567  0.00  0.00    +0.047 C 
ATOM     14  C   UNL     1      -4.482  -9.983   9.711  0.00  0.00    +0.047 C 
ATOM     16  C   UNL     1      -6.765  -8.298   9.243  0.00  0.00    +0.161 C 
ATOM     17  C   UNL     1      -4.721  -9.184   8.435  0.00  0.00    +0.161 C 
ENDBRANCH   3   9
BRANCH   5  18
ATOM     18  C   UNL     1      -6.646 -10.317  17.922  0.00  0.00    +0.146 C 
BRANCH  18  19
ATOM      6  N   UNL     1      -9.760  -8.249  17.347  0.00  0.00    -0.263 NA
ATOM     19  C   UNL     1      -8.088  -9.901  17.915  0.00  0.00    -0.012 A 
ATOM     20  C   UNL     1      -9.074 -10.727  18.446  0.00  0.00    +0.008 A 
ATOM     21  C   UNL     1      -8.480  -8.683  17.383  0.00  0.00    +0.115 A 
ATOM     22  C   UNL     1     -10.402 -10.314  18.427  0.00  0.00    +0.020 A 
ATOM     23  C   UNL     1     -10.690  -9.078  17.872  0.00  0.00    +0.111 A 
ENDBRANCH  18  19
ENDBRANCH   5  18
TORSDOF 3
ENDMDL
MODEL 2
REMARK VINA RESULT:      -4.5      2.590      4.316
REMARK  Name = 75537067
REMARK  3 active torsions:
REMARK  status: ('A' for Active; 'I' for Inactive)
REMARK    1  A    between atoms: N_3  and  C_9
REMARK    2  A    between atoms: N_5  and  C_18
REMARK    3  A    between atoms: C_18  and  C_19
REMARK                            x       y       z     vdW  Elec       q    Type
REMARK                         _______ _______ _______ _____ _____    ______ ____
ROOT
ATOM      2  O   UNL     1      -1.988  -9.962  11.539  0.00  0.00    -0.252 OA
ATOM      3  N   UNL     1      -6.443  -9.638   9.131  0.00  0.00    -0.296 NA
ATOM      4  N   UNL     1      -4.143 -10.220  10.640  0.00  0.00    -0.278 N 
ATOM      5  N   UNL     1      -3.845 -10.638  12.827  0.00  0.00    -0.279 N 
ATOM      7  C   UNL     1      -5.424 -10.721  11.092  0.00  0.00    +0.109 C 
ATOM      8  C   UNL     1      -6.554  -9.821  10.593  0.00  0.00    +0.108 C 
ATOM     10  C   UNL     1      -5.153  -9.016   8.773  0.00  0.00    +0.104 C 
ATOM     11  C   UNL     1      -5.275 -10.781  12.611  0.00  0.00    +0.133 C 
ATOM     12  C   UNL     1      -3.971  -9.865   9.247  0.00  0.00    +0.125 C 
ATOM     15  C   UNL     1      -3.174 -10.241  11.653  0.00  0.00    +0.305 C 
ENDROOT
BRANCH   3   9
ATOM      1  O   UNL     1      -9.442  -6.699   9.070  0.00  0.00    -0.380 OA
ATOM      9  C   UNL     1      -7.554  -8.828   8.634  0.00  0.00    +0.061 C 
ATOM     13  C   UNL     1      -7.161  -7.350   8.541  0.00  0.00    +0.047 C 
ATOM     14  C   UNL     1      -8.778  -8.989   9.540  0.00  0.00    +0.047 C 
ATOM     16  C   UNL     1      -8.368  -6.505   8.150  0.00  0.00    +0.161 C 
ATOM     17  C   UNL     1      -9.895  -8.053   9.093  0.00  0.00    +0.161 C 
ENDBRANCH   3   9
BRANCH   5  18
ATOM     18  C   UNL     1      -3.254 -10.749  14.141  0.00  0.00    +0.146 C 
BRANCH  18  19
ATOM      6  N   UNL     1      -6.414  -9.606  15.877  0.00  0.00    -0.263 NA
ATOM     19  C   UNL     1      -4.246 -10.460  15.231  0.00  0.00    -0.012 A 
ATOM     20  C   UNL     1      -3.956 -10.751  16.559  0.00  0.00    +0.008 A 
ATOM     21  C   UNL     1      -5.478  -9.893  14.944  0.00  0.00    +0.115 A 
ATOM     22  C   UNL     1      -4.894 -10.470  17.547  0.00  0.00    +0.020 A 
ATOM     23  C   UNL     1      -6.097  -9.903  17.157  0.00  0.00    +0.111 A 
ENDBRANCH  18  19
ENDBRANCH   5  18
TORSDOF 3
ENDMDL
MODEL 3
REMARK VINA RESULT:      -3.0     15.167     17.376
REMARK  Name = 75537067
REMARK  3 active torsions:
REMARK  status: ('A' for Active; 'I' for Inactive)
REMARK    1  A    between atoms: N_3  and  C_9
REMARK    2  A    between atoms: N_5  and  C_18
REMARK    3  A    between atoms: C_18  and  C_19
REMARK                            x       y       z     vdW  Elec       q    Type
REMARK                         _______ _______ _______ _____ _____    ______ ____
ROOT
ATOM      2  O   UNL     1       0.386  -1.998  24.079  0.00  0.00    -0.252 OA
ATOM      3  N   UNL     1      -2.854   1.752  25.171  0.00  0.00    -0.296 NA
ATOM      4  N   UNL     1      -0.724  -0.002  24.632  0.00  0.00    -0.278 N 
ATOM      5  N   UNL     1       0.968   0.095  23.158  0.00  0.00    -0.279 N 
ATOM      7  C   UNL     1      -0.553   1.411  24.368  0.00  0.00    +0.109 C 
ATOM      8  C   UNL     1      -1.904   2.066  24.084  0.00  0.00    +0.108 C 
ATOM     10  C   UNL     1      -3.055   0.294  25.291  0.00  0.00    +0.104 C 
ATOM     11  C   UNL     1       0.434   1.445  23.203  0.00  0.00    +0.133 C 
ATOM     12  C   UNL     1      -1.737  -0.431  25.574  0.00  0.00    +0.125 C 
ATOM     15  C   UNL     1       0.232  -0.788  23.973  0.00  0.00    +0.305 C 
ENDROOT
BRANCH   3   9
ATOM      1  O   UNL     1      -6.601   3.457  26.000  0.00  0.00    -0.380 OA
ATOM      9  C   UNL     1      -4.131   2.424  24.941  0.00  0.00    +0.061 C 
ATOM     13  C   UNL     1      -4.205   3.747  25.710  0.00  0.00    +0.047 C 
ATOM     14  C   UNL     1      -5.294   1.514  25.348  0.00  0.00    +0.047 C 
ATOM     16  C   UNL     1      -5.591   4.367  25.566  0.00  0.00    +0.161 C 
ATOM     17  C   UNL     1      -6.618   2.258  25.224  0.00  0.00    +0.161 C 
ENDBRANCH   3   9
BRANCH   5  18
ATOM     18  C   UNL     1       2.031  -0.279  22.252  0.00  0.00    +0.146 C 
BRANCH  18  19
ATOM      6  N   UNL     1       5.053  -1.458  24.196  0.00  0.00    -0.263 NA
ATOM     19  C   UNL     1       3.373  -0.271  22.925  0.00  0.00    -0.012 A 
ATOM     20  C   UNL     1       4.170   0.868  22.920  0.00  0.00    +0.008 A 
ATOM     21  C   UNL     1       3.856  -1.399  23.571  0.00  0.00    +0.115 A 
ATOM     22  C   UNL     1       5.408   0.845  23.553  0.00  0.00    +0.020 A 
ATOM     23  C   UNL     1       5.800  -0.332  24.171  0.00  0.00    +0.111 A 
ENDBRANCH  18  19
ENDBRANCH   5  18
TORSDOF 3
ENDMDL
MODEL 4
REMARK VINA RESULT:      -0.9      2.056      2.556
REMARK  Name = 75537067
REMARK  3 active torsions:
REMARK  status: ('A' for Active; 'I' for Inactive)
REMARK    1  A    between atoms: N_3  and  C_9
REMARK    2  A    between atoms: N_5  and  C_18
REMARK    3  A    between atoms: C_18  and  C_19
REMARK                            x       y       z     vdW  Elec       q    Type
REMARK                         _______ _______ _______ _____ _____    ______ ____
ROOT
ATOM      2  O   UNL     1      -4.386 -10.207  18.877  0.00  0.00    -0.252 OA
ATOM      3  N   UNL     1      -3.070 -10.351  13.978  0.00  0.00    -0.296 NA
ATOM      4  N   UNL     1      -4.137 -10.574  16.570  0.00  0.00    -0.278 N 
ATOM      5  N   UNL     1      -6.207 -10.244  17.378  0.00  0.00    -0.279 N 
ATOM      7  C   UNL     1      -5.009 -10.781  15.432  0.00  0.00    +0.109 C 
ATOM      8  C   UNL     1      -4.489 -10.013  14.217  0.00  0.00    +0.108 C 
ATOM     10  C   UNL     1      -2.240 -10.000  15.147  0.00  0.00    +0.104 C 
ATOM     11  C   UNL     1      -6.378 -10.331  15.937  0.00  0.00    +0.133 C 
ATOM     12  C   UNL     1      -2.708 -10.733  16.407  0.00  0.00    +0.125 C 
ATOM     15  C   UNL     1      -4.851 -10.330  17.751  0.00  0.00    +0.305 C 
ENDROOT
BRANCH   3   9
ATOM      1  O   UNL     1      -1.826  -9.794  10.006  0.00  0.00    -0.380 OA
ATOM      9  C   UNL     1      -2.580  -9.669  12.782  0.00  0.00    +0.061 C 
ATOM     13  C   UNL     1      -3.613  -9.725  11.652  0.00  0.00    +0.047 C 
ATOM     14  C   UNL     1      -1.260 -10.291  12.317  0.00  0.00    +0.047 C 
ATOM     16  C   UNL     1      -3.034  -9.128  10.375  0.00  0.00    +0.161 C 
ATOM     17  C   UNL     1      -0.812  -9.663  11.003  0.00  0.00    +0.161 C 
ENDBRANCH   3   9
BRANCH   5  18
ATOM     18  C   UNL     1      -7.311  -9.949  18.264  0.00  0.00    +0.146 C 
BRANCH  18  19
ATOM      6  N   UNL     1      -9.646  -7.688  16.331  0.00  0.00    -0.263 NA
ATOM     19  C   UNL     1      -8.521  -9.470  17.515  0.00  0.00    -0.012 A 
ATOM     20  C   UNL     1      -9.612 -10.308  17.306  0.00  0.00    +0.008 A 
ATOM     21  C   UNL     1      -8.587  -8.181  17.012  0.00  0.00    +0.115 A 
ATOM     22  C   UNL     1     -10.720  -9.836  16.610  0.00  0.00    +0.020 A 
ATOM     23  C   UNL     1     -10.688  -8.530  16.147  0.00  0.00    +0.111 A 
ENDBRANCH  18  19
ENDBRANCH   5  18
TORSDOF 3
ENDMDL
