MODEL 1
REMARK VINA RESULT:      -5.3      0.000      0.000
REMARK  Name = 45783371
REMARK  8 active torsions:
REMARK  status: ('A' for Active; 'I' for Inactive)
REMARK    1  A    between atoms: O_2  and  C_27
REMARK    2  A    between atoms: O_2  and  C_28
REMARK    3  A    between atoms: N_3  and  C_12
REMARK    4  A    between atoms: N_6  and  C_24
REMARK    5  A    between atoms: C_8  and  C_13
REMARK    6  A    between atoms: C_12  and  C_14
REMARK    7  A    between atoms: C_15  and  C_18
REMARK    8  A    between atoms: C_24  and  C_27
REMARK                            x       y       z     vdW  Elec       q    Type
REMARK                         _______ _______ _______ _____ _____    ______ ____
ROOT
ATOM      1  O   UNL     1      -2.159 -10.383  14.790  0.00  0.00    -0.336 OA
ATOM      4  N   UNL     1      -4.334 -10.759  14.408  0.00  0.00    -0.190 NA
ATOM      5  N   UNL     1      -2.784 -10.357  16.042  0.00  0.00    -0.056 NA
ATOM     13  C   UNL     1      -3.143 -10.624  13.883  0.00  0.00    +0.245 A 
ATOM     15  C   UNL     1      -4.064 -10.588  15.734  0.00  0.00    +0.205 A 
ENDROOT
BRANCH  15  18
ATOM      6  N   UNL     1      -6.816 -10.678  15.037  0.00  0.00    -0.326 N 
ATOM      7  N   UNL     1      -7.440 -10.755  17.318  0.00  0.00    -0.240 NA
ATOM     18  C   UNL     1      -5.098 -10.651  16.728  0.00  0.00    +0.062 A 
ATOM     22  C   UNL     1      -6.444 -10.695  16.405  0.00  0.00    +0.130 A 
ATOM     23  C   UNL     1      -4.749 -10.668  18.074  0.00  0.00    +0.016 A 
ATOM     25  C   UNL     1      -5.745 -10.728  19.043  0.00  0.00    +0.020 A 
ATOM     26  C   UNL     1      -7.063 -10.770  18.616  0.00  0.00    +0.113 A 
ATOM     29  H   UNL     1      -6.114 -11.004  14.380  0.00  0.00    +0.148 HD
BRANCH   6  24
ATOM     24  C   UNL     1      -8.176 -10.722  14.609  0.00  0.00    +0.131 C 
BRANCH  24  27
ATOM     27  C   UNL     1      -8.708  -9.310  14.428  0.00  0.00    +0.178 C 
BRANCH  27   2
ATOM      2  O   UNL     1     -10.129  -9.341  14.393  0.00  0.00    -0.381 OA
ATOM     28  C   UNL     1     -10.668  -9.878  15.594  0.00  0.00    +0.194 C 
ENDBRANCH  27   2
ENDBRANCH  24  27
ENDBRANCH   6  24
ENDBRANCH  15  18
BRANCH  13   8
ATOM      3  N   UNL     1      -3.639  -9.976  11.532  0.00  0.00    -0.287 NA
ATOM      8  C   UNL     1      -2.718 -10.700  12.431  0.00  0.00    +0.146 C 
ATOM      9  C   UNL     1      -1.341 -10.058  12.181  0.00  0.00    +0.030 C 
ATOM     10  C   UNL     1      -1.576  -9.029  11.083  0.00  0.00    +0.017 C 
ATOM     11  C   UNL     1      -2.835  -9.521  10.398  0.00  0.00    +0.085 C 
BRANCH   3  12
ATOM     12  C   UNL     1      -4.777 -10.781  11.108  0.00  0.00    +0.120 C 
BRANCH  12  14
ATOM     14  C   UNL     1      -5.769  -9.974  10.313  0.00  0.00    -0.033 A 
ATOM     16  C   UNL     1      -6.844  -9.359  10.957  0.00  0.00    +0.005 A 
ATOM     17  C   UNL     1      -5.615  -9.841   8.933  0.00  0.00    +0.005 A 
ATOM     19  C   UNL     1      -7.763  -8.611  10.221  0.00  0.00    +0.000 A 
ATOM     20  C   UNL     1      -6.533  -9.094   8.197  0.00  0.00    +0.000 A 
ATOM     21  C   UNL     1      -7.607  -8.479   8.841  0.00  0.00    +0.000 A 
ENDBRANCH  12  14
ENDBRANCH   3  12
ENDBRANCH  13   8
TORSDOF 7
ENDMDL
MODEL 2
REMARK VINA RESULT:      -2.1     13.873     16.690
REMARK  Name = 45783371
REMARK  8 active torsions:
REMARK  status: ('A' for Active; 'I' for Inactive)
REMARK    1  A    between atoms: O_2  and  C_27
REMARK    2  A    between atoms: O_2  and  C_28
REMARK    3  A    between atoms: N_3  and  C_12
REMARK    4  A    between atoms: N_6  and  C_24
REMARK    5  A    between atoms: C_8  and  C_13
REMARK    6  A    between atoms: C_12  and  C_14
REMARK    7  A    between atoms: C_15  and  C_18
REMARK    8  A    between atoms: C_24  and  C_27
REMARK                            x       y       z     vdW  Elec       q    Type
REMARK                         _______ _______ _______ _____ _____    ______ ____
ROOT
ATOM      1  O   UNL     1      -0.806  -2.643  25.360  0.00  0.00    -0.336 OA
ATOM      4  N   UNL     1      -1.132  -0.818  24.102  0.00  0.00    -0.190 NA
ATOM      5  N   UNL     1       0.468  -2.142  25.063  0.00  0.00    -0.056 NA
ATOM     13  C   UNL     1      -1.690  -1.805  24.755  0.00  0.00    +0.245 A 
ATOM     15  C   UNL     1       0.192  -1.066  24.319  0.00  0.00    +0.205 A 
ENDROOT
BRANCH  15  18
ATOM      6  N   UNL     1       0.097   1.760  24.574  0.00  0.00    -0.326 N 
ATOM      7  N   UNL     1       2.136   1.982  23.393  0.00  0.00    -0.240 NA
ATOM     18  C   UNL     1       1.217  -0.221  23.777  0.00  0.00    +0.062 A 
ATOM     22  C   UNL     1       1.186   1.160  23.893  0.00  0.00    +0.130 A 
ATOM     23  C   UNL     1       2.291  -0.795  23.107  0.00  0.00    +0.016 A 
ATOM     25  C   UNL     1       3.288   0.018  22.578  0.00  0.00    +0.020 A 
ATOM     26  C   UNL     1       3.165   1.388  22.747  0.00  0.00    +0.113 A 
ATOM     29  H   UNL     1      -0.388   1.173  25.244  0.00  0.00    +0.148 HD
BRANCH   6  24
ATOM     24  C   UNL     1      -0.019   3.172  24.742  0.00  0.00    +0.131 C 
BRANCH  24  27
ATOM     27  C   UNL     1      -1.027   3.483  25.836  0.00  0.00    +0.178 C 
BRANCH  27   2
ATOM      2  O   UNL     1      -1.606   4.760  25.597  0.00  0.00    -0.381 OA
ATOM     28  C   UNL     1      -0.859   5.498  24.639  0.00  0.00    +0.194 C 
ENDBRANCH  27   2
ENDBRANCH  24  27
ENDBRANCH   6  24
ENDBRANCH  15  18
BRANCH  13   8
ATOM      3  N   UNL     1      -4.041  -1.042  24.472  0.00  0.00    -0.287 NA
ATOM      8  C   UNL     1      -3.158  -2.134  24.928  0.00  0.00    +0.146 C 
ATOM      9  C   UNL     1      -3.593  -3.359  24.103  0.00  0.00    +0.030 C 
ATOM     10  C   UNL     1      -4.765  -2.875  23.260  0.00  0.00    +0.017 C 
ATOM     11  C   UNL     1      -5.283  -1.675  24.026  0.00  0.00    +0.085 C 
BRANCH   3  12
ATOM     12  C   UNL     1      -4.279  -0.032  25.496  0.00  0.00    +0.120 C 
BRANCH  12  14
ATOM     14  C   UNL     1      -4.259   1.361  24.923  0.00  0.00    -0.033 A 
ATOM     16  C   UNL     1      -3.556   1.622  23.747  0.00  0.00    +0.005 A 
ATOM     17  C   UNL     1      -4.943   2.391  25.570  0.00  0.00    +0.005 A 
ATOM     19  C   UNL     1      -3.537   2.912  23.217  0.00  0.00    +0.000 A 
ATOM     20  C   UNL     1      -4.925   3.680  25.040  0.00  0.00    +0.000 A 
ATOM     21  C   UNL     1      -4.221   3.941  23.864  0.00  0.00    +0.000 A 
ENDBRANCH  12  14
ENDBRANCH   3  12
ENDBRANCH  13   8
TORSDOF 7
ENDMDL
MODEL 3
REMARK VINA RESULT:      -1.8     14.383     17.436
REMARK  Name = 45783371
REMARK  8 active torsions:
REMARK  status: ('A' for Active; 'I' for Inactive)
REMARK    1  A    between atoms: O_2  and  C_27
REMARK    2  A    between atoms: O_2  and  C_28
REMARK    3  A    between atoms: N_3  and  C_12
REMARK    4  A    between atoms: N_6  and  C_24
REMARK    5  A    between atoms: C_8  and  C_13
REMARK    6  A    between atoms: C_12  and  C_14
REMARK    7  A    between atoms: C_15  and  C_18
REMARK    8  A    between atoms: C_24  and  C_27
REMARK                            x       y       z     vdW  Elec       q    Type
REMARK                         _______ _______ _______ _____ _____    ______ ____
ROOT
ATOM      1  O   UNL     1      -3.923   2.240  23.830  0.00  0.00    -0.336 OA
ATOM      4  N   UNL     1      -4.049   0.683  25.436  0.00  0.00    -0.190 NA
ATOM      5  N   UNL     1      -3.392   1.067  23.278  0.00  0.00    -0.056 NA
ATOM     13  C   UNL     1      -4.285   1.926  25.102  0.00  0.00    +0.245 A 
ATOM     15  C   UNL     1      -3.501   0.195  24.285  0.00  0.00    +0.205 A 
ENDROOT
BRANCH  15  18
ATOM      6  N   UNL     1      -0.760  -0.497  24.018  0.00  0.00    -0.326 N 
ATOM      7  N   UNL     1      -1.302  -2.800  23.936  0.00  0.00    -0.240 NA
ATOM     18  C   UNL     1      -3.070  -1.169  24.174  0.00  0.00    +0.062 A 
ATOM     22  C   UNL     1      -1.738  -1.524  24.043  0.00  0.00    +0.130 A 
ATOM     23  C   UNL     1      -4.017  -2.187  24.198  0.00  0.00    +0.016 A 
ATOM     25  C   UNL     1      -3.608  -3.512  24.090  0.00  0.00    +0.020 A 
ATOM     26  C   UNL     1      -2.250  -3.762  23.963  0.00  0.00    +0.113 A 
ATOM     29  H   UNL     1      -1.023   0.379  24.457  0.00  0.00    +0.148 HD
BRANCH   6  24
ATOM     24  C   UNL     1       0.635  -0.767  23.887  0.00  0.00    +0.131 C 
BRANCH  24  27
ATOM     27  C   UNL     1       1.217   0.053  22.748  0.00  0.00    +0.178 C 
BRANCH  27   2
ATOM      2  O   UNL     1       2.582  -0.299  22.561  0.00  0.00    -0.381 OA
ATOM     28  C   UNL     1       3.437   0.824  22.732  0.00  0.00    +0.194 C 
ENDBRANCH  27   2
ENDBRANCH  24  27
ENDBRANCH   6  24
ENDBRANCH  15  18
BRANCH  13   8
ATOM      3  N   UNL     1      -4.274   4.353  25.654  0.00  0.00    -0.287 NA
ATOM      8  C   UNL     1      -4.898   3.042  25.923  0.00  0.00    +0.146 C 
ATOM      9  C   UNL     1      -6.392   3.251  25.620  0.00  0.00    +0.030 C 
ATOM     10  C   UNL     1      -6.521   4.722  25.248  0.00  0.00    +0.017 C 
ATOM     11  C   UNL     1      -5.308   5.359  25.894  0.00  0.00    +0.085 C 
BRANCH   3  12
ATOM     12  C   UNL     1      -3.079   4.594  26.452  0.00  0.00    +0.120 C 
BRANCH  12  14
ATOM     14  C   UNL     1      -1.851   3.996  25.819  0.00  0.00    -0.033 A 
ATOM     16  C   UNL     1      -1.204   2.921  26.429  0.00  0.00    +0.005 A 
ATOM     17  C   UNL     1      -1.359   4.517  24.622  0.00  0.00    +0.005 A 
ATOM     19  C   UNL     1      -0.066   2.366  25.842  0.00  0.00    +0.000 A 
ATOM     20  C   UNL     1      -0.223   3.962  24.035  0.00  0.00    +0.000 A 
ATOM     21  C   UNL     1       0.424   2.887  24.645  0.00  0.00    +0.000 A 
ENDBRANCH  12  14
ENDBRANCH   3  12
ENDBRANCH  13   8
TORSDOF 7
ENDMDL
MODEL 4
REMARK VINA RESULT:      -1.4     14.008     16.999
REMARK  Name = 45783371
REMARK  8 active torsions:
REMARK  status: ('A' for Active; 'I' for Inactive)
REMARK    1  A    between atoms: O_2  and  C_27
REMARK    2  A    between atoms: O_2  and  C_28
REMARK    3  A    between atoms: N_3  and  C_12
REMARK    4  A    between atoms: N_6  and  C_24
REMARK    5  A    between atoms: C_8  and  C_13
REMARK    6  A    between atoms: C_12  and  C_14
REMARK    7  A    between atoms: C_15  and  C_18
REMARK    8  A    between atoms: C_24  and  C_27
REMARK                            x       y       z     vdW  Elec       q    Type
REMARK                         _______ _______ _______ _____ _____    ______ ____
ROOT
ATOM      1  O   UNL     1      -0.795   3.524  25.581  0.00  0.00    -0.336 OA
ATOM      4  N   UNL     1      -1.084   2.171  23.819  0.00  0.00    -0.190 NA
ATOM      5  N   UNL     1       0.454   2.943  25.328  0.00  0.00    -0.056 NA
ATOM     13  C   UNL     1      -1.643   3.015  24.648  0.00  0.00    +0.245 A 
ATOM     15  C   UNL     1       0.202   2.158  24.275  0.00  0.00    +0.205 A 
ENDROOT
BRANCH  15  18
ATOM      6  N   UNL     1      -0.214  -0.593  23.708  0.00  0.00    -0.326 N 
ATOM      7  N   UNL     1       1.960  -0.782  22.794  0.00  0.00    -0.240 NA
ATOM     18  C   UNL     1       1.214   1.349  23.658  0.00  0.00    +0.062 A 
ATOM     22  C   UNL     1       1.027   0.006  23.374  0.00  0.00    +0.130 A 
ATOM     23  C   UNL     1       2.436   1.922  23.324  0.00  0.00    +0.016 A 
ATOM     25  C   UNL     1       3.422   1.144  22.726  0.00  0.00    +0.020 A 
ATOM     26  C   UNL     1       3.136  -0.190  22.484  0.00  0.00    +0.113 A 
ATOM     29  H   UNL     1      -1.006   0.037  23.783  0.00  0.00    +0.148 HD
BRANCH   6  24
ATOM     24  C   UNL     1      -0.498  -1.968  23.454  0.00  0.00    +0.131 C 
BRANCH  24  27
ATOM     27  C   UNL     1      -0.687  -2.710  24.766  0.00  0.00    +0.178 C 
BRANCH  27   2
ATOM      2  O   UNL     1       0.000  -2.020  25.803  0.00  0.00    -0.381 OA
ATOM     28  C   UNL     1      -0.788  -0.964  26.337  0.00  0.00    +0.194 C 
ENDBRANCH  27   2
ENDBRANCH  24  27
ENDBRANCH   6  24
ENDBRANCH  15  18
BRANCH  13   8
ATOM      3  N   UNL     1      -4.006   2.451  25.184  0.00  0.00    -0.287 NA
ATOM      8  C   UNL     1      -3.078   3.495  24.708  0.00  0.00    +0.146 C 
ATOM      9  C   UNL     1      -3.272   4.667  25.687  0.00  0.00    +0.030 C 
ATOM     10  C   UNL     1      -4.371   4.212  26.639  0.00  0.00    +0.017 C 
ATOM     11  C   UNL     1      -5.106   3.148  25.851  0.00  0.00    +0.085 C 
BRANCH   3  12
ATOM     12  C   UNL     1      -4.479   1.574  24.120  0.00  0.00    +0.120 C 
BRANCH  12  14
ATOM     14  C   UNL     1      -4.241   0.123  24.443  0.00  0.00    -0.033 A 
ATOM     16  C   UNL     1      -3.925  -0.260  25.747  0.00  0.00    +0.005 A 
ATOM     17  C   UNL     1      -4.335  -0.840  23.437  0.00  0.00    +0.005 A 
ATOM     19  C   UNL     1      -3.705  -1.605  26.046  0.00  0.00    +0.000 A 
ATOM     20  C   UNL     1      -4.115  -2.184  23.736  0.00  0.00    +0.000 A 
ATOM     21  C   UNL     1      -3.800  -2.566  25.040  0.00  0.00    +0.000 A 
ENDBRANCH  12  14
ENDBRANCH   3  12
ENDBRANCH  13   8
TORSDOF 7
ENDMDL
