MODEL 1
REMARK VINA RESULT:       5.7      0.000      0.000
REMARK  Name = 26741937
REMARK  8 active torsions:
REMARK  status: ('A' for Active; 'I' for Inactive)
REMARK    1  A    between atoms: O_1  and  C_9
REMARK    2  A    between atoms: O_4  and  C_23
REMARK    3  A    between atoms: O_4  and  C_29
REMARK    4  A    between atoms: N_6  and  C_8
REMARK    5  A    between atoms: N_7  and  C_17
REMARK    6  A    between atoms: C_15  and  C_16
REMARK    7  A    between atoms: C_17  and  C_20
REMARK    8  A    between atoms: C_29  and  C_30
REMARK                            x       y       z     vdW  Elec       q    Type
REMARK                         _______ _______ _______ _____ _____    ______ ____
ROOT
ATOM      2  O   UNL     1      -0.846  -0.306  25.182  0.00  0.00    -0.253 OA
ATOM      5  N   UNL     1      -1.043  -2.572  24.716  0.00  0.00    -0.284 N 
ATOM      7  N   UNL     1       0.415  -1.187  23.475  0.00  0.00    -0.295 N 
ATOM      8  C   UNL     1      -3.508  -2.496  25.170  0.00  0.00    +0.119 C 
ATOM      9  C   UNL     1      -3.777  -2.918  23.713  0.00  0.00    +0.136 C 
ATOM     10  C   UNL     1      -3.114  -4.226  23.265  0.00  0.00    +0.035 C 
ATOM     11  C   UNL     1      -2.096  -2.755  25.714  0.00  0.00    +0.134 C 
ATOM     12  C   UNL     1      -1.662  -4.047  22.813  0.00  0.00    +0.022 C 
ATOM     13  C   UNL     1      -0.688  -3.772  23.952  0.00  0.00    +0.109 C 
ATOM     14  C   UNL     1      -0.511  -1.285  24.508  0.00  0.00    +0.303 C 
ATOM     38  H   UNL     1       0.589  -1.967  22.856  0.00  0.00    +0.151 HD
ENDROOT
BRANCH   8   6
ATOM      3  O   UNL     1      -4.036  -0.618  23.061  0.00  0.00    -0.270 OA
ATOM      6  N   UNL     1      -3.850  -1.093  25.323  0.00  0.00    -0.305 N 
ATOM     15  C   UNL     1      -4.086  -0.269  24.237  0.00  0.00    +0.244 C 
ATOM     36  H   UNL     1      -3.899  -0.732  26.269  0.00  0.00    +0.149 HD
BRANCH  15  16
ATOM     16  C   UNL     1      -4.397   1.148  24.561  0.00  0.00    +0.037 A 
ATOM     18  C   UNL     1      -3.917   2.171  23.744  0.00  0.00    +0.016 A 
ATOM     19  C   UNL     1      -5.168   1.454  25.683  0.00  0.00    +0.016 A 
ATOM     21  C   UNL     1      -4.208   3.501  24.048  0.00  0.00    +0.046 A 
ATOM     22  C   UNL     1      -5.458   2.784  25.988  0.00  0.00    +0.046 A 
ATOM     23  C   UNL     1      -4.978   3.807  25.170  0.00  0.00    +0.121 A 
BRANCH  23   4
ATOM      4  O   UNL     1      -5.261   5.105  25.467  0.00  0.00    -0.487 OA
BRANCH   4  29
ATOM     29  C   UNL     1      -4.232   5.866  26.099  0.00  0.00    +0.264 C 
BRANCH  29  30
ATOM     30  C   UNL     1      -2.913   5.187  25.875  0.00  0.00    -0.010 A 
ATOM     31  C   UNL     1      -1.984   5.737  24.993  0.00  0.00    +0.007 A 
ATOM     32  C   UNL     1      -2.617   4.002  26.550  0.00  0.00    +0.007 A 
ATOM     33  C   UNL     1      -0.759   5.104  24.785  0.00  0.00    +0.000 A 
ATOM     34  C   UNL     1      -1.392   3.369  26.342  0.00  0.00    +0.000 A 
ATOM     35  C   UNL     1      -0.463   3.920  25.459  0.00  0.00    +0.000 A 
ENDBRANCH  29  30
ENDBRANCH   4  29
ENDBRANCH  23   4
ENDBRANCH  15  16
ENDBRANCH   8   6
BRANCH   9   1
ATOM      1  O   UNL     1      -5.197  -3.073  23.586  0.00  0.00    -0.390 OA
ATOM     37  H   UNL     1      -5.565  -3.162  24.482  0.00  0.00    +0.210 HD
ENDBRANCH   9   1
BRANCH   7  17
ATOM     17  C   UNL     1       1.045   0.066  23.123  0.00  0.00    +0.141 C 
BRANCH  17  20
ATOM     20  C   UNL     1       2.542  -0.013  23.212  0.00  0.00    -0.030 A 
ATOM     24  C   UNL     1       3.152  -1.174  23.690  0.00  0.00    +0.005 A 
ATOM     25  C   UNL     1       3.322   1.074  22.820  0.00  0.00    +0.005 A 
ATOM     26  C   UNL     1       4.542  -1.246  23.773  0.00  0.00    +0.000 A 
ATOM     27  C   UNL     1       4.712   1.001  22.903  0.00  0.00    +0.000 A 
ATOM     28  C   UNL     1       5.323  -0.159  23.379  0.00  0.00    +0.000 A 
ENDBRANCH  17  20
ENDBRANCH   7  17
TORSDOF 8
ENDMDL
MODEL 2
REMARK VINA RESULT:       7.1      2.295      6.740
REMARK  Name = 26741937
REMARK  8 active torsions:
REMARK  status: ('A' for Active; 'I' for Inactive)
REMARK    1  A    between atoms: O_1  and  C_9
REMARK    2  A    between atoms: O_4  and  C_23
REMARK    3  A    between atoms: O_4  and  C_29
REMARK    4  A    between atoms: N_6  and  C_8
REMARK    5  A    between atoms: N_7  and  C_17
REMARK    6  A    between atoms: C_15  and  C_16
REMARK    7  A    between atoms: C_17  and  C_20
REMARK    8  A    between atoms: C_29  and  C_30
REMARK                            x       y       z     vdW  Elec       q    Type
REMARK                         _______ _______ _______ _____ _____    ______ ____
ROOT
ATOM      2  O   UNL     1      -3.263   3.462  23.659  0.00  0.00    -0.253 OA
ATOM      5  N   UNL     1      -5.265   3.268  24.818  0.00  0.00    -0.284 N 
ATOM      7  N   UNL     1      -3.596   4.796  25.500  0.00  0.00    -0.295 N 
ATOM      8  C   UNL     1      -5.276   0.785  24.469  0.00  0.00    +0.119 C 
ATOM      9  C   UNL     1      -5.217   0.583  25.995  0.00  0.00    +0.136 C 
ATOM     10  C   UNL     1      -6.335   1.254  26.801  0.00  0.00    +0.035 C 
ATOM     11  C   UNL     1      -5.725   2.167  23.974  0.00  0.00    +0.134 C 
ATOM     12  C   UNL     1      -6.058   2.728  27.111  0.00  0.00    +0.022 C 
ATOM     13  C   UNL     1      -6.175   3.648  25.904  0.00  0.00    +0.109 C 
ATOM     14  C   UNL     1      -3.991   3.821  24.591  0.00  0.00    +0.303 C 
ATOM     38  H   UNL     1      -4.148   4.993  26.324  0.00  0.00    +0.151 HD
ENDROOT
BRANCH   8   6
ATOM      3  O   UNL     1      -2.751   0.771  25.837  0.00  0.00    -0.270 OA
ATOM      6  N   UNL     1      -3.984   0.449  23.899  0.00  0.00    -0.305 N 
ATOM     15  C   UNL     1      -2.820   0.473  24.647  0.00  0.00    +0.244 C 
ATOM     36  H   UNL     1      -3.964   0.202  22.916  0.00  0.00    +0.149 HD
BRANCH  15  16
ATOM     16  C   UNL     1      -1.576   0.130  23.911  0.00  0.00    +0.037 A 
ATOM     18  C   UNL     1      -0.685  -0.802  24.443  0.00  0.00    +0.016 A 
ATOM     19  C   UNL     1      -1.297   0.743  22.688  0.00  0.00    +0.016 A 
ATOM     21  C   UNL     1       0.483  -1.123  23.753  0.00  0.00    +0.046 A 
ATOM     22  C   UNL     1      -0.128   0.422  21.998  0.00  0.00    +0.046 A 
ATOM     23  C   UNL     1       0.762  -0.511  22.531  0.00  0.00    +0.121 A 
BRANCH  23   4
ATOM      4  O   UNL     1       1.903  -0.824  21.857  0.00  0.00    -0.487 OA
BRANCH   4  29
ATOM     29  C   UNL     1       2.892   0.199  21.746  0.00  0.00    +0.264 C 
BRANCH  29  30
ATOM     30  C   UNL     1       3.967  -0.047  22.763  0.00  0.00    -0.010 A 
ATOM     31  C   UNL     1       4.807   0.994  23.157  0.00  0.00    +0.007 A 
ATOM     32  C   UNL     1       4.127  -1.318  23.314  0.00  0.00    +0.007 A 
ATOM     33  C   UNL     1       5.807   0.765  24.103  0.00  0.00    +0.000 A 
ATOM     34  C   UNL     1       5.127  -1.548  24.259  0.00  0.00    +0.000 A 
ATOM     35  C   UNL     1       5.967  -0.506  24.654  0.00  0.00    +0.000 A 
ENDBRANCH  29  30
ENDBRANCH   4  29
ENDBRANCH  23   4
ENDBRANCH  15  16
ENDBRANCH   8   6
BRANCH   9   1
ATOM      1  O   UNL     1      -5.291  -0.831  26.225  0.00  0.00    -0.390 OA
ATOM     37  H   UNL     1      -5.211  -0.978  27.183  0.00  0.00    +0.210 HD
ENDBRANCH   9   1
BRANCH   7  17
ATOM     17  C   UNL     1      -2.311   5.453  25.416  0.00  0.00    +0.141 C 
BRANCH  17  20
ATOM     20  C   UNL     1      -1.194   4.477  25.186  0.00  0.00    -0.030 A 
ATOM     24  C   UNL     1      -0.906   3.508  26.148  0.00  0.00    +0.005 A 
ATOM     25  C   UNL     1      -0.444   4.538  24.012  0.00  0.00    +0.005 A 
ATOM     26  C   UNL     1       0.132   2.601  25.934  0.00  0.00    +0.000 A 
ATOM     27  C   UNL     1       0.593   3.631  23.799  0.00  0.00    +0.000 A 
ATOM     28  C   UNL     1       0.881   2.662  24.759  0.00  0.00    +0.000 A 
ENDBRANCH  17  20
ENDBRANCH   7  17
TORSDOF 8
ENDMDL
MODEL 3
REMARK VINA RESULT:       7.6      1.787      5.630
REMARK  Name = 26741937
REMARK  8 active torsions:
REMARK  status: ('A' for Active; 'I' for Inactive)
REMARK    1  A    between atoms: O_1  and  C_9
REMARK    2  A    between atoms: O_4  and  C_23
REMARK    3  A    between atoms: O_4  and  C_29
REMARK    4  A    between atoms: N_6  and  C_8
REMARK    5  A    between atoms: N_7  and  C_17
REMARK    6  A    between atoms: C_15  and  C_16
REMARK    7  A    between atoms: C_17  and  C_20
REMARK    8  A    between atoms: C_29  and  C_30
REMARK                            x       y       z     vdW  Elec       q    Type
REMARK                         _______ _______ _______ _____ _____    ______ ____
ROOT
ATOM      2  O   UNL     1      -0.368  -0.516  23.911  0.00  0.00    -0.253 OA
ATOM      5  N   UNL     1       1.686  -1.136  23.024  0.00  0.00    -0.284 N 
ATOM      7  N   UNL     1       0.849  -2.136  24.994  0.00  0.00    -0.295 N 
ATOM      8  C   UNL     1       2.174   1.239  22.380  0.00  0.00    +0.119 C 
ATOM      9  C   UNL     1       3.397   1.228  23.316  0.00  0.00    +0.136 C 
ATOM     10  C   UNL     1       4.431   0.128  23.050  0.00  0.00    +0.035 C 
ATOM     11  C   UNL     1       1.610  -0.128  21.967  0.00  0.00    +0.134 C 
ATOM     12  C   UNL     1       4.076  -1.210  23.705  0.00  0.00    +0.022 C 
ATOM     13  C   UNL     1       2.915  -1.937  23.039  0.00  0.00    +0.109 C 
ATOM     14  C   UNL     1       0.648  -1.217  23.971  0.00  0.00    +0.303 C 
ATOM     38  H   UNL     1       1.735  -2.614  25.098  0.00  0.00    +0.151 HD
ENDROOT
BRANCH   8   6
ATOM      3  O   UNL     1       1.597   1.485  25.183  0.00  0.00    -0.270 OA
ATOM      6  N   UNL     1       1.128   2.045  22.982  0.00  0.00    -0.305 N 
ATOM     15  C   UNL     1       0.931   2.095  24.351  0.00  0.00    +0.244 C 
ATOM     36  H   UNL     1       0.531   2.570  22.353  0.00  0.00    +0.149 HD
BRANCH  15  16
ATOM     16  C   UNL     1      -0.198   2.946  24.808  0.00  0.00    +0.037 A 
ATOM     18  C   UNL     1      -0.376   4.219  24.266  0.00  0.00    +0.016 A 
ATOM     19  C   UNL     1      -1.080   2.472  25.780  0.00  0.00    +0.016 A 
ATOM     21  C   UNL     1      -1.436   5.018  24.696  0.00  0.00    +0.046 A 
ATOM     22  C   UNL     1      -2.139   3.271  26.210  0.00  0.00    +0.046 A 
ATOM     23  C   UNL     1      -2.316   4.544  25.668  0.00  0.00    +0.121 A 
BRANCH  23   4
ATOM      4  O   UNL     1      -3.350   5.324  26.088  0.00  0.00    -0.487 OA
BRANCH   4  29
ATOM     29  C   UNL     1      -4.569   5.239  25.350  0.00  0.00    +0.264 C 
BRANCH  29  30
ATOM     30  C   UNL     1      -4.908   3.794  25.131  0.00  0.00    -0.010 A 
ATOM     31  C   UNL     1      -4.389   3.114  24.030  0.00  0.00    +0.007 A 
ATOM     32  C   UNL     1      -5.743   3.130  26.029  0.00  0.00    +0.007 A 
ATOM     33  C   UNL     1      -4.705   1.770  23.826  0.00  0.00    +0.000 A 
ATOM     34  C   UNL     1      -6.060   1.787  25.826  0.00  0.00    +0.000 A 
ATOM     35  C   UNL     1      -5.541   1.107  24.724  0.00  0.00    +0.000 A 
ENDBRANCH  29  30
ENDBRANCH   4  29
ENDBRANCH  23   4
ENDBRANCH  15  16
ENDBRANCH   8   6
BRANCH   9   1
ATOM      1  O   UNL     1       4.047   2.496  23.157  0.00  0.00    -0.390 OA
ATOM     37  H   UNL     1       4.920   2.332  22.760  0.00  0.00    +0.210 HD
ENDBRANCH   9   1
BRANCH   7  17
ATOM     17  C   UNL     1      -0.115  -2.332  26.054  0.00  0.00    +0.141 C 
BRANCH  17  20
ATOM     20  C   UNL     1      -1.525  -2.166  25.568  0.00  0.00    -0.030 A 
ATOM     24  C   UNL     1      -2.016  -2.991  24.556  0.00  0.00    +0.005 A 
ATOM     25  C   UNL     1      -2.345  -1.186  26.128  0.00  0.00    +0.005 A 
ATOM     26  C   UNL     1      -3.327  -2.836  24.105  0.00  0.00    +0.000 A 
ATOM     27  C   UNL     1      -3.655  -1.031  25.677  0.00  0.00    +0.000 A 
ATOM     28  C   UNL     1      -4.147  -1.856  24.665  0.00  0.00    +0.000 A 
ENDBRANCH  17  20
ENDBRANCH   7  17
TORSDOF 8
ENDMDL
MODEL 4
REMARK VINA RESULT:       8.4      2.222      7.673
REMARK  Name = 26741937
REMARK  8 active torsions:
REMARK  status: ('A' for Active; 'I' for Inactive)
REMARK    1  A    between atoms: O_1  and  C_9
REMARK    2  A    between atoms: O_4  and  C_23
REMARK    3  A    between atoms: O_4  and  C_29
REMARK    4  A    between atoms: N_6  and  C_8
REMARK    5  A    between atoms: N_7  and  C_17
REMARK    6  A    between atoms: C_15  and  C_16
REMARK    7  A    between atoms: C_17  and  C_20
REMARK    8  A    between atoms: C_29  and  C_30
REMARK                            x       y       z     vdW  Elec       q    Type
REMARK                         _______ _______ _______ _____ _____    ______ ____
ROOT
ATOM      2  O   UNL     1      -3.491   0.878  25.357  0.00  0.00    -0.253 OA
ATOM      5  N   UNL     1      -4.652   2.757  26.073  0.00  0.00    -0.284 N 
ATOM      7  N   UNL     1      -5.774   0.921  25.096  0.00  0.00    -0.295 N 
ATOM      8  C   UNL     1      -2.803   4.255  25.284  0.00  0.00    +0.119 C 
ATOM      9  C   UNL     1      -3.782   4.924  24.300  0.00  0.00    +0.136 C 
ATOM     10  C   UNL     1      -5.048   5.523  24.923  0.00  0.00    +0.035 C 
ATOM     11  C   UNL     1      -3.424   3.459  26.441  0.00  0.00    +0.134 C 
ATOM     12  C   UNL     1      -6.163   4.495  25.139  0.00  0.00    +0.022 C 
ATOM     13  C   UNL     1      -5.892   3.515  26.272  0.00  0.00    +0.109 C 
ATOM     14  C   UNL     1      -4.564   1.473  25.502  0.00  0.00    +0.303 C 
ATOM     38  H   UNL     1      -6.625   1.466  25.109  0.00  0.00    +0.151 HD
ENDROOT
BRANCH   8   6
ATOM      3  O   UNL     1      -0.929   2.371  26.374  0.00  0.00    -0.270 OA
ATOM      6  N   UNL     1      -1.888   3.411  24.536  0.00  0.00    -0.305 N 
ATOM     15  C   UNL     1      -1.020   2.532  25.160  0.00  0.00    +0.244 C 
ATOM     36  H   UNL     1      -1.901   3.498  23.527  0.00  0.00    +0.149 HD
BRANCH  15  16
ATOM     16  C   UNL     1      -0.129   1.759  24.257  0.00  0.00    +0.037 A 
ATOM     18  C   UNL     1       1.111   2.280  23.887  0.00  0.00    +0.016 A 
ATOM     19  C   UNL     1      -0.533   0.512  23.778  0.00  0.00    +0.016 A 
ATOM     21  C   UNL     1       1.947   1.554  23.038  0.00  0.00    +0.046 A 
ATOM     22  C   UNL     1       0.302  -0.213  22.928  0.00  0.00    +0.046 A 
ATOM     23  C   UNL     1       1.543   0.309  22.558  0.00  0.00    +0.121 A 
BRANCH  23   4
ATOM      4  O   UNL     1       2.358  -0.399  21.729  0.00  0.00    -0.487 OA
BRANCH   4  29
ATOM     29  C   UNL     1       3.669   0.122  21.508  0.00  0.00    +0.264 C 
BRANCH  29  30
ATOM     30  C   UNL     1       4.500  -0.105  22.736  0.00  0.00    -0.010 A 
ATOM     31  C   UNL     1       4.533  -1.364  23.334  0.00  0.00    +0.007 A 
ATOM     32  C   UNL     1       5.240   0.944  23.281  0.00  0.00    +0.007 A 
ATOM     33  C   UNL     1       5.305  -1.575  24.476  0.00  0.00    +0.000 A 
ATOM     34  C   UNL     1       6.012   0.734  24.423  0.00  0.00    +0.000 A 
ATOM     35  C   UNL     1       6.044  -0.526  25.021  0.00  0.00    +0.000 A 
ENDBRANCH  29  30
ENDBRANCH   4  29
ENDBRANCH  23   4
ENDBRANCH  15  16
ENDBRANCH   8   6
BRANCH   9   1
ATOM      1  O   UNL     1      -3.058   5.983  23.658  0.00  0.00    -0.390 OA
ATOM     37  H   UNL     1      -3.028   6.734  24.275  0.00  0.00    +0.210 HD
ENDBRANCH   9   1
BRANCH   7  17
ATOM     17  C   UNL     1      -5.855  -0.384  24.478  0.00  0.00    +0.141 C 
BRANCH  17  20
ATOM     20  C   UNL     1      -4.585  -1.166  24.647  0.00  0.00    -0.030 A 
ATOM     24  C   UNL     1      -4.012  -1.811  23.551  0.00  0.00    +0.005 A 
ATOM     25  C   UNL     1      -3.980  -1.251  25.901  0.00  0.00    +0.005 A 
ATOM     26  C   UNL     1      -2.832  -2.538  23.709  0.00  0.00    +0.000 A 
ATOM     27  C   UNL     1      -2.801  -1.978  26.058  0.00  0.00    +0.000 A 
ATOM     28  C   UNL     1      -2.226  -2.622  24.963  0.00  0.00    +0.000 A 
ENDBRANCH  17  20
ENDBRANCH   7  17
TORSDOF 8
ENDMDL
