MODEL 1
REMARK VINA RESULT:      11.2      0.000      0.000
REMARK  Name = 45783312
REMARK  6 active torsions:
REMARK  status: ('A' for Active; 'I' for Inactive)
REMARK    1  A    between atoms: N_3  and  C_15
REMARK    2  A    between atoms: C_10  and  C_20
REMARK    3  A    between atoms: C_14  and  C_23
REMARK    4  A    between atoms: C_15  and  C_21
REMARK    5  A    between atoms: C_24  and  C_26
REMARK    6  A    between atoms: C_33  and  C_34
REMARK                            x       y       z     vdW  Elec       q    Type
REMARK                         _______ _______ _______ _____ _____    ______ ____
ROOT
ATOM      1  O   UNL     1      -5.398   0.494  24.845  0.00  0.00    -0.336 OA
ATOM      5  N   UNL     1      -3.299   0.991  25.447  0.00  0.00    -0.190 NA
ATOM      6  N   UNL     1      -4.588  -0.506  24.293  0.00  0.00    -0.056 NA
ATOM     20  C   UNL     1      -4.560   1.334  25.508  0.00  0.00    +0.245 A 
ATOM     24  C   UNL     1      -3.365  -0.144  24.691  0.00  0.00    +0.202 A 
ENDROOT
BRANCH  24  26
ATOM      4  N   UNL     1       1.233  -0.323  23.233  0.00  0.00    -0.315 N 
ATOM      7  N   UNL     1       0.102  -2.352  23.692  0.00  0.00    -0.240 NA
ATOM     14  C   UNL     1       3.649   1.031  22.360  0.00  0.00    +0.078 C 
ATOM     16  C   UNL     1       2.690   1.661  23.367  0.00  0.00    +0.031 C 
ATOM     17  C   UNL     1       2.936   0.002  21.484  0.00  0.00    +0.031 C 
ATOM     18  C   UNL     1       1.863   0.635  24.146  0.00  0.00    +0.107 C 
ATOM     19  C   UNL     1       2.130  -1.011  22.296  0.00  0.00    +0.107 C 
ATOM     22  C   UNL     1       0.077  -1.001  23.635  0.00  0.00    +0.122 A 
ATOM     25  C   UNL     1      -1.032  -0.233  23.951  0.00  0.00    +0.055 A 
ATOM     26  C   UNL     1      -2.188  -0.893  24.351  0.00  0.00    +0.027 A 
ATOM     29  C   UNL     1      -2.201  -2.282  24.421  0.00  0.00    +0.031 A 
ATOM     30  C   UNL     1      -1.040  -2.959  24.084  0.00  0.00    +0.113 A 
BRANCH  14  23
ATOM      2  O   UNL     1       5.608  -0.339  22.452  0.00  0.00    -0.276 OA
ATOM      8  N   UNL     1       4.948   0.750  24.369  0.00  0.00    -0.329 N 
ATOM     23  C   UNL     1       4.834   0.412  23.042  0.00  0.00    +0.214 C 
ATOM     35  H   UNL     1       5.714   0.391  24.930  0.00  0.00    +0.145 HD
ATOM     36  H   UNL     1       4.265   1.321  24.855  0.00  0.00    +0.145 HD
ENDBRANCH  14  23
ENDBRANCH  24  26
BRANCH  20  10
ATOM      3  N   UNL     1      -4.681   3.811  25.717  0.00  0.00    -0.287 NA
ATOM     10  C   UNL     1      -5.201   2.516  26.203  0.00  0.00    +0.146 C 
ATOM     11  C   UNL     1      -6.721   2.592  25.968  0.00  0.00    +0.030 C 
ATOM     12  C   UNL     1      -6.967   3.986  25.406  0.00  0.00    +0.017 C 
ATOM     13  C   UNL     1      -5.766   4.779  25.879  0.00  0.00    +0.085 C 
BRANCH   3  15
ATOM     15  C   UNL     1      -3.464   4.233  26.398  0.00  0.00    +0.120 C 
BRANCH  15  21
ATOM     21  C   UNL     1      -2.342   4.494  25.428  0.00  0.00    -0.033 A 
ATOM     27  C   UNL     1      -1.652   3.426  24.854  0.00  0.00    +0.006 A 
ATOM     28  C   UNL     1      -1.992   5.806  25.105  0.00  0.00    +0.006 A 
ATOM     31  C   UNL     1      -0.613   3.668  23.957  0.00  0.00    +0.019 A 
ATOM     32  C   UNL     1      -0.952   6.047  24.207  0.00  0.00    +0.019 A 
ATOM     33  C   UNL     1      -0.263   4.979  23.633  0.00  0.00    +0.052 A 
BRANCH  33  34
ATOM      9  N   UNL     1       1.668   5.428  21.966  0.00  0.00    -0.191 NA
ATOM     34  C   UNL     1       0.802   5.228  22.713  0.00  0.00    +0.099 C 
ENDBRANCH  33  34
ENDBRANCH  15  21
ENDBRANCH   3  15
ENDBRANCH  20  10
TORSDOF 6
ENDMDL
MODEL 2
REMARK VINA RESULT:      11.2      1.353      1.864
REMARK  Name = 45783312
REMARK  6 active torsions:
REMARK  status: ('A' for Active; 'I' for Inactive)
REMARK    1  A    between atoms: N_3  and  C_15
REMARK    2  A    between atoms: C_10  and  C_20
REMARK    3  A    between atoms: C_14  and  C_23
REMARK    4  A    between atoms: C_15  and  C_21
REMARK    5  A    between atoms: C_24  and  C_26
REMARK    6  A    between atoms: C_33  and  C_34
REMARK                            x       y       z     vdW  Elec       q    Type
REMARK                         _______ _______ _______ _____ _____    ______ ____
ROOT
ATOM      1  O   UNL     1      -5.211   0.861  24.786  0.00  0.00    -0.336 OA
ATOM      5  N   UNL     1      -3.072   1.424  25.140  0.00  0.00    -0.190 NA
ATOM      6  N   UNL     1      -4.445  -0.227  24.350  0.00  0.00    -0.056 NA
ATOM     20  C   UNL     1      -4.326   1.788  25.237  0.00  0.00    +0.245 A 
ATOM     24  C   UNL     1      -3.195   0.181  24.590  0.00  0.00    +0.202 A 
ENDROOT
BRANCH  24  26
ATOM      4  N   UNL     1       1.414  -0.242  23.220  0.00  0.00    -0.315 N 
ATOM      7  N   UNL     1       0.188  -2.205  23.718  0.00  0.00    -0.240 NA
ATOM     14  C   UNL     1       3.901   0.979  22.349  0.00  0.00    +0.078 C 
ATOM     16  C   UNL     1       2.954   1.680  23.321  0.00  0.00    +0.031 C 
ATOM     17  C   UNL     1       3.158  -0.044  21.492  0.00  0.00    +0.031 C 
ATOM     18  C   UNL     1       2.071   0.715  24.115  0.00  0.00    +0.107 C 
ATOM     19  C   UNL     1       2.295  -0.996  22.319  0.00  0.00    +0.107 C 
ATOM     22  C   UNL     1       0.223  -0.857  23.621  0.00  0.00    +0.122 A 
ATOM     25  C   UNL     1      -0.856  -0.032  23.895  0.00  0.00    +0.055 A 
ATOM     26  C   UNL     1      -2.046  -0.628  24.294  0.00  0.00    +0.027 A 
ATOM     29  C   UNL     1      -2.121  -2.012  24.405  0.00  0.00    +0.031 A 
ATOM     30  C   UNL     1      -0.986  -2.750  24.108  0.00  0.00    +0.113 A 
BRANCH  14  23
ATOM      2  O   UNL     1       5.890  -0.343  22.483  0.00  0.00    -0.276 OA
ATOM      8  N   UNL     1       5.041   0.548  24.427  0.00  0.00    -0.329 N 
ATOM     23  C   UNL     1       5.046   0.330  23.070  0.00  0.00    +0.214 C 
ATOM     35  H   UNL     1       5.771   0.158  25.016  0.00  0.00    +0.145 HD
ATOM     36  H   UNL     1       4.303   1.054  24.904  0.00  0.00    +0.145 HD
ENDBRANCH  14  23
ENDBRANCH  24  26
BRANCH  20  10
ATOM      3  N   UNL     1      -5.097   4.097  24.718  0.00  0.00    -0.287 NA
ATOM     10  C   UNL     1      -4.913   3.077  25.771  0.00  0.00    +0.146 C 
ATOM     11  C   UNL     1      -6.314   2.886  26.379  0.00  0.00    +0.030 C 
ATOM     12  C   UNL     1      -7.205   3.881  25.647  0.00  0.00    +0.017 C 
ATOM     13  C   UNL     1      -6.230   4.922  25.135  0.00  0.00    +0.085 C 
BRANCH   3  15
ATOM     15  C   UNL     1      -3.900   4.892  24.473  0.00  0.00    +0.120 C 
BRANCH  15  21
ATOM     21  C   UNL     1      -2.700   4.335  25.191  0.00  0.00    -0.033 A 
ATOM     27  C   UNL     1      -2.736   4.157  26.575  0.00  0.00    +0.006 A 
ATOM     28  C   UNL     1      -1.552   3.998  24.473  0.00  0.00    +0.006 A 
ATOM     31  C   UNL     1      -1.624   3.642  27.240  0.00  0.00    +0.019 A 
ATOM     32  C   UNL     1      -0.441   3.482  25.140  0.00  0.00    +0.019 A 
ATOM     33  C   UNL     1      -0.476   3.304  26.523  0.00  0.00    +0.052 A 
BRANCH  33  34
ATOM      9  N   UNL     1       1.588   2.348  27.760  0.00  0.00    -0.191 NA
ATOM     34  C   UNL     1       0.663   2.776  27.204  0.00  0.00    +0.099 C 
ENDBRANCH  33  34
ENDBRANCH  15  21
ENDBRANCH   3  15
ENDBRANCH  20  10
TORSDOF 6
ENDMDL
MODEL 3
REMARK VINA RESULT:      12.3      2.283      4.268
REMARK  Name = 45783312
REMARK  6 active torsions:
REMARK  status: ('A' for Active; 'I' for Inactive)
REMARK    1  A    between atoms: N_3  and  C_15
REMARK    2  A    between atoms: C_10  and  C_20
REMARK    3  A    between atoms: C_14  and  C_23
REMARK    4  A    between atoms: C_15  and  C_21
REMARK    5  A    between atoms: C_24  and  C_26
REMARK    6  A    between atoms: C_33  and  C_34
REMARK                            x       y       z     vdW  Elec       q    Type
REMARK                         _______ _______ _______ _____ _____    ______ ____
ROOT
ATOM      1  O   UNL     1      -2.251   2.813  25.358  0.00  0.00    -0.336 OA
ATOM      5  N   UNL     1      -2.600   1.805  23.389  0.00  0.00    -0.190 NA
ATOM      6  N   UNL     1      -1.033   2.220  25.003  0.00  0.00    -0.056 NA
ATOM     20  C   UNL     1      -3.118   2.521  24.354  0.00  0.00    +0.245 A 
ATOM     24  C   UNL     1      -1.319   1.645  23.832  0.00  0.00    +0.202 A 
ENDROOT
BRANCH  24  26
ATOM      4  N   UNL     1       3.256   0.378  22.952  0.00  0.00    -0.315 N 
ATOM      7  N   UNL     1       1.538  -0.544  21.607  0.00  0.00    -0.240 NA
ATOM     14  C   UNL     1       6.087   0.598  23.557  0.00  0.00    +0.078 C 
ATOM     16  C   UNL     1       5.018   0.716  24.642  0.00  0.00    +0.031 C 
ATOM     17  C   UNL     1       5.523   0.952  22.183  0.00  0.00    +0.031 C 
ATOM     18  C   UNL     1       3.713  -0.002  24.292  0.00  0.00    +0.107 C 
ATOM     19  C   UNL     1       4.226   0.208  21.864  0.00  0.00    +0.107 C 
ATOM     22  C   UNL     1       1.899   0.266  22.629  0.00  0.00    +0.122 A 
ATOM     25  C   UNL     1       1.003   1.003  23.387  0.00  0.00    +0.055 A 
ATOM     26  C   UNL     1      -0.348   0.903  23.077  0.00  0.00    +0.027 A 
ATOM     29  C   UNL     1      -0.758   0.080  22.033  0.00  0.00    +0.031 A 
ATOM     30  C   UNL     1       0.216  -0.615  21.334  0.00  0.00    +0.113 A 
BRANCH  14  23
ATOM      2  O   UNL     1       7.626  -1.061  22.783  0.00  0.00    -0.276 OA
ATOM      8  N   UNL     1       6.124  -1.649  24.423  0.00  0.00    -0.329 N 
ATOM     23  C   UNL     1       6.703  -0.770  23.539  0.00  0.00    +0.214 C 
ATOM     35  H   UNL     1       6.462  -2.604  24.498  0.00  0.00    +0.145 HD
ATOM     36  H   UNL     1       5.322  -1.411  24.996  0.00  0.00    +0.145 HD
ENDBRANCH  14  23
ENDBRANCH  24  26
BRANCH  20  10
ATOM      3  N   UNL     1      -5.187   2.586  25.735  0.00  0.00    -0.287 NA
ATOM     10  C   UNL     1      -4.526   3.058  24.502  0.00  0.00    +0.146 C 
ATOM     11  C   UNL     1      -4.570   4.594  24.598  0.00  0.00    +0.030 C 
ATOM     12  C   UNL     1      -5.327   4.890  25.886  0.00  0.00    +0.017 C 
ATOM     13  C   UNL     1      -6.135   3.631  26.122  0.00  0.00    +0.085 C 
BRANCH   3  15
ATOM     15  C   UNL     1      -5.834   1.289  25.580  0.00  0.00    +0.120 C 
BRANCH  15  21
ATOM     21  C   UNL     1      -4.847   0.209  25.229  0.00  0.00    -0.033 A 
ATOM     27  C   UNL     1      -3.823  -0.118  26.119  0.00  0.00    +0.006 A 
ATOM     28  C   UNL     1      -4.955  -0.466  24.012  0.00  0.00    +0.006 A 
ATOM     31  C   UNL     1      -2.909  -1.118  25.793  0.00  0.00    +0.019 A 
ATOM     32  C   UNL     1      -4.040  -1.467  23.686  0.00  0.00    +0.019 A 
ATOM     33  C   UNL     1      -3.017  -1.793  24.576  0.00  0.00    +0.052 A 
BRANCH  33  34
ATOM      9  N   UNL     1      -1.317  -3.650  23.971  0.00  0.00    -0.191 NA
ATOM     34  C   UNL     1      -2.080  -2.818  24.242  0.00  0.00    +0.099 C 
ENDBRANCH  33  34
ENDBRANCH  15  21
ENDBRANCH   3  15
ENDBRANCH  20  10
TORSDOF 6
ENDMDL
MODEL 4
REMARK VINA RESULT:      13.4      1.822      7.529
REMARK  Name = 45783312
REMARK  6 active torsions:
REMARK  status: ('A' for Active; 'I' for Inactive)
REMARK    1  A    between atoms: N_3  and  C_15
REMARK    2  A    between atoms: C_10  and  C_20
REMARK    3  A    between atoms: C_14  and  C_23
REMARK    4  A    between atoms: C_15  and  C_21
REMARK    5  A    between atoms: C_24  and  C_26
REMARK    6  A    between atoms: C_33  and  C_34
REMARK                            x       y       z     vdW  Elec       q    Type
REMARK                         _______ _______ _______ _____ _____    ______ ____
ROOT
ATOM      1  O   UNL     1       1.826  -2.218  24.753  0.00  0.00    -0.336 OA
ATOM      5  N   UNL     1       0.518  -0.831  23.578  0.00  0.00    -0.190 NA
ATOM      6  N   UNL     1       0.513  -2.486  25.158  0.00  0.00    -0.056 NA
ATOM     20  C   UNL     1       1.740  -1.232  23.821  0.00  0.00    +0.245 A 
ATOM     24  C   UNL     1      -0.200  -1.629  24.422  0.00  0.00    +0.202 A 
ENDROOT
BRANCH  24  26
ATOM      4  N   UNL     1      -4.219   0.885  25.333  0.00  0.00    -0.315 N 
ATOM      7  N   UNL     1      -4.417  -1.377  24.661  0.00  0.00    -0.240 NA
ATOM     14  C   UNL     1      -5.510   3.351  26.161  0.00  0.00    +0.078 C 
ATOM     16  C   UNL     1      -4.197   3.349  25.382  0.00  0.00    +0.031 C 
ATOM     17  C   UNL     1      -5.705   2.041  26.922  0.00  0.00    +0.031 C 
ATOM     18  C   UNL     1      -3.993   2.092  24.533  0.00  0.00    +0.107 C 
ATOM     19  C   UNL     1      -5.504   0.808  26.040  0.00  0.00    +0.107 C 
ATOM     22  C   UNL     1      -3.622  -0.320  24.947  0.00  0.00    +0.122 A 
ATOM     25  C   UNL     1      -2.239  -0.352  24.884  0.00  0.00    +0.055 A 
ATOM     26  C   UNL     1      -1.631  -1.542  24.504  0.00  0.00    +0.027 A 
ATOM     29  C   UNL     1      -2.415  -2.651  24.201  0.00  0.00    +0.031 A 
ATOM     30  C   UNL     1      -3.791  -2.518  24.295  0.00  0.00    +0.113 A 
BRANCH  14  23
ATOM      2  O   UNL     1      -7.292   2.715  24.699  0.00  0.00    -0.276 OA
ATOM      8  N   UNL     1      -6.980   4.954  25.126  0.00  0.00    -0.329 N 
ATOM     23  C   UNL     1      -6.682   3.619  25.263  0.00  0.00    +0.214 C 
ATOM     35  H   UNL     1      -7.755   5.253  24.543  0.00  0.00    +0.145 HD
ATOM     36  H   UNL     1      -6.426   5.691  25.549  0.00  0.00    +0.145 HD
ENDBRANCH  14  23
ENDBRANCH  24  26
BRANCH  20  10
ATOM      3  N   UNL     1       3.386   0.623  23.620  0.00  0.00    -0.287 NA
ATOM     10  C   UNL     1       3.044  -0.758  23.219  0.00  0.00    +0.146 C 
ATOM     11  C   UNL     1       4.250  -1.604  23.666  0.00  0.00    +0.030 C 
ATOM     12  C   UNL     1       5.241  -0.607  24.251  0.00  0.00    +0.017 C 
ATOM     13  C   UNL     1       4.847   0.707  23.609  0.00  0.00    +0.085 C 
BRANCH   3  15
ATOM     15  C   UNL     1       2.772   1.636  22.771  0.00  0.00    +0.120 C 
BRANCH  15  21
ATOM     21  C   UNL     1       1.654   2.356  23.477  0.00  0.00    -0.033 A 
ATOM     27  C   UNL     1       1.158   3.552  22.959  0.00  0.00    +0.006 A 
ATOM     28  C   UNL     1       1.116   1.827  24.650  0.00  0.00    +0.006 A 
ATOM     31  C   UNL     1       0.123   4.219  23.613  0.00  0.00    +0.019 A 
ATOM     32  C   UNL     1       0.080   2.494  25.304  0.00  0.00    +0.019 A 
ATOM     33  C   UNL     1      -0.417   3.690  24.786  0.00  0.00    +0.052 A 
BRANCH  33  34
ATOM      9  N   UNL     1      -2.338   4.930  26.002  0.00  0.00    -0.191 NA
ATOM     34  C   UNL     1      -1.477   4.374  25.456  0.00  0.00    +0.099 C 
ENDBRANCH  33  34
ENDBRANCH  15  21
ENDBRANCH   3  15
ENDBRANCH  20  10
TORSDOF 6
ENDMDL
MODEL 5
REMARK VINA RESULT:      14.2      2.150      4.113
REMARK  Name = 45783312
REMARK  6 active torsions:
REMARK  status: ('A' for Active; 'I' for Inactive)
REMARK    1  A    between atoms: N_3  and  C_15
REMARK    2  A    between atoms: C_10  and  C_20
REMARK    3  A    between atoms: C_14  and  C_23
REMARK    4  A    between atoms: C_15  and  C_21
REMARK    5  A    between atoms: C_24  and  C_26
REMARK    6  A    between atoms: C_33  and  C_34
REMARK                            x       y       z     vdW  Elec       q    Type
REMARK                         _______ _______ _______ _____ _____    ______ ____
ROOT
ATOM      1  O   UNL     1      -1.365  -1.755  25.776  0.00  0.00    -0.336 OA
ATOM      5  N   UNL     1      -1.593  -1.202  23.618  0.00  0.00    -0.190 NA
ATOM      6  N   UNL     1      -0.083  -1.421  25.322  0.00  0.00    -0.056 NA
ATOM     20  C   UNL     1      -2.194  -1.598  24.711  0.00  0.00    +0.245 A 
ATOM     24  C   UNL     1      -0.299  -1.107  24.042  0.00  0.00    +0.202 A 
ENDROOT
BRANCH  24  26
ATOM      4  N   UNL     1       4.349  -0.098  23.218  0.00  0.00    -0.315 N 
ATOM      7  N   UNL     1       2.804   0.108  21.435  0.00  0.00    -0.240 NA
ATOM     14  C   UNL     1       7.078   0.151  24.179  0.00  0.00    +0.078 C 
ATOM     16  C   UNL     1       6.115  -0.892  24.743  0.00  0.00    +0.031 C 
ATOM     17  C   UNL     1       6.322   1.332  23.573  0.00  0.00    +0.031 C 
ATOM     18  C   UNL     1       5.005  -1.288  23.767  0.00  0.00    +0.107 C 
ATOM     19  C   UNL     1       5.230   0.899  22.595  0.00  0.00    +0.107 C 
ATOM     22  C   UNL     1       3.040  -0.193  22.732  0.00  0.00    +0.122 A 
ATOM     25  C   UNL     1       2.060  -0.595  23.625  0.00  0.00    +0.055 A 
ATOM     26  C   UNL     1       0.755  -0.694  23.158  0.00  0.00    +0.027 A 
ATOM     29  C   UNL     1       0.472  -0.392  21.830  0.00  0.00    +0.031 A 
ATOM     30  C   UNL     1       1.523   0.002  21.017  0.00  0.00    +0.113 A 
BRANCH  14  23
ATOM      2  O   UNL     1       7.633  -1.270  22.338  0.00  0.00    -0.276 OA
ATOM      8  N   UNL     1       9.311  -0.017  23.292  0.00  0.00    -0.329 N 
ATOM     23  C   UNL     1       8.012  -0.452  23.172  0.00  0.00    +0.214 C 
ATOM     35  H   UNL     1      10.030  -0.357  22.661  0.00  0.00    +0.145 HD
ATOM     36  H   UNL     1       9.618   0.611  24.026  0.00  0.00    +0.145 HD
ENDBRANCH  14  23
ENDBRANCH  24  26
BRANCH  20  10
ATOM      3  N   UNL     1      -4.542  -0.799  24.514  0.00  0.00    -0.287 NA
ATOM     10  C   UNL     1      -3.658  -1.901  24.946  0.00  0.00    +0.146 C 
ATOM     11  C   UNL     1      -4.147  -3.127  24.154  0.00  0.00    +0.030 C 
ATOM     12  C   UNL     1      -5.344  -2.633  23.353  0.00  0.00    +0.017 C 
ATOM     13  C   UNL     1      -5.811  -1.415  24.124  0.00  0.00    +0.085 C 
BRANCH   3  15
ATOM     15  C   UNL     1      -4.721   0.227  25.534  0.00  0.00    +0.120 C 
BRANCH  15  21
ATOM     21  C   UNL     1      -3.810   1.404  25.311  0.00  0.00    -0.033 A 
ATOM     27  C   UNL     1      -2.453   1.304  25.621  0.00  0.00    +0.006 A 
ATOM     28  C   UNL     1      -4.322   2.595  24.794  0.00  0.00    +0.006 A 
ATOM     31  C   UNL     1      -1.609   2.394  25.414  0.00  0.00    +0.019 A 
ATOM     32  C   UNL     1      -3.477   3.685  24.588  0.00  0.00    +0.019 A 
ATOM     33  C   UNL     1      -2.121   3.585  24.897  0.00  0.00    +0.052 A 
BRANCH  33  34
ATOM      9  N   UNL     1      -0.552   5.610  24.516  0.00  0.00    -0.191 NA
ATOM     34  C   UNL     1      -1.255   4.702  24.686  0.00  0.00    +0.099 C 
ENDBRANCH  33  34
ENDBRANCH  15  21
ENDBRANCH   3  15
ENDBRANCH  20  10
TORSDOF 6
ENDMDL
MODEL 6
REMARK VINA RESULT:      14.3      2.108      3.028
REMARK  Name = 45783312
REMARK  6 active torsions:
REMARK  status: ('A' for Active; 'I' for Inactive)
REMARK    1  A    between atoms: N_3  and  C_15
REMARK    2  A    between atoms: C_10  and  C_20
REMARK    3  A    between atoms: C_14  and  C_23
REMARK    4  A    between atoms: C_15  and  C_21
REMARK    5  A    between atoms: C_24  and  C_26
REMARK    6  A    between atoms: C_33  and  C_34
REMARK                            x       y       z     vdW  Elec       q    Type
REMARK                         _______ _______ _______ _____ _____    ______ ____
ROOT
ATOM      1  O   UNL     1      -2.663  -0.295  25.662  0.00  0.00    -0.336 OA
ATOM      5  N   UNL     1      -2.226   1.063  23.935  0.00  0.00    -0.190 NA
ATOM      6  N   UNL     1      -1.530  -0.822  25.030  0.00  0.00    -0.056 NA
ATOM     20  C   UNL     1      -3.008   0.813  24.955  0.00  0.00    +0.245 A 
ATOM     24  C   UNL     1      -1.334   0.033  24.022  0.00  0.00    +0.202 A 
ENDROOT
BRANCH  24  26
ATOM      4  N   UNL     1       3.385  -0.059  23.010  0.00  0.00    -0.315 N 
ATOM      7  N   UNL     1       1.835  -0.396  21.252  0.00  0.00    -0.240 NA
ATOM     14  C   UNL     1       6.147   0.179  23.874  0.00  0.00    +0.078 C 
ATOM     16  C   UNL     1       5.062  -0.388  24.787  0.00  0.00    +0.031 C 
ATOM     17  C   UNL     1       5.551   1.095  22.807  0.00  0.00    +0.031 C 
ATOM     18  C   UNL     1       3.880  -0.993  24.026  0.00  0.00    +0.107 C 
ATOM     19  C   UNL     1       4.381   0.454  22.061  0.00  0.00    +0.107 C 
ATOM     22  C   UNL     1       2.062  -0.162  22.565  0.00  0.00    +0.122 A 
ATOM     25  C   UNL     1       1.061  -0.013  23.510  0.00  0.00    +0.055 A 
ATOM     26  C   UNL     1      -0.258  -0.112  23.082  0.00  0.00    +0.027 A 
ATOM     29  C   UNL     1      -0.532  -0.352  21.740  0.00  0.00    +0.031 A 
ATOM     30  C   UNL     1       0.541  -0.485  20.873  0.00  0.00    +0.113 A 
BRANCH  14  23
ATOM      2  O   UNL     1       6.527  -2.057  23.115  0.00  0.00    -0.276 OA
ATOM      8  N   UNL     1       8.210  -0.513  22.841  0.00  0.00    -0.329 N 
ATOM     23  C   UNL     1       6.957  -0.913  23.240  0.00  0.00    +0.214 C 
ATOM     35  H   UNL     1       8.846  -1.168  22.397  0.00  0.00    +0.145 HD
ATOM     36  H   UNL     1       8.573   0.420  23.008  0.00  0.00    +0.145 HD
ENDBRANCH  14  23
ENDBRANCH  24  26
BRANCH  20  10
ATOM      3  N   UNL     1      -4.590   2.691  24.549  0.00  0.00    -0.287 NA
ATOM     10  C   UNL     1      -4.221   1.575  25.444  0.00  0.00    +0.146 C 
ATOM     11  C   UNL     1      -5.484   0.699  25.517  0.00  0.00    +0.030 C 
ATOM     12  C   UNL     1      -6.526   1.432  24.683  0.00  0.00    +0.017 C 
ATOM     13  C   UNL     1      -6.036   2.866  24.681  0.00  0.00    +0.085 C 
BRANCH   3  15
ATOM     15  C   UNL     1      -3.860   3.920  24.834  0.00  0.00    +0.120 C 
BRANCH  15  21
ATOM     21  C   UNL     1      -2.555   3.649  25.533  0.00  0.00    -0.033 A 
ATOM     27  C   UNL     1      -2.541   3.366  26.899  0.00  0.00    +0.006 A 
ATOM     28  C   UNL     1      -1.360   3.680  24.814  0.00  0.00    +0.006 A 
ATOM     31  C   UNL     1      -1.332   3.115  27.546  0.00  0.00    +0.019 A 
ATOM     32  C   UNL     1      -0.150   3.429  25.463  0.00  0.00    +0.019 A 
ATOM     33  C   UNL     1      -0.136   3.146  26.828  0.00  0.00    +0.052 A 
BRANCH  33  34
ATOM      9  N   UNL     1       2.110   2.681  28.030  0.00  0.00    -0.191 NA
ATOM     34  C   UNL     1       1.103   2.889  27.492  0.00  0.00    +0.099 C 
ENDBRANCH  33  34
ENDBRANCH  15  21
ENDBRANCH   3  15
ENDBRANCH  20  10
TORSDOF 6
ENDMDL
MODEL 7
REMARK VINA RESULT:      14.4      1.642      2.651
REMARK  Name = 45783312
REMARK  6 active torsions:
REMARK  status: ('A' for Active; 'I' for Inactive)
REMARK    1  A    between atoms: N_3  and  C_15
REMARK    2  A    between atoms: C_10  and  C_20
REMARK    3  A    between atoms: C_14  and  C_23
REMARK    4  A    between atoms: C_15  and  C_21
REMARK    5  A    between atoms: C_24  and  C_26
REMARK    6  A    between atoms: C_33  and  C_34
REMARK                            x       y       z     vdW  Elec       q    Type
REMARK                         _______ _______ _______ _____ _____    ______ ____
ROOT
ATOM      1  O   UNL     1      -2.444  -1.056  25.682  0.00  0.00    -0.336 OA
ATOM      5  N   UNL     1      -1.996   0.622  24.269  0.00  0.00    -0.190 NA
ATOM      6  N   UNL     1      -1.325  -1.459  24.942  0.00  0.00    -0.056 NA
ATOM     20  C   UNL     1      -2.774   0.179  25.224  0.00  0.00    +0.245 A 
ATOM     24  C   UNL     1      -1.122  -0.417  24.131  0.00  0.00    +0.202 A 
ENDROOT
BRANCH  24  26
ATOM      4  N   UNL     1       3.573  -0.064  23.065  0.00  0.00    -0.315 N 
ATOM      7  N   UNL     1       2.018  -0.314  21.297  0.00  0.00    -0.240 NA
ATOM     14  C   UNL     1       6.328   0.271  23.920  0.00  0.00    +0.078 C 
ATOM     16  C   UNL     1       5.301  -0.467  24.776  0.00  0.00    +0.031 C 
ATOM     17  C   UNL     1       5.650   1.255  22.968  0.00  0.00    +0.031 C 
ATOM     18  C   UNL     1       4.149  -1.067  23.965  0.00  0.00    +0.107 C 
ATOM     19  C   UNL     1       4.513   0.619  22.168  0.00  0.00    +0.107 C 
ATOM     22  C   UNL     1       2.252  -0.210  22.625  0.00  0.00    +0.122 A 
ATOM     25  C   UNL     1       1.261  -0.238  23.592  0.00  0.00    +0.055 A 
ATOM     26  C   UNL     1      -0.056  -0.382  23.169  0.00  0.00    +0.027 A 
ATOM     29  C   UNL     1      -0.337  -0.491  21.812  0.00  0.00    +0.031 A 
ATOM     30  C   UNL     1       0.726  -0.452  20.924  0.00  0.00    +0.113 A 
BRANCH  14  23
ATOM      2  O   UNL     1       6.758  -1.720  22.668  0.00  0.00    -0.276 OA
ATOM      8  N   UNL     1       8.517  -0.298  23.091  0.00  0.00    -0.329 N 
ATOM     23  C   UNL     1       7.199  -0.684  23.160  0.00  0.00    +0.214 C 
ATOM     35  H   UNL     1       9.197  -0.868  22.599  0.00  0.00    +0.145 HD
ATOM     36  H   UNL     1       8.876   0.529  23.556  0.00  0.00    +0.145 HD
ENDBRANCH  14  23
ENDBRANCH  24  26
BRANCH  20  10
ATOM      3  N   UNL     1      -4.220   2.201  25.349  0.00  0.00    -0.287 NA
ATOM     10  C   UNL     1      -3.970   0.843  25.874  0.00  0.00    +0.146 C 
ATOM     11  C   UNL     1      -5.283   0.079  25.625  0.00  0.00    +0.030 C 
ATOM     12  C   UNL     1      -6.229   1.103  25.014  0.00  0.00    +0.017 C 
ATOM     13  C   UNL     1      -5.660   2.431  25.470  0.00  0.00    +0.085 C 
BRANCH   3  15
ATOM     15  C   UNL     1      -3.442   3.231  26.025  0.00  0.00    +0.120 C 
BRANCH  15  21
ATOM     21  C   UNL     1      -2.376   3.805  25.130  0.00  0.00    -0.033 A 
ATOM     27  C   UNL     1      -1.819   5.051  25.419  0.00  0.00    +0.006 A 
ATOM     28  C   UNL     1      -1.946   3.091  24.011  0.00  0.00    +0.006 A 
ATOM     31  C   UNL     1      -0.833   5.583  24.590  0.00  0.00    +0.019 A 
ATOM     32  C   UNL     1      -0.959   3.624  23.181  0.00  0.00    +0.019 A 
ATOM     33  C   UNL     1      -0.402   4.870  23.471  0.00  0.00    +0.052 A 
BRANCH  33  34
ATOM      9  N   UNL     1       1.428   5.860  21.930  0.00  0.00    -0.191 NA
ATOM     34  C   UNL     1       0.608   5.416  22.621  0.00  0.00    +0.099 C 
ENDBRANCH  33  34
ENDBRANCH  15  21
ENDBRANCH   3  15
ENDBRANCH  20  10
TORSDOF 6
ENDMDL
