MODEL 1
REMARK VINA RESULT:      -0.8      0.000      0.000
REMARK  Name = 25313072
REMARK  10 active torsions:
REMARK  status: ('A' for Active; 'I' for Inactive)
REMARK    1  A    between atoms: O_2  and  C_21
REMARK    2  A    between atoms: O_4  and  C_22
REMARK    3  A    between atoms: O_4  and  C_28
REMARK    4  A    between atoms: N_6  and  C_14
REMARK    5  A    between atoms: N_7  and  C_23
REMARK    6  A    between atoms: C_8  and  C_12
REMARK    7  A    between atoms: C_9  and  C_15
REMARK    8  A    between atoms: C_12  and  C_14
REMARK    9  A    between atoms: C_15  and  C_21
REMARK   10  A    between atoms: C_18  and  C_22
REMARK                            x       y       z     vdW  Elec       q    Type
REMARK                         _______ _______ _______ _____ _____    ______ ____
ROOT
ATOM      1  O   UNL     1      -6.504   1.676  26.857  0.00  0.00    -0.272 OA
ATOM      5  N   UNL     1      -5.115   2.863  25.421  0.00  0.00    -0.298 N 
ATOM      8  C   UNL     1      -2.976   3.146  24.189  0.00  0.00    +0.011 C 
ATOM      9  C   UNL     1      -2.548   4.196  25.245  0.00  0.00    +0.006 C 
ATOM     10  C   UNL     1      -4.512   3.087  24.101  0.00  0.00    +0.111 C 
ATOM     11  C   UNL     1      -3.242   3.954  26.597  0.00  0.00    +0.023 C 
ATOM     13  C   UNL     1      -4.757   3.857  26.434  0.00  0.00    +0.108 C 
ATOM     18  C   UNL     1      -5.989   1.827  25.745  0.00  0.00    +0.253 C 
ENDROOT
BRANCH   8  12
ATOM     12  C   UNL     1      -2.403   1.745  24.436  0.00  0.00    +0.020 C 
BRANCH  12  14
ATOM     14  C   UNL     1      -2.087   1.047  23.121  0.00  0.00    +0.085 C 
BRANCH  14   6
ATOM      6  N   UNL     1      -0.643   1.051  22.890  0.00  0.00    -0.299 NA
ATOM      7  N   UNL     1       2.063   0.224  23.281  0.00  0.00    -0.327 N 
ATOM     16  C   UNL     1      -0.192  -0.264  22.420  0.00  0.00    +0.103 C 
ATOM     17  C   UNL     1       0.073   1.415  24.119  0.00  0.00    +0.103 C 
ATOM     19  C   UNL     1       1.309  -0.258  22.120  0.00  0.00    +0.120 C 
ATOM     20  C   UNL     1       1.583   1.478  23.875  0.00  0.00    +0.120 C 
BRANCH   7  23
ATOM     23  C   UNL     1       3.423  -0.083  23.402  0.00  0.00    +0.030 A 
ATOM     24  C   UNL     1       3.817  -1.362  23.795  0.00  0.00    +0.023 A 
ATOM     25  C   UNL     1       4.384   0.889  23.128  0.00  0.00    +0.023 A 
ATOM     26  C   UNL     1       5.172  -1.668  23.915  0.00  0.00    +0.002 A 
ATOM     27  C   UNL     1       5.739   0.583  23.248  0.00  0.00    +0.002 A 
ATOM     29  C   UNL     1       6.134  -0.696  23.642  0.00  0.00    +0.000 A 
ENDBRANCH   7  23
ENDBRANCH  14   6
ENDBRANCH  12  14
ENDBRANCH   8  12
BRANCH   9  15
ATOM     15  C   UNL     1      -1.033   4.286  25.425  0.00  0.00    +0.124 C 
BRANCH  15  21
ATOM      3  O   UNL     1       0.291   4.801  23.445  0.00  0.00    -0.251 OA
ATOM     21  C   UNL     1      -0.401   5.167  24.384  0.00  0.00    +0.305 C 
BRANCH  21   2
ATOM      2  O   UNL     1      -0.710   6.465  24.633  0.00  0.00    -0.481 OA
ATOM     35  H   UNL     1      -1.668   6.641  24.522  0.00  0.00    +0.295 HD
ENDBRANCH  21   2
ENDBRANCH  15  21
ENDBRANCH   9  15
BRANCH  18  22
ATOM     22  C   UNL     1      -6.306   0.842  24.648  0.00  0.00    +0.324 C 
BRANCH  22   4
ATOM      4  O   UNL     1      -5.080   0.498  24.050  0.00  0.00    -0.483 OA
BRANCH   4  28
ATOM     28  C   UNL     1      -4.449  -0.637  24.510  0.00  0.00    +0.121 A 
ATOM     30  C   UNL     1      -3.862  -0.645  25.775  0.00  0.00    +0.045 A 
ATOM     31  C   UNL     1      -4.398  -1.780  23.711  0.00  0.00    +0.045 A 
ATOM     32  C   UNL     1      -3.223  -1.794  26.242  0.00  0.00    +0.004 A 
ATOM     33  C   UNL     1      -3.759  -2.928  24.177  0.00  0.00    +0.004 A 
ATOM     34  C   UNL     1      -3.172  -2.936  25.442  0.00  0.00    +0.000 A 
ENDBRANCH   4  28
ENDBRANCH  22   4
ENDBRANCH  18  22
TORSDOF 10
ENDMDL
MODEL 2
REMARK VINA RESULT:      -0.5      1.258      1.642
REMARK  Name = 25313072
REMARK  10 active torsions:
REMARK  status: ('A' for Active; 'I' for Inactive)
REMARK    1  A    between atoms: O_2  and  C_21
REMARK    2  A    between atoms: O_4  and  C_22
REMARK    3  A    between atoms: O_4  and  C_28
REMARK    4  A    between atoms: N_6  and  C_14
REMARK    5  A    between atoms: N_7  and  C_23
REMARK    6  A    between atoms: C_8  and  C_12
REMARK    7  A    between atoms: C_9  and  C_15
REMARK    8  A    between atoms: C_12  and  C_14
REMARK    9  A    between atoms: C_15  and  C_21
REMARK   10  A    between atoms: C_18  and  C_22
REMARK                            x       y       z     vdW  Elec       q    Type
REMARK                         _______ _______ _______ _____ _____    ______ ____
ROOT
ATOM      1  O   UNL     1      -5.820   0.485  26.336  0.00  0.00    -0.272 OA
ATOM      5  N   UNL     1      -5.120   2.109  24.827  0.00  0.00    -0.298 N 
ATOM      8  C   UNL     1      -3.333   3.376  23.656  0.00  0.00    +0.011 C 
ATOM      9  C   UNL     1      -3.615   4.574  24.599  0.00  0.00    +0.006 C 
ATOM     10  C   UNL     1      -4.598   2.511  23.515  0.00  0.00    +0.111 C 
ATOM     11  C   UNL     1      -4.207   4.110  25.940  0.00  0.00    +0.023 C 
ATOM     13  C   UNL     1      -5.428   3.218  25.730  0.00  0.00    +0.108 C 
ATOM     18  C   UNL     1      -5.356   0.796  25.235  0.00  0.00    +0.253 C 
ENDROOT
BRANCH   8  12
ATOM     12  C   UNL     1      -2.142   2.511  24.089  0.00  0.00    +0.020 C 
BRANCH  12  14
ATOM     14  C   UNL     1      -1.905   1.379  23.099  0.00  0.00    +0.085 C 
BRANCH  14   6
ATOM      6  N   UNL     1      -0.474   1.242  22.833  0.00  0.00    -0.299 NA
ATOM      7  N   UNL     1       2.178   0.273  23.266  0.00  0.00    -0.327 N 
ATOM     16  C   UNL     1      -0.136  -0.155  22.539  0.00  0.00    +0.103 C 
ATOM     17  C   UNL     1       0.310   1.715  23.981  0.00  0.00    +0.103 C 
ATOM     19  C   UNL     1       1.351  -0.304  22.203  0.00  0.00    +0.120 C 
ATOM     20  C   UNL     1       1.811   1.629  23.692  0.00  0.00    +0.120 C 
BRANCH   7  23
ATOM     23  C   UNL     1       3.516  -0.117  23.394  0.00  0.00    +0.030 A 
ATOM     24  C   UNL     1       3.829  -1.424  23.764  0.00  0.00    +0.023 A 
ATOM     25  C   UNL     1       4.537   0.802  23.149  0.00  0.00    +0.023 A 
ATOM     26  C   UNL     1       5.162  -1.813  23.891  0.00  0.00    +0.002 A 
ATOM     27  C   UNL     1       5.870   0.413  23.276  0.00  0.00    +0.002 A 
ATOM     29  C   UNL     1       6.183  -0.895  23.647  0.00  0.00    +0.000 A 
ENDBRANCH   7  23
ENDBRANCH  14   6
ENDBRANCH  12  14
ENDBRANCH   8  12
BRANCH   9  15
ATOM     15  C   UNL     1      -2.392   5.461  24.827  0.00  0.00    +0.124 C 
BRANCH  15  21
ATOM      3  O   UNL     1      -1.234   3.853  26.246  0.00  0.00    -0.251 OA
ATOM     21  C   UNL     1      -1.220   4.671  25.338  0.00  0.00    +0.305 C 
BRANCH  21   2
ATOM      2  O   UNL     1      -0.106   4.998  24.635  0.00  0.00    -0.481 OA
ATOM     35  H   UNL     1       0.012   5.969  24.565  0.00  0.00    +0.295 HD
ENDBRANCH  21   2
ENDBRANCH  15  21
ENDBRANCH   9  15
BRANCH  18  22
ATOM     22  C   UNL     1      -5.009  -0.290  24.249  0.00  0.00    +0.324 C 
BRANCH  22   4
ATOM      4  O   UNL     1      -4.526  -1.377  25.001  0.00  0.00    -0.483 OA
BRANCH   4  28
ATOM     28  C   UNL     1      -3.160  -1.496  25.135  0.00  0.00    +0.121 A 
ATOM     30  C   UNL     1      -2.474  -2.484  24.428  0.00  0.00    +0.045 A 
ATOM     31  C   UNL     1      -2.463  -0.629  25.977  0.00  0.00    +0.045 A 
ATOM     32  C   UNL     1      -1.091  -2.606  24.563  0.00  0.00    +0.004 A 
ATOM     33  C   UNL     1      -1.080  -0.751  26.112  0.00  0.00    +0.004 A 
ATOM     34  C   UNL     1      -0.394  -1.739  25.405  0.00  0.00    +0.000 A 
ENDBRANCH   4  28
ENDBRANCH  22   4
ENDBRANCH  18  22
TORSDOF 10
ENDMDL
MODEL 3
REMARK VINA RESULT:       1.4      2.820      5.984
REMARK  Name = 25313072
REMARK  10 active torsions:
REMARK  status: ('A' for Active; 'I' for Inactive)
REMARK    1  A    between atoms: O_2  and  C_21
REMARK    2  A    between atoms: O_4  and  C_22
REMARK    3  A    between atoms: O_4  and  C_28
REMARK    4  A    between atoms: N_6  and  C_14
REMARK    5  A    between atoms: N_7  and  C_23
REMARK    6  A    between atoms: C_8  and  C_12
REMARK    7  A    between atoms: C_9  and  C_15
REMARK    8  A    between atoms: C_12  and  C_14
REMARK    9  A    between atoms: C_15  and  C_21
REMARK   10  A    between atoms: C_18  and  C_22
REMARK                            x       y       z     vdW  Elec       q    Type
REMARK                         _______ _______ _______ _____ _____    ______ ____
ROOT
ATOM      1  O   UNL     1      -0.222  -1.329  25.822  0.00  0.00    -0.272 OA
ATOM      5  N   UNL     1      -2.204  -1.080  24.634  0.00  0.00    -0.298 N 
ATOM      8  C   UNL     1      -3.739   0.246  23.201  0.00  0.00    +0.011 C 
ATOM      9  C   UNL     1      -4.619   0.509  24.450  0.00  0.00    +0.006 C 
ATOM     10  C   UNL     1      -2.961  -1.070  23.376  0.00  0.00    +0.111 C 
ATOM     11  C   UNL     1      -3.795   0.439  25.747  0.00  0.00    +0.023 C 
ATOM     13  C   UNL     1      -3.010  -0.868  25.836  0.00  0.00    +0.108 C 
ATOM     18  C   UNL     1      -0.832  -1.299  24.749  0.00  0.00    +0.253 C 
ENDROOT
BRANCH   8  12
ATOM     12  C   UNL     1      -2.777   1.393  22.865  0.00  0.00    +0.020 C 
BRANCH  12  14
ATOM     14  C   UNL     1      -3.141   2.652  23.638  0.00  0.00    +0.085 C 
BRANCH  14   6
ATOM      6  N   UNL     1      -2.039   3.029  24.523  0.00  0.00    -0.299 NA
ATOM      7  N   UNL     1      -0.228   2.719  26.710  0.00  0.00    -0.327 N 
ATOM     16  C   UNL     1      -0.966   2.029  24.463  0.00  0.00    +0.103 C 
ATOM     17  C   UNL     1      -2.514   3.171  25.904  0.00  0.00    +0.103 C 
ATOM     19  C   UNL     1       0.218   2.439  25.342  0.00  0.00    +0.120 C 
ATOM     20  C   UNL     1      -1.381   3.620  26.830  0.00  0.00    +0.120 C 
BRANCH   7  23
ATOM     23  C   UNL     1       0.695   2.687  27.762  0.00  0.00    +0.030 A 
ATOM     24  C   UNL     1       2.032   3.001  27.525  0.00  0.00    +0.023 A 
ATOM     25  C   UNL     1       0.276   2.341  29.046  0.00  0.00    +0.023 A 
ATOM     26  C   UNL     1       2.952   2.969  28.573  0.00  0.00    +0.002 A 
ATOM     27  C   UNL     1       1.195   2.309  30.094  0.00  0.00    +0.002 A 
ATOM     29  C   UNL     1       2.534   2.622  29.858  0.00  0.00    +0.000 A 
ENDBRANCH   7  23
ENDBRANCH  14   6
ENDBRANCH  12  14
ENDBRANCH   8  12
BRANCH   9  15
ATOM     15  C   UNL     1      -5.394   1.824  24.374  0.00  0.00    +0.124 C 
BRANCH  15  21
ATOM      3  O   UNL     1      -6.578   1.399  26.461  0.00  0.00    -0.251 OA
ATOM     21  C   UNL     1      -6.027   2.173  25.692  0.00  0.00    +0.305 C 
BRANCH  21   2
ATOM      2  O   UNL     1      -5.903   3.505  25.922  0.00  0.00    -0.481 OA
ATOM     35  H   UNL     1      -5.019   3.841  25.661  0.00  0.00    +0.295 HD
ENDBRANCH  21   2
ENDBRANCH  15  21
ENDBRANCH   9  15
BRANCH  18  22
ATOM     22  C   UNL     1      -0.070  -1.506  23.464  0.00  0.00    +0.324 C 
BRANCH  22   4
ATOM      4  O   UNL     1       0.530  -0.274  23.149  0.00  0.00    -0.483 OA
BRANCH   4  28
ATOM     28  C   UNL     1       1.905  -0.213  23.185  0.00  0.00    +0.121 A 
ATOM     30  C   UNL     1       2.642  -1.318  23.613  0.00  0.00    +0.045 A 
ATOM     31  C   UNL     1       2.562   0.954  22.794  0.00  0.00    +0.045 A 
ATOM     32  C   UNL     1       4.035  -1.257  23.649  0.00  0.00    +0.004 A 
ATOM     33  C   UNL     1       3.955   1.015  22.830  0.00  0.00    +0.004 A 
ATOM     34  C   UNL     1       4.692  -0.089  23.258  0.00  0.00    +0.000 A 
ENDBRANCH   4  28
ENDBRANCH  22   4
ENDBRANCH  18  22
TORSDOF 10
ENDMDL
MODEL 4
REMARK VINA RESULT:       2.1      1.836      4.461
REMARK  Name = 25313072
REMARK  10 active torsions:
REMARK  status: ('A' for Active; 'I' for Inactive)
REMARK    1  A    between atoms: O_2  and  C_21
REMARK    2  A    between atoms: O_4  and  C_22
REMARK    3  A    between atoms: O_4  and  C_28
REMARK    4  A    between atoms: N_6  and  C_14
REMARK    5  A    between atoms: N_7  and  C_23
REMARK    6  A    between atoms: C_8  and  C_12
REMARK    7  A    between atoms: C_9  and  C_15
REMARK    8  A    between atoms: C_12  and  C_14
REMARK    9  A    between atoms: C_15  and  C_21
REMARK   10  A    between atoms: C_18  and  C_22
REMARK                            x       y       z     vdW  Elec       q    Type
REMARK                         _______ _______ _______ _____ _____    ______ ____
ROOT
ATOM      1  O   UNL     1      -6.871   1.814  24.194  0.00  0.00    -0.272 OA
ATOM      5  N   UNL     1      -5.334   0.416  25.235  0.00  0.00    -0.298 N 
ATOM      8  C   UNL     1      -3.001  -0.265  25.750  0.00  0.00    +0.011 C 
ATOM      9  C   UNL     1      -3.152  -1.423  24.731  0.00  0.00    +0.006 C 
ATOM     10  C   UNL     1      -4.380   0.122  26.312  0.00  0.00    +0.111 C 
ATOM     11  C   UNL     1      -4.196  -1.093  23.651  0.00  0.00    +0.023 C 
ATOM     13  C   UNL     1      -5.525  -0.670  24.273  0.00  0.00    +0.108 C 
ATOM     18  C   UNL     1      -6.055   1.600  25.096  0.00  0.00    +0.253 C 
ENDROOT
BRANCH   8  12
ATOM     12  C   UNL     1      -2.290   0.971  25.186  0.00  0.00    +0.020 C 
BRANCH  12  14
ATOM     14  C   UNL     1      -2.154   0.877  23.673  0.00  0.00    +0.085 C 
BRANCH  14   6
ATOM      6  N   UNL     1      -0.743   0.951  23.295  0.00  0.00    -0.299 NA
ATOM      7  N   UNL     1       2.024   0.247  23.393  0.00  0.00    -0.327 N 
ATOM     16  C   UNL     1      -0.284  -0.336  22.760  0.00  0.00    +0.103 C 
ATOM     17  C   UNL     1       0.079   1.335  24.449  0.00  0.00    +0.103 C 
ATOM     19  C   UNL     1       1.176  -0.256  22.308  0.00  0.00    +0.120 C 
ATOM     20  C   UNL     1       1.551   1.471  24.053  0.00  0.00    +0.120 C 
BRANCH   7  23
ATOM     23  C   UNL     1       3.402   0.003  23.369  0.00  0.00    +0.030 A 
ATOM     24  C   UNL     1       4.279   1.001  22.945  0.00  0.00    +0.023 A 
ATOM     25  C   UNL     1       3.897  -1.237  23.769  0.00  0.00    +0.023 A 
ATOM     26  C   UNL     1       5.652   0.758  22.920  0.00  0.00    +0.002 A 
ATOM     27  C   UNL     1       5.270  -1.480  23.744  0.00  0.00    +0.002 A 
ATOM     29  C   UNL     1       6.148  -0.483  23.320  0.00  0.00    +0.000 A 
ENDBRANCH   7  23
ENDBRANCH  14   6
ENDBRANCH  12  14
ENDBRANCH   8  12
BRANCH   9  15
ATOM     15  C   UNL     1      -1.828  -1.839  24.091  0.00  0.00    +0.124 C 
BRANCH  15  21
ATOM      3  O   UNL     1      -0.877  -3.630  25.443  0.00  0.00    -0.251 OA
ATOM     21  C   UNL     1      -0.896  -2.459  25.095  0.00  0.00    +0.305 C 
BRANCH  21   2
ATOM      2  O   UNL     1      -0.051  -1.514  25.579  0.00  0.00    -0.481 OA
ATOM     35  H   UNL     1      -0.525  -0.694  25.834  0.00  0.00    +0.295 HD
ENDBRANCH  21   2
ENDBRANCH  15  21
ENDBRANCH   9  15
BRANCH  18  22
ATOM     22  C   UNL     1      -5.799   2.672  26.125  0.00  0.00    +0.324 C 
BRANCH  22   4
ATOM      4  O   UNL     1      -5.398   3.821  25.419  0.00  0.00    -0.483 OA
BRANCH   4  28
ATOM     28  C   UNL     1      -4.045   4.039  25.283  0.00  0.00    +0.121 A 
ATOM     30  C   UNL     1      -3.488   4.204  24.015  0.00  0.00    +0.045 A 
ATOM     31  C   UNL     1      -3.230   4.094  26.414  0.00  0.00    +0.045 A 
ATOM     32  C   UNL     1      -2.118   4.425  23.876  0.00  0.00    +0.004 A 
ATOM     33  C   UNL     1      -1.860   4.315  26.276  0.00  0.00    +0.004 A 
ATOM     34  C   UNL     1      -1.304   4.480  25.008  0.00  0.00    +0.000 A 
ENDBRANCH   4  28
ENDBRANCH  22   4
ENDBRANCH  18  22
TORSDOF 10
ENDMDL
MODEL 5
REMARK VINA RESULT:       2.2      2.464      5.080
REMARK  Name = 25313072
REMARK  10 active torsions:
REMARK  status: ('A' for Active; 'I' for Inactive)
REMARK    1  A    between atoms: O_2  and  C_21
REMARK    2  A    between atoms: O_4  and  C_22
REMARK    3  A    between atoms: O_4  and  C_28
REMARK    4  A    between atoms: N_6  and  C_14
REMARK    5  A    between atoms: N_7  and  C_23
REMARK    6  A    between atoms: C_8  and  C_12
REMARK    7  A    between atoms: C_9  and  C_15
REMARK    8  A    between atoms: C_12  and  C_14
REMARK    9  A    between atoms: C_15  and  C_21
REMARK   10  A    between atoms: C_18  and  C_22
REMARK                            x       y       z     vdW  Elec       q    Type
REMARK                         _______ _______ _______ _____ _____    ______ ____
ROOT
ATOM      1  O   UNL     1      -0.211   5.240  24.604  0.00  0.00    -0.272 OA
ATOM      5  N   UNL     1      -1.912   4.010  25.602  0.00  0.00    -0.298 N 
ATOM      8  C   UNL     1      -3.638   2.225  25.544  0.00  0.00    +0.011 C 
ATOM      9  C   UNL     1      -4.719   3.325  25.385  0.00  0.00    +0.006 C 
ATOM     10  C   UNL     1      -2.408   2.800  26.269  0.00  0.00    +0.111 C 
ATOM     11  C   UNL     1      -4.144   4.592  24.729  0.00  0.00    +0.023 C 
ATOM     13  C   UNL     1      -2.899   5.082  25.465  0.00  0.00    +0.108 C 
ATOM     18  C   UNL     1      -0.611   4.202  25.139  0.00  0.00    +0.253 C 
ENDROOT
BRANCH   8  12
ATOM     12  C   UNL     1      -3.220   1.568  24.223  0.00  0.00    +0.020 C 
BRANCH  12  14
ATOM     14  C   UNL     1      -2.992   0.074  24.407  0.00  0.00    +0.085 C 
BRANCH  14   6
ATOM      6  N   UNL     1      -1.672  -0.294  23.894  0.00  0.00    -0.299 NA
ATOM      7  N   UNL     1       1.173  -0.162  23.683  0.00  0.00    -0.327 N 
ATOM     16  C   UNL     1      -0.822  -0.802  24.977  0.00  0.00    +0.103 C 
ATOM     17  C   UNL     1      -1.029   0.860  23.254  0.00  0.00    +0.103 C 
ATOM     19  C   UNL     1       0.543  -1.244  24.445  0.00  0.00    +0.120 C 
ATOM     20  C   UNL     1       0.329   0.472  22.663  0.00  0.00    +0.120 C 
BRANCH   7  23
ATOM     23  C   UNL     1       2.558  -0.172  23.479  0.00  0.00    +0.030 A 
ATOM     24  C   UNL     1       3.182   0.924  22.884  0.00  0.00    +0.023 A 
ATOM     25  C   UNL     1       3.313  -1.277  23.870  0.00  0.00    +0.023 A 
ATOM     26  C   UNL     1       4.561   0.915  22.680  0.00  0.00    +0.002 A 
ATOM     27  C   UNL     1       4.692  -1.286  23.667  0.00  0.00    +0.002 A 
ATOM     29  C   UNL     1       5.317  -0.190  23.071  0.00  0.00    +0.000 A 
ENDBRANCH   7  23
ENDBRANCH  14   6
ENDBRANCH  12  14
ENDBRANCH   8  12
BRANCH   9  15
ATOM     15  C   UNL     1      -5.960   2.845  24.634  0.00  0.00    +0.124 C 
BRANCH  15  21
ATOM      3  O   UNL     1      -6.423   0.456  24.503  0.00  0.00    -0.251 OA
ATOM     21  C   UNL     1      -6.427   1.505  25.130  0.00  0.00    +0.305 C 
BRANCH  21   2
ATOM      2  O   UNL     1      -6.866   1.617  26.409  0.00  0.00    -0.481 OA
ATOM     35  H   UNL     1      -6.176   1.981  27.003  0.00  0.00    +0.295 HD
ENDBRANCH  21   2
ENDBRANCH  15  21
ENDBRANCH   9  15
BRANCH  18  22
ATOM     22  C   UNL     1       0.345   3.050  25.313  0.00  0.00    +0.324 C 
BRANCH  22   4
ATOM      4  O   UNL     1      -0.050   2.372  26.480  0.00  0.00    -0.483 OA
BRANCH   4  28
ATOM     28  C   UNL     1       0.746   2.516  27.595  0.00  0.00    +0.121 A 
ATOM     30  C   UNL     1       2.069   2.937  27.459  0.00  0.00    +0.045 A 
ATOM     31  C   UNL     1       0.229   2.240  28.862  0.00  0.00    +0.045 A 
ATOM     32  C   UNL     1       2.875   3.083  28.588  0.00  0.00    +0.004 A 
ATOM     33  C   UNL     1       1.035   2.387  29.990  0.00  0.00    +0.004 A 
ATOM     34  C   UNL     1       2.358   2.808  29.854  0.00  0.00    +0.000 A 
ENDBRANCH   4  28
ENDBRANCH  22   4
ENDBRANCH  18  22
TORSDOF 10
ENDMDL
MODEL 6
REMARK VINA RESULT:       2.4      1.669      4.525
REMARK  Name = 25313072
REMARK  10 active torsions:
REMARK  status: ('A' for Active; 'I' for Inactive)
REMARK    1  A    between atoms: O_2  and  C_21
REMARK    2  A    between atoms: O_4  and  C_22
REMARK    3  A    between atoms: O_4  and  C_28
REMARK    4  A    between atoms: N_6  and  C_14
REMARK    5  A    between atoms: N_7  and  C_23
REMARK    6  A    between atoms: C_8  and  C_12
REMARK    7  A    between atoms: C_9  and  C_15
REMARK    8  A    between atoms: C_12  and  C_14
REMARK    9  A    between atoms: C_15  and  C_21
REMARK   10  A    between atoms: C_18  and  C_22
REMARK                            x       y       z     vdW  Elec       q    Type
REMARK                         _______ _______ _______ _____ _____    ______ ____
ROOT
ATOM      1  O   UNL     1      -5.945   4.394  25.172  0.00  0.00    -0.272 OA
ATOM      5  N   UNL     1      -5.190   2.284  25.786  0.00  0.00    -0.298 N 
ATOM      8  C   UNL     1      -3.683   0.331  25.488  0.00  0.00    +0.011 C 
ATOM      9  C   UNL     1      -4.864  -0.435  24.839  0.00  0.00    +0.006 C 
ATOM     10  C   UNL     1      -4.221   1.403  26.452  0.00  0.00    +0.111 C 
ATOM     11  C   UNL     1      -5.878   0.528  24.198  0.00  0.00    +0.023 C 
ATOM     13  C   UNL     1      -6.334   1.594  25.191  0.00  0.00    +0.108 C 
ATOM     18  C   UNL     1      -5.103   3.673  25.716  0.00  0.00    +0.253 C 
ENDROOT
BRANCH   8  12
ATOM     12  C   UNL     1      -2.718   0.961  24.476  0.00  0.00    +0.020 C 
BRANCH  12  14
ATOM     14  C   UNL     1      -2.594   0.095  23.231  0.00  0.00    +0.085 C 
BRANCH  14   6
ATOM      6  N   UNL     1      -1.219  -0.382  23.091  0.00  0.00    -0.299 NA
ATOM      7  N   UNL     1       1.624  -0.253  23.340  0.00  0.00    -0.327 N 
ATOM     16  C   UNL     1      -0.582  -0.509  24.407  0.00  0.00    +0.103 C 
ATOM     17  C   UNL     1      -0.441   0.531  22.245  0.00  0.00    +0.103 C 
ATOM     19  C   UNL     1       0.840  -1.061  24.279  0.00  0.00    +0.120 C 
ATOM     20  C   UNL     1       0.985   0.012  22.045  0.00  0.00    +0.120 C 
BRANCH   7  23
ATOM     23  C   UNL     1       3.022  -0.293  23.388  0.00  0.00    +0.030 A 
ATOM     24  C   UNL     1       3.672  -1.439  23.844  0.00  0.00    +0.023 A 
ATOM     25  C   UNL     1       3.765   0.814  22.979  0.00  0.00    +0.023 A 
ATOM     26  C   UNL     1       5.065  -1.479  23.892  0.00  0.00    +0.002 A 
ATOM     27  C   UNL     1       5.158   0.775  23.027  0.00  0.00    +0.002 A 
ATOM     29  C   UNL     1       5.809  -0.371  23.484  0.00  0.00    +0.000 A 
ENDBRANCH   7  23
ENDBRANCH  14   6
ENDBRANCH  12  14
ENDBRANCH   8  12
BRANCH   9  15
ATOM     15  C   UNL     1      -4.414  -1.492  23.831  0.00  0.00    +0.124 C 
BRANCH  15  21
ATOM      3  O   UNL     1      -3.552  -2.830  25.678  0.00  0.00    -0.251 OA
ATOM     21  C   UNL     1      -3.592  -2.568  24.485  0.00  0.00    +0.305 C 
BRANCH  21   2
ATOM      2  O   UNL     1      -2.876  -3.234  23.542  0.00  0.00    -0.481 OA
ATOM     35  H   UNL     1      -3.406  -3.936  23.109  0.00  0.00    +0.295 HD
ENDBRANCH  21   2
ENDBRANCH  15  21
ENDBRANCH   9  15
BRANCH  18  22
ATOM     22  C   UNL     1      -3.892   4.308  26.350  0.00  0.00    +0.324 C 
BRANCH  22   4
ATOM      4  O   UNL     1      -3.003   4.614  25.304  0.00  0.00    -0.483 OA
BRANCH   4  28
ATOM     28  C   UNL     1      -1.803   3.938  25.275  0.00  0.00    +0.121 A 
ATOM     30  C   UNL     1      -1.037   3.927  24.110  0.00  0.00    +0.045 A 
ATOM     31  C   UNL     1      -1.355   3.264  26.411  0.00  0.00    +0.045 A 
ATOM     32  C   UNL     1       0.178   3.242  24.080  0.00  0.00    +0.004 A 
ATOM     33  C   UNL     1      -0.140   2.580  26.381  0.00  0.00    +0.004 A 
ATOM     34  C   UNL     1       0.626   2.568  25.216  0.00  0.00    +0.000 A 
ENDBRANCH   4  28
ENDBRANCH  22   4
ENDBRANCH  18  22
TORSDOF 10
ENDMDL
