MODEL 1
REMARK VINA RESULT:       0.7      0.000      0.000
REMARK  Name = 26743403
REMARK  12 active torsions:
REMARK  status: ('A' for Active; 'I' for Inactive)
REMARK    1  A    between atoms: O_2  and  C_24
REMARK    2  A    between atoms: N_4  and  C_9
REMARK    3  A    between atoms: N_5  and  C_23
REMARK    4  A    between atoms: C_7  and  C_10
REMARK    5  A    between atoms: C_12  and  C_14
REMARK    6  A    between atoms: C_12  and  C_18
REMARK    7  A    between atoms: C_12  and  C_19
REMARK    8  A    between atoms: C_12  and  C_20
REMARK    9  A    between atoms: C_14  and  C_16
REMARK   10  A    between atoms: C_15  and  C_21
REMARK   11  A    between atoms: C_17  and  C_22
REMARK   12  A    between atoms: C_18  and  C_24
REMARK                            x       y       z     vdW  Elec       q    Type
REMARK                         _______ _______ _______ _____ _____    ______ ____
ROOT
ATOM      7  C   UNL     1      15.940  -7.755  25.716  0.00  0.00    +0.047 C 
ATOM      8  C   UNL     1      17.404  -7.611  25.260  0.00  0.00    +0.039 C 
ATOM      9  C   UNL     1      17.385  -7.698  23.724  0.00  0.00    +0.097 C 
ATOM     11  C   UNL     1      15.309  -8.449  24.544  0.00  0.00    -0.021 C 
ATOM     13  C   UNL     1      16.095  -8.408  23.462  0.00  0.00    -0.009 C 
ENDROOT
BRANCH   7  10
ATOM      5  N   UNL     1      15.228  -9.077  29.057  0.00  0.00    -0.236 N 
ATOM      6  N   UNL     1      16.055 -10.060  28.663  0.00  0.00    -0.171 NA
ATOM     10  C   UNL     1      15.793  -8.481  27.034  0.00  0.00    +0.003 A 
ATOM     15  C   UNL     1      15.037  -8.106  28.117  0.00  0.00    +0.046 A 
ATOM     17  C   UNL     1      16.397  -9.691  27.426  0.00  0.00    +0.064 A 
ATOM     21  C   UNL     1      14.169  -6.931  28.330  0.00  0.00    +0.066 C 
ATOM     22  C   UNL     1      17.316 -10.537  26.644  0.00  0.00    +0.068 C 
BRANCH   5  23
ATOM     23  C   UNL     1      14.656  -9.121  30.330  0.00  0.00    +0.066 A 
ATOM     25  C   UNL     1      15.472  -9.219  31.457  0.00  0.00    +0.028 A 
ATOM     26  C   UNL     1      13.270  -9.068  30.473  0.00  0.00    +0.028 A 
ATOM     27  C   UNL     1      14.901  -9.262  32.729  0.00  0.00    +0.002 A 
ATOM     28  C   UNL     1      12.699  -9.112  31.745  0.00  0.00    +0.002 A 
ATOM     29  C   UNL     1      13.515  -9.209  32.873  0.00  0.00    +0.000 A 
ENDBRANCH   5  23
ENDBRANCH   7  10
BRANCH   9   4
ATOM      1  O   UNL     1      17.306  -5.141  25.062  0.00  0.00    -0.276 OA
ATOM      4  N   UNL     1      17.405  -6.379  23.102  0.00  0.00    -0.309 N 
ATOM     16  C   UNL     1      17.364  -5.205  23.835  0.00  0.00    +0.214 C 
ATOM     30  H   UNL     1      17.424  -6.330  22.087  0.00  0.00    +0.149 HD
BRANCH  16  14
ATOM     14  C   UNL     1      17.402  -3.957  22.968  0.00  0.00    +0.102 C 
BRANCH  14  12
ATOM     12  C   UNL     1      16.669  -2.729  23.565  0.00  0.00    -0.017 C 
ATOM     19  C   UNL     1      16.555  -1.607  22.511  0.00  0.00    +0.012 C 
ATOM     20  C   UNL     1      15.234  -3.163  23.931  0.00  0.00    +0.012 C 
BRANCH  12  18
ATOM     18  C   UNL     1      17.382  -2.146  24.807  0.00  0.00    +0.127 C 
BRANCH  18  24
ATOM      3  O   UNL     1      15.888  -1.463  26.587  0.00  0.00    -0.251 OA
ATOM     24  C   UNL     1      16.561  -1.161  25.609  0.00  0.00    +0.305 C 
BRANCH  24   2
ATOM      2  O   UNL     1      16.636   0.105  25.125  0.00  0.00    -0.481 OA
ATOM     31  H   UNL     1      17.090   0.708  25.750  0.00  0.00    +0.295 HD
ENDBRANCH  24   2
ENDBRANCH  18  24
ENDBRANCH  12  18
ENDBRANCH  14  12
ENDBRANCH  16  14
ENDBRANCH   9   4
TORSDOF 8
ENDMDL
MODEL 2
REMARK VINA RESULT:       0.9     18.005     20.058
REMARK  Name = 26743403
REMARK  12 active torsions:
REMARK  status: ('A' for Active; 'I' for Inactive)
REMARK    1  A    between atoms: O_2  and  C_24
REMARK    2  A    between atoms: N_4  and  C_9
REMARK    3  A    between atoms: N_5  and  C_23
REMARK    4  A    between atoms: C_7  and  C_10
REMARK    5  A    between atoms: C_12  and  C_14
REMARK    6  A    between atoms: C_12  and  C_18
REMARK    7  A    between atoms: C_12  and  C_19
REMARK    8  A    between atoms: C_12  and  C_20
REMARK    9  A    between atoms: C_14  and  C_16
REMARK   10  A    between atoms: C_15  and  C_21
REMARK   11  A    between atoms: C_17  and  C_22
REMARK   12  A    between atoms: C_18  and  C_24
REMARK                            x       y       z     vdW  Elec       q    Type
REMARK                         _______ _______ _______ _____ _____    ______ ____
ROOT
ATOM      7  C   UNL     1      -1.973   0.343  24.718  0.00  0.00    +0.047 C 
ATOM      8  C   UNL     1      -2.950   0.490  23.536  0.00  0.00    +0.039 C 
ATOM      9  C   UNL     1      -4.357   0.251  24.110  0.00  0.00    +0.097 C 
ATOM     11  C   UNL     1      -2.767  -0.485  25.685  0.00  0.00    -0.021 C 
ATOM     13  C   UNL     1      -4.063  -0.526  25.355  0.00  0.00    -0.009 C 
ENDROOT
BRANCH   7  10
ATOM      5  N   UNL     1       1.452  -0.551  23.776  0.00  0.00    -0.236 N 
ATOM      6  N   UNL     1       0.942  -1.794  23.747  0.00  0.00    -0.171 NA
ATOM     10  C   UNL     1      -0.641  -0.252  24.321  0.00  0.00    +0.003 A 
ATOM     15  C   UNL     1       0.545   0.409  24.115  0.00  0.00    +0.046 A 
ATOM     17  C   UNL     1      -0.337  -1.605  24.080  0.00  0.00    +0.064 A 
ATOM     21  C   UNL     1       0.880   1.844  24.212  0.00  0.00    +0.066 C 
ATOM     22  C   UNL     1      -1.245  -2.763  24.159  0.00  0.00    +0.068 C 
BRANCH   5  23
ATOM     23  C   UNL     1       2.800  -0.349  23.475  0.00  0.00    +0.066 A 
ATOM     25  C   UNL     1       3.188   0.764  22.730  0.00  0.00    +0.028 A 
ATOM     26  C   UNL     1       3.758  -1.260  23.921  0.00  0.00    +0.028 A 
ATOM     27  C   UNL     1       4.535   0.967  22.430  0.00  0.00    +0.002 A 
ATOM     28  C   UNL     1       5.105  -1.057  23.621  0.00  0.00    +0.002 A 
ATOM     29  C   UNL     1       5.494   0.057  22.875  0.00  0.00    +0.000 A 
ENDBRANCH   5  23
ENDBRANCH   7  10
BRANCH   9   4
ATOM      1  O   UNL     1      -5.797   0.908  26.524  0.00  0.00    -0.276 OA
ATOM      4  N   UNL     1      -5.045   1.500  24.411  0.00  0.00    -0.309 N 
ATOM     16  C   UNL     1      -5.711   1.720  25.605  0.00  0.00    +0.214 C 
ATOM     30  H   UNL     1      -5.054   2.225  23.698  0.00  0.00    +0.149 HD
BRANCH  16  14
ATOM     14  C   UNL     1      -6.346   3.098  25.691  0.00  0.00    +0.102 C 
BRANCH  14  12
ATOM     12  C   UNL     1      -5.375   4.279  25.433  0.00  0.00    -0.017 C 
ATOM     19  C   UNL     1      -4.733   4.151  24.035  0.00  0.00    +0.012 C 
ATOM     20  C   UNL     1      -6.200   5.583  25.443  0.00  0.00    +0.012 C 
BRANCH  12  18
ATOM     18  C   UNL     1      -4.236   4.361  26.476  0.00  0.00    +0.127 C 
BRANCH  18  24
ATOM      3  O   UNL     1      -2.367   2.976  25.803  0.00  0.00    -0.251 OA
ATOM     24  C   UNL     1      -2.852   4.094  25.929  0.00  0.00    +0.305 C 
BRANCH  24   2
ATOM      2  O   UNL     1      -2.188   5.229  25.596  0.00  0.00    -0.481 OA
ATOM     31  H   UNL     1      -2.293   5.449  24.646  0.00  0.00    +0.295 HD
ENDBRANCH  24   2
ENDBRANCH  18  24
ENDBRANCH  12  18
ENDBRANCH  14  12
ENDBRANCH  16  14
ENDBRANCH   9   4
TORSDOF 8
ENDMDL
MODEL 3
REMARK VINA RESULT:       2.3     17.774     19.998
REMARK  Name = 26743403
REMARK  12 active torsions:
REMARK  status: ('A' for Active; 'I' for Inactive)
REMARK    1  A    between atoms: O_2  and  C_24
REMARK    2  A    between atoms: N_4  and  C_9
REMARK    3  A    between atoms: N_5  and  C_23
REMARK    4  A    between atoms: C_7  and  C_10
REMARK    5  A    between atoms: C_12  and  C_14
REMARK    6  A    between atoms: C_12  and  C_18
REMARK    7  A    between atoms: C_12  and  C_19
REMARK    8  A    between atoms: C_12  and  C_20
REMARK    9  A    between atoms: C_14  and  C_16
REMARK   10  A    between atoms: C_15  and  C_21
REMARK   11  A    between atoms: C_17  and  C_22
REMARK   12  A    between atoms: C_18  and  C_24
REMARK                            x       y       z     vdW  Elec       q    Type
REMARK                         _______ _______ _______ _____ _____    ______ ____
ROOT
ATOM      7  C   UNL     1      -1.557   0.829  23.662  0.00  0.00    +0.047 C 
ATOM      8  C   UNL     1      -1.564   2.121  24.500  0.00  0.00    +0.039 C 
ATOM      9  C   UNL     1      -2.481   3.109  23.758  0.00  0.00    +0.097 C 
ATOM     11  C   UNL     1      -1.964   1.328  22.307  0.00  0.00    -0.021 C 
ATOM     13  C   UNL     1      -2.472   2.563  22.365  0.00  0.00    -0.009 C 
ENDROOT
BRANCH   7  10
ATOM      5  N   UNL     1       1.889  -0.413  23.636  0.00  0.00    -0.236 N 
ATOM      6  N   UNL     1       1.291  -1.588  23.892  0.00  0.00    -0.171 NA
ATOM     10  C   UNL     1      -0.233   0.101  23.697  0.00  0.00    +0.003 A 
ATOM     15  C   UNL     1       1.020   0.632  23.510  0.00  0.00    +0.046 A 
ATOM     17  C   UNL     1      -0.005  -1.268  23.929  0.00  0.00    +0.064 A 
ATOM     21  C   UNL     1       1.451   2.016  23.229  0.00  0.00    +0.066 C 
ATOM     22  C   UNL     1      -1.004  -2.319  24.193  0.00  0.00    +0.068 C 
BRANCH   5  23
ATOM     23  C   UNL     1       3.279  -0.353  23.524  0.00  0.00    +0.066 A 
ATOM     25  C   UNL     1       4.060  -1.427  23.950  0.00  0.00    +0.028 A 
ATOM     26  C   UNL     1       3.886   0.782  22.985  0.00  0.00    +0.028 A 
ATOM     27  C   UNL     1       5.449  -1.367  23.838  0.00  0.00    +0.002 A 
ATOM     28  C   UNL     1       5.275   0.842  22.873  0.00  0.00    +0.002 A 
ATOM     29  C   UNL     1       6.057  -0.233  23.299  0.00  0.00    +0.000 A 
ENDBRANCH   5  23
ENDBRANCH   7  10
BRANCH   9   4
ATOM      1  O   UNL     1      -3.268   4.045  26.373  0.00  0.00    -0.276 OA
ATOM      4  N   UNL     1      -3.828   3.129  24.316  0.00  0.00    -0.309 N 
ATOM     16  C   UNL     1      -4.104   3.601  25.588  0.00  0.00    +0.214 C 
ATOM     30  H   UNL     1      -4.585   2.755  23.750  0.00  0.00    +0.149 HD
BRANCH  16  14
ATOM     14  C   UNL     1      -5.580   3.528  25.945  0.00  0.00    +0.102 C 
BRANCH  14  12
ATOM     12  C   UNL     1      -6.154   2.092  26.048  0.00  0.00    -0.017 C 
ATOM     19  C   UNL     1      -7.220   2.017  27.161  0.00  0.00    +0.012 C 
ATOM     20  C   UNL     1      -6.857   1.764  24.714  0.00  0.00    +0.012 C 
BRANCH  12  18
ATOM     18  C   UNL     1      -5.070   1.031  26.353  0.00  0.00    +0.127 C 
BRANCH  18  24
ATOM      3  O   UNL     1      -4.883   0.474  24.004  0.00  0.00    -0.251 OA
ATOM     24  C   UNL     1      -4.666   0.177  25.172  0.00  0.00    +0.305 C 
BRANCH  24   2
ATOM      2  O   UNL     1      -4.040  -0.969  25.539  0.00  0.00    -0.481 OA
ATOM     31  H   UNL     1      -3.255  -1.152  24.981  0.00  0.00    +0.295 HD
ENDBRANCH  24   2
ENDBRANCH  18  24
ENDBRANCH  12  18
ENDBRANCH  14  12
ENDBRANCH  16  14
ENDBRANCH   9   4
TORSDOF 8
ENDMDL
MODEL 4
REMARK VINA RESULT:       2.4      1.779      2.356
REMARK  Name = 26743403
REMARK  12 active torsions:
REMARK  status: ('A' for Active; 'I' for Inactive)
REMARK    1  A    between atoms: O_2  and  C_24
REMARK    2  A    between atoms: N_4  and  C_9
REMARK    3  A    between atoms: N_5  and  C_23
REMARK    4  A    between atoms: C_7  and  C_10
REMARK    5  A    between atoms: C_12  and  C_14
REMARK    6  A    between atoms: C_12  and  C_18
REMARK    7  A    between atoms: C_12  and  C_19
REMARK    8  A    between atoms: C_12  and  C_20
REMARK    9  A    between atoms: C_14  and  C_16
REMARK   10  A    between atoms: C_15  and  C_21
REMARK   11  A    between atoms: C_17  and  C_22
REMARK   12  A    between atoms: C_18  and  C_24
REMARK                            x       y       z     vdW  Elec       q    Type
REMARK                         _______ _______ _______ _____ _____    ______ ____
ROOT
ATOM      7  C   UNL     1      15.384  -7.690  25.977  0.00  0.00    +0.047 C 
ATOM      8  C   UNL     1      16.410  -6.565  26.208  0.00  0.00    +0.039 C 
ATOM      9  C   UNL     1      17.405  -6.645  25.037  0.00  0.00    +0.097 C 
ATOM     11  C   UNL     1      16.139  -8.631  25.085  0.00  0.00    -0.021 C 
ATOM     13  C   UNL     1      17.231  -8.056  24.570  0.00  0.00    -0.009 C 
ENDROOT
BRANCH   7  10
ATOM      5  N   UNL     1      13.961  -8.648  29.214  0.00  0.00    -0.236 N 
ATOM      6  N   UNL     1      14.419  -9.863  28.868  0.00  0.00    -0.171 NA
ATOM     10  C   UNL     1      14.875  -8.307  27.260  0.00  0.00    +0.003 A 
ATOM     15  C   UNL     1      14.209  -7.680  28.285  0.00  0.00    +0.046 A 
ATOM     17  C   UNL     1      14.976  -9.649  27.673  0.00  0.00    +0.064 A 
ATOM     21  C   UNL     1      13.797  -6.272  28.451  0.00  0.00    +0.066 C 
ATOM     22  C   UNL     1      15.602 -10.771  26.952  0.00  0.00    +0.068 C 
BRANCH   5  23
ATOM     23  C   UNL     1      13.302  -8.478  30.432  0.00  0.00    +0.066 A 
ATOM     25  C   UNL     1      12.088  -9.124  30.664  0.00  0.00    +0.028 A 
ATOM     26  C   UNL     1      13.859  -7.663  31.418  0.00  0.00    +0.028 A 
ATOM     27  C   UNL     1      11.430  -8.955  31.883  0.00  0.00    +0.002 A 
ATOM     28  C   UNL     1      13.201  -7.494  32.636  0.00  0.00    +0.002 A 
ATOM     29  C   UNL     1      11.986  -8.140  32.868  0.00  0.00    +0.000 A 
ENDBRANCH   5  23
ENDBRANCH   7  10
BRANCH   9   4
ATOM      1  O   UNL     1      17.106  -3.787  25.307  0.00  0.00    -0.276 OA
ATOM      4  N   UNL     1      17.085  -5.691  23.982  0.00  0.00    -0.309 N 
ATOM     16  C   UNL     1      16.964  -4.332  24.214  0.00  0.00    +0.214 C 
ATOM     30  H   UNL     1      16.921  -6.051  23.045  0.00  0.00    +0.149 HD
BRANCH  16  14
ATOM     14  C   UNL     1      16.632  -3.538  22.961  0.00  0.00    +0.102 C 
BRANCH  14  12
ATOM     12  C   UNL     1      16.479  -2.011  23.180  0.00  0.00    -0.017 C 
ATOM     19  C   UNL     1      17.197  -1.578  24.475  0.00  0.00    +0.012 C 
ATOM     20  C   UNL     1      17.175  -1.291  22.005  0.00  0.00    +0.012 C 
BRANCH  12  18
ATOM     18  C   UNL     1      15.002  -1.562  23.279  0.00  0.00    +0.127 C 
BRANCH  18  24
ATOM      3  O   UNL     1      13.901  -3.223  21.903  0.00  0.00    -0.251 OA
ATOM     24  C   UNL     1      14.114  -2.043  22.153  0.00  0.00    +0.305 C 
BRANCH  24   2
ATOM      2  O   UNL     1      13.578  -1.026  21.433  0.00  0.00    -0.481 OA
ATOM     31  H   UNL     1      13.361  -0.253  21.996  0.00  0.00    +0.295 HD
ENDBRANCH  24   2
ENDBRANCH  18  24
ENDBRANCH  12  18
ENDBRANCH  14  12
ENDBRANCH  16  14
ENDBRANCH   9   4
TORSDOF 8
ENDMDL
