MODEL 1
REMARK VINA RESULT:      -5.6      0.000      0.000
REMARK  Name = 26743994
REMARK  5 active torsions:
REMARK  status: ('A' for Active; 'I' for Inactive)
REMARK    1  A    between atoms: O_1  and  C_14
REMARK    2  A    between atoms: N_3  and  C_10
REMARK    3  A    between atoms: C_7  and  C_10
REMARK    4  A    between atoms: C_11  and  C_15
REMARK    5  A    between atoms: C_16  and  C_17
REMARK                            x       y       z     vdW  Elec       q    Type
REMARK                         _______ _______ _______ _____ _____    ______ ____
ROOT
ATOM      3  N   UNL     1      -4.395   1.021  25.115  0.00  0.00    -0.289 NA
ATOM     11  C   UNL     1      -3.706   1.986  24.234  0.00  0.00    +0.148 C 
ATOM     12  C   UNL     1      -5.642   1.659  25.531  0.00  0.00    +0.116 C 
ATOM     13  C   UNL     1      -4.193   3.369  24.707  0.00  0.00    +0.061 C 
ATOM     14  C   UNL     1      -5.186   3.076  25.823  0.00  0.00    +0.130 C 
ENDROOT
BRANCH  11  15
ATOM      2  O   UNL     1      -1.578   2.371  25.372  0.00  0.00    -0.336 OA
ATOM      4  N   UNL     1      -1.388   1.288  23.421  0.00  0.00    -0.190 NA
ATOM      5  N   UNL     1      -0.210   2.126  25.195  0.00  0.00    -0.056 NA
ATOM     15  C   UNL     1      -2.199   1.847  24.284  0.00  0.00    +0.245 A 
ATOM     16  C   UNL     1      -0.179   1.484  24.024  0.00  0.00    +0.204 A 
BRANCH  16  17
ATOM      6  N   UNL     1       3.411   1.345  23.065  0.00  0.00    -0.263 NA
ATOM     17  C   UNL     1       1.042   1.024  23.429  0.00  0.00    +0.041 A 
ATOM     18  C   UNL     1       1.075  -0.137  22.663  0.00  0.00    +0.014 A 
ATOM     19  C   UNL     1       2.227   1.722  23.598  0.00  0.00    +0.122 A 
ATOM     20  C   UNL     1       2.274  -0.558  22.099  0.00  0.00    +0.020 A 
ATOM     21  C   UNL     1       3.404   0.211  22.328  0.00  0.00    +0.111 A 
ENDBRANCH  16  17
ENDBRANCH  11  15
BRANCH  14   1
ATOM      1  O   UNL     1      -6.263   3.991  25.791  0.00  0.00    -0.390 OA
ATOM     22  H   UNL     1      -6.379   4.338  26.693  0.00  0.00    +0.210 HD
ENDBRANCH  14   1
BRANCH   3  10
ATOM     10  C   UNL     1      -4.625  -0.272  24.483  0.00  0.00    +0.088 C 
BRANCH  10   7
ATOM      7  C   UNL     1      -3.868  -1.357  25.176  0.00  0.00    +0.003 C 
ATOM      8  C   UNL     1      -2.505  -1.736  24.677  0.00  0.00    +0.005 C 
ATOM      9  C   UNL     1      -3.663  -2.669  24.476  0.00  0.00    +0.005 C 
ENDBRANCH  10   7
ENDBRANCH   3  10
TORSDOF 5
ENDMDL
MODEL 2
REMARK VINA RESULT:      -4.0      1.835      3.340
REMARK  Name = 26743994
REMARK  5 active torsions:
REMARK  status: ('A' for Active; 'I' for Inactive)
REMARK    1  A    between atoms: O_1  and  C_14
REMARK    2  A    between atoms: N_3  and  C_10
REMARK    3  A    between atoms: C_7  and  C_10
REMARK    4  A    between atoms: C_11  and  C_15
REMARK    5  A    between atoms: C_16  and  C_17
REMARK                            x       y       z     vdW  Elec       q    Type
REMARK                         _______ _______ _______ _____ _____    ______ ____
ROOT
ATOM      3  N   UNL     1      -3.751   2.851  24.945  0.00  0.00    -0.289 NA
ATOM     11  C   UNL     1      -3.523   1.501  25.500  0.00  0.00    +0.148 C 
ATOM     12  C   UNL     1      -5.189   3.100  25.040  0.00  0.00    +0.116 C 
ATOM     13  C   UNL     1      -4.844   0.747  25.254  0.00  0.00    +0.061 C 
ATOM     14  C   UNL     1      -5.765   1.768  24.601  0.00  0.00    +0.130 C 
ENDROOT
BRANCH  11  15
ATOM      2  O   UNL     1      -2.358  -0.548  24.855  0.00  0.00    -0.336 OA
ATOM      4  N   UNL     1      -1.251   1.331  24.347  0.00  0.00    -0.190 NA
ATOM      5  N   UNL     1      -1.165  -0.953  24.243  0.00  0.00    -0.056 NA
ATOM     15  C   UNL     1      -2.329   0.810  24.878  0.00  0.00    +0.245 A 
ATOM     16  C   UNL     1      -0.568   0.211  23.972  0.00  0.00    +0.204 A 
BRANCH  16  17
ATOM      6  N   UNL     1       2.919   1.270  23.232  0.00  0.00    -0.263 NA
ATOM     17  C   UNL     1       0.711   0.290  23.327  0.00  0.00    +0.041 A 
ATOM     18  C   UNL     1       1.002  -0.492  22.214  0.00  0.00    +0.014 A 
ATOM     19  C   UNL     1       1.695   1.147  23.793  0.00  0.00    +0.122 A 
ATOM     20  C   UNL     1       2.252  -0.394  21.610  0.00  0.00    +0.020 A 
ATOM     21  C   UNL     1       3.167   0.494  22.153  0.00  0.00    +0.111 A 
ENDBRANCH  16  17
ENDBRANCH  11  15
BRANCH  14   1
ATOM      1  O   UNL     1      -7.097   1.600  25.046  0.00  0.00    -0.390 OA
ATOM     22  H   UNL     1      -7.455   0.810  24.604  0.00  0.00    +0.210 HD
ENDBRANCH  14   1
BRANCH   3  10
ATOM     10  C   UNL     1      -2.971   3.886  25.613  0.00  0.00    +0.088 C 
BRANCH  10   7
ATOM      7  C   UNL     1      -2.002   4.526  24.674  0.00  0.00    +0.003 C 
ATOM      8  C   UNL     1      -0.545   4.550  25.026  0.00  0.00    +0.005 C 
ATOM      9  C   UNL     1      -1.346   5.817  25.066  0.00  0.00    +0.005 C 
ENDBRANCH  10   7
ENDBRANCH   3  10
TORSDOF 5
ENDMDL
MODEL 3
REMARK VINA RESULT:      -3.9      1.772      2.296
REMARK  Name = 26743994
REMARK  5 active torsions:
REMARK  status: ('A' for Active; 'I' for Inactive)
REMARK    1  A    between atoms: O_1  and  C_14
REMARK    2  A    between atoms: N_3  and  C_10
REMARK    3  A    between atoms: C_7  and  C_10
REMARK    4  A    between atoms: C_11  and  C_15
REMARK    5  A    between atoms: C_16  and  C_17
REMARK                            x       y       z     vdW  Elec       q    Type
REMARK                         _______ _______ _______ _____ _____    ______ ____
ROOT
ATOM      3  N   UNL     1      -3.062   0.847  24.420  0.00  0.00    -0.289 NA
ATOM     11  C   UNL     1      -1.992   1.537  23.671  0.00  0.00    +0.148 C 
ATOM     12  C   UNL     1      -3.921   1.894  24.972  0.00  0.00    +0.116 C 
ATOM     13  C   UNL     1      -1.844   2.904  24.366  0.00  0.00    +0.061 C 
ATOM     14  C   UNL     1      -2.903   2.907  25.460  0.00  0.00    +0.130 C 
ENDROOT
BRANCH  11  15
ATOM      2  O   UNL     1      -0.800  -0.589  23.854  0.00  0.00    -0.336 OA
ATOM      4  N   UNL     1       0.526   1.170  23.451  0.00  0.00    -0.190 NA
ATOM      5  N   UNL     1       0.505  -1.093  23.787  0.00  0.00    -0.056 NA
ATOM     15  C   UNL     1      -0.699   0.750  23.646  0.00  0.00    +0.245 A 
ATOM     16  C   UNL     1       1.228   0.004  23.546  0.00  0.00    +0.204 A 
BRANCH  16  17
ATOM      6  N   UNL     1       4.730  -1.242  23.655  0.00  0.00    -0.263 NA
ATOM     17  C   UNL     1       2.654  -0.030  23.395  0.00  0.00    +0.041 A 
ATOM     18  C   UNL     1       3.345   1.055  22.865  0.00  0.00    +0.014 A 
ATOM     19  C   UNL     1       3.387  -1.144  23.770  0.00  0.00    +0.122 A 
ATOM     20  C   UNL     1       4.729   0.992  22.731  0.00  0.00    +0.020 A 
ATOM     21  C   UNL     1       5.368  -0.168  23.137  0.00  0.00    +0.111 A 
ENDBRANCH  16  17
ENDBRANCH  11  15
BRANCH  14   1
ATOM      1  O   UNL     1      -3.472   4.193  25.605  0.00  0.00    -0.390 OA
ATOM     22  H   UNL     1      -3.703   4.513  24.715  0.00  0.00    +0.210 HD
ENDBRANCH  14   1
BRANCH   3  10
ATOM     10  C   UNL     1      -3.811  -0.103  23.607  0.00  0.00    +0.088 C 
BRANCH  10   7
ATOM      7  C   UNL     1      -4.286  -1.260  24.424  0.00  0.00    +0.003 C 
ATOM      8  C   UNL     1      -3.450  -1.739  25.575  0.00  0.00    +0.005 C 
ATOM      9  C   UNL     1      -3.559  -2.570  24.331  0.00  0.00    +0.005 C 
ENDBRANCH  10   7
ENDBRANCH   3  10
TORSDOF 5
ENDMDL
MODEL 4
REMARK VINA RESULT:      -3.7      2.014      6.225
REMARK  Name = 26743994
REMARK  5 active torsions:
REMARK  status: ('A' for Active; 'I' for Inactive)
REMARK    1  A    between atoms: O_1  and  C_14
REMARK    2  A    between atoms: N_3  and  C_10
REMARK    3  A    between atoms: C_7  and  C_10
REMARK    4  A    between atoms: C_11  and  C_15
REMARK    5  A    between atoms: C_16  and  C_17
REMARK                            x       y       z     vdW  Elec       q    Type
REMARK                         _______ _______ _______ _____ _____    ______ ____
ROOT
ATOM      3  N   UNL     1      -0.060  -0.515  23.896  0.00  0.00    -0.289 NA
ATOM     11  C   UNL     1       0.297   0.771  24.527  0.00  0.00    +0.148 C 
ATOM     12  C   UNL     1       1.130  -0.969  23.178  0.00  0.00    +0.116 C 
ATOM     13  C   UNL     1       1.395   1.362  23.622  0.00  0.00    +0.061 C 
ATOM     14  C   UNL     1       1.617   0.316  22.537  0.00  0.00    +0.130 C 
ENDROOT
BRANCH  11  15
ATOM      2  O   UNL     1      -0.650   3.024  24.547  0.00  0.00    -0.336 OA
ATOM      4  N   UNL     1      -2.143   1.400  24.938  0.00  0.00    -0.190 NA
ATOM      5  N   UNL     1      -1.882   3.664  24.733  0.00  0.00    -0.056 NA
ATOM     15  C   UNL     1      -0.892   1.694  24.685  0.00  0.00    +0.245 A 
ATOM     16  C   UNL     1      -2.711   2.641  24.958  0.00  0.00    +0.204 A 
BRANCH  16  17
ATOM      6  N   UNL     1      -5.934   4.312  25.762  0.00  0.00    -0.263 NA
ATOM     17  C   UNL     1      -4.112   2.823  25.205  0.00  0.00    +0.041 A 
ATOM     18  C   UNL     1      -4.998   1.753  25.138  0.00  0.00    +0.014 A 
ATOM     19  C   UNL     1      -4.627   4.071  25.517  0.00  0.00    +0.122 A 
ATOM     20  C   UNL     1      -6.351   1.960  25.383  0.00  0.00    +0.020 A 
ATOM     21  C   UNL     1      -6.765   3.247  25.688  0.00  0.00    +0.111 A 
ENDBRANCH  16  17
ENDBRANCH  11  15
BRANCH  14   1
ATOM      1  O   UNL     1       2.983   0.241  22.184  0.00  0.00    -0.390 OA
ATOM     22  H   UNL     1       3.365   1.128  22.302  0.00  0.00    +0.210 HD
ENDBRANCH  14   1
BRANCH   3  10
ATOM     10  C   UNL     1      -0.538  -1.510  24.849  0.00  0.00    +0.088 C 
BRANCH  10   7
ATOM      7  C   UNL     1      -1.739  -2.229  24.326  0.00  0.00    +0.003 C 
ATOM      8  C   UNL     1      -3.032  -1.486  24.174  0.00  0.00    +0.005 C 
ATOM      9  C   UNL     1      -2.883  -2.515  25.254  0.00  0.00    +0.005 C 
ENDBRANCH  10   7
ENDBRANCH   3  10
TORSDOF 5
ENDMDL
MODEL 5
REMARK VINA RESULT:      -3.3      2.893      3.639
REMARK  Name = 26743994
REMARK  5 active torsions:
REMARK  status: ('A' for Active; 'I' for Inactive)
REMARK    1  A    between atoms: O_1  and  C_14
REMARK    2  A    between atoms: N_3  and  C_10
REMARK    3  A    between atoms: C_7  and  C_10
REMARK    4  A    between atoms: C_11  and  C_15
REMARK    5  A    between atoms: C_16  and  C_17
REMARK                            x       y       z     vdW  Elec       q    Type
REMARK                         _______ _______ _______ _____ _____    ______ ____
ROOT
ATOM      3  N   UNL     1      -3.953   1.484  24.960  0.00  0.00    -0.289 NA
ATOM     11  C   UNL     1      -3.124   2.679  24.700  0.00  0.00    +0.148 C 
ATOM     12  C   UNL     1      -5.341   1.942  24.990  0.00  0.00    +0.116 C 
ATOM     13  C   UNL     1      -3.940   3.855  25.271  0.00  0.00    +0.061 C 
ATOM     14  C   UNL     1      -5.228   3.227  25.787  0.00  0.00    +0.130 C 
ENDROOT
BRANCH  11  15
ATOM      2  O   UNL     1      -0.728   2.265  24.461  0.00  0.00    -0.336 OA
ATOM      4  N   UNL     1      -1.370   2.737  26.554  0.00  0.00    -0.190 NA
ATOM      5  N   UNL     1       0.434   2.223  25.243  0.00  0.00    -0.056 NA
ATOM     15  C   UNL     1      -1.743   2.573  25.310  0.00  0.00    +0.245 A 
ATOM     16  C   UNL     1      -0.027   2.512  26.464  0.00  0.00    +0.204 A 
BRANCH  16  17
ATOM      6  N   UNL     1       2.985   3.148  28.550  0.00  0.00    -0.263 NA
ATOM     17  C   UNL     1       0.828   2.585  27.613  0.00  0.00    +0.041 A 
ATOM     18  C   UNL     1       0.378   2.188  28.868  0.00  0.00    +0.014 A 
ATOM     19  C   UNL     1       2.128   3.054  27.509  0.00  0.00    +0.122 A 
ATOM     20  C   UNL     1       1.230   2.271  29.964  0.00  0.00    +0.020 A 
ATOM     21  C   UNL     1       2.512   2.753  29.755  0.00  0.00    +0.111 A 
ENDBRANCH  16  17
ENDBRANCH  11  15
BRANCH  14   1
ATOM      1  O   UNL     1      -6.330   4.084  25.559  0.00  0.00    -0.390 OA
ATOM     22  H   UNL     1      -7.047   3.545  25.182  0.00  0.00    +0.210 HD
ENDBRANCH  14   1
BRANCH   3  10
ATOM     10  C   UNL     1      -3.748   0.420  23.985  0.00  0.00    +0.088 C 
BRANCH  10   7
ATOM      7  C   UNL     1      -4.307  -0.877  24.471  0.00  0.00    +0.003 C 
ATOM      8  C   UNL     1      -3.500  -1.716  25.416  0.00  0.00    +0.005 C 
ATOM      9  C   UNL     1      -3.695  -2.162  23.998  0.00  0.00    +0.005 C 
ENDBRANCH  10   7
ENDBRANCH   3  10
TORSDOF 5
ENDMDL
MODEL 6
REMARK VINA RESULT:      -3.0      2.273      3.984
REMARK  Name = 26743994
REMARK  5 active torsions:
REMARK  status: ('A' for Active; 'I' for Inactive)
REMARK    1  A    between atoms: O_1  and  C_14
REMARK    2  A    between atoms: N_3  and  C_10
REMARK    3  A    between atoms: C_7  and  C_10
REMARK    4  A    between atoms: C_11  and  C_15
REMARK    5  A    between atoms: C_16  and  C_17
REMARK                            x       y       z     vdW  Elec       q    Type
REMARK                         _______ _______ _______ _____ _____    ______ ____
ROOT
ATOM      3  N   UNL     1      -2.372   1.732  23.471  0.00  0.00    -0.289 NA
ATOM     11  C   UNL     1      -1.554   0.891  24.369  0.00  0.00    +0.148 C 
ATOM     12  C   UNL     1      -3.768   1.472  23.817  0.00  0.00    +0.116 C 
ATOM     13  C   UNL     1      -2.455  -0.312  24.708  0.00  0.00    +0.061 C 
ATOM     14  C   UNL     1      -3.770  -0.034  23.993  0.00  0.00    +0.130 C 
ENDROOT
BRANCH  11  15
ATOM      2  O   UNL     1      -0.296  -0.021  22.483  0.00  0.00    -0.336 OA
ATOM      4  N   UNL     1       0.971   0.536  24.243  0.00  0.00    -0.190 NA
ATOM      5  N   UNL     1       1.023  -0.326  22.125  0.00  0.00    -0.056 NA
ATOM     15  C   UNL     1      -0.238   0.480  23.744  0.00  0.00    +0.245 A 
ATOM     16  C   UNL     1       1.710   0.031  23.214  0.00  0.00    +0.204 A 
BRANCH  16  17
ATOM      6  N   UNL     1       5.049  -1.474  23.857  0.00  0.00    -0.263 NA
ATOM     17  C   UNL     1       3.135  -0.104  23.305  0.00  0.00    +0.041 A 
ATOM     18  C   UNL     1       3.979   0.944  22.951  0.00  0.00    +0.014 A 
ATOM     19  C   UNL     1       3.716  -1.282  23.747  0.00  0.00    +0.122 A 
ATOM     20  C   UNL     1       5.357   0.784  23.050  0.00  0.00    +0.020 A 
ATOM     21  C   UNL     1       5.838  -0.433  23.504  0.00  0.00    +0.111 A 
ENDBRANCH  16  17
ENDBRANCH  11  15
BRANCH  14   1
ATOM      1  O   UNL     1      -4.867  -0.469  24.772  0.00  0.00    -0.390 OA
ATOM     22  H   UNL     1      -4.524  -0.711  25.650  0.00  0.00    +0.210 HD
ENDBRANCH  14   1
BRANCH   3  10
ATOM     10  C   UNL     1      -2.041   3.149  23.553  0.00  0.00    +0.088 C 
BRANCH  10   7
ATOM      7  C   UNL     1      -1.615   3.528  24.934  0.00  0.00    +0.003 C 
ATOM      8  C   UNL     1      -2.582   4.244  25.830  0.00  0.00    +0.005 C 
ATOM      9  C   UNL     1      -1.402   4.977  25.263  0.00  0.00    +0.005 C 
ENDBRANCH  10   7
ENDBRANCH   3  10
TORSDOF 5
ENDMDL
MODEL 7
REMARK VINA RESULT:      -3.0      1.939      3.573
REMARK  Name = 26743994
REMARK  5 active torsions:
REMARK  status: ('A' for Active; 'I' for Inactive)
REMARK    1  A    between atoms: O_1  and  C_14
REMARK    2  A    between atoms: N_3  and  C_10
REMARK    3  A    between atoms: C_7  and  C_10
REMARK    4  A    between atoms: C_11  and  C_15
REMARK    5  A    between atoms: C_16  and  C_17
REMARK                            x       y       z     vdW  Elec       q    Type
REMARK                         _______ _______ _______ _____ _____    ______ ____
ROOT
ATOM      3  N   UNL     1      -3.320   0.079  23.788  0.00  0.00    -0.289 NA
ATOM     11  C   UNL     1      -2.286  -0.196  24.807  0.00  0.00    +0.148 C 
ATOM     12  C   UNL     1      -4.302  -0.998  23.893  0.00  0.00    +0.116 C 
ATOM     13  C   UNL     1      -2.307  -1.727  24.985  0.00  0.00    +0.061 C 
ATOM     14  C   UNL     1      -3.414  -2.216  24.060  0.00  0.00    +0.130 C 
ENDROOT
BRANCH  11  15
ATOM      2  O   UNL     1      -0.789   1.680  24.347  0.00  0.00    -0.336 OA
ATOM      4  N   UNL     1       0.168  -0.332  24.115  0.00  0.00    -0.190 NA
ATOM      5  N   UNL     1       0.537   1.921  23.966  0.00  0.00    -0.056 NA
ATOM     15  C   UNL     1      -0.923   0.329  24.411  0.00  0.00    +0.245 A 
ATOM     16  C   UNL     1       1.036   0.687  23.849  0.00  0.00    +0.204 A 
BRANCH  16  17
ATOM      6  N   UNL     1       4.258  -1.100  23.351  0.00  0.00    -0.263 NA
ATOM     17  C   UNL     1       2.396   0.438  23.470  0.00  0.00    +0.041 A 
ATOM     18  C   UNL     1       3.168   1.430  22.874  0.00  0.00    +0.014 A 
ATOM     19  C   UNL     1       2.983  -0.799  23.683  0.00  0.00    +0.122 A 
ATOM     20  C   UNL     1       4.485   1.158  22.517  0.00  0.00    +0.020 A 
ATOM     21  C   UNL     1       4.978  -0.111  22.774  0.00  0.00    +0.111 A 
ENDBRANCH  16  17
ENDBRANCH  11  15
BRANCH  14   1
ATOM      1  O   UNL     1      -4.112  -3.299  24.641  0.00  0.00    -0.390 OA
ATOM     22  H   UNL     1      -4.884  -2.934  25.106  0.00  0.00    +0.210 HD
ENDBRANCH  14   1
BRANCH   3  10
ATOM     10  C   UNL     1      -3.931   1.394  23.931  0.00  0.00    +0.088 C 
BRANCH  10   7
ATOM      7  C   UNL     1      -4.750   1.480  25.178  0.00  0.00    +0.003 C 
ATOM      8  C   UNL     1      -6.187   1.898  25.085  0.00  0.00    +0.005 C 
ATOM      9  C   UNL     1      -5.174   2.827  25.685  0.00  0.00    +0.005 C 
ENDBRANCH  10   7
ENDBRANCH   3  10
TORSDOF 5
ENDMDL
MODEL 8
REMARK VINA RESULT:      -2.8      2.202      3.275
REMARK  Name = 26743994
REMARK  5 active torsions:
REMARK  status: ('A' for Active; 'I' for Inactive)
REMARK    1  A    between atoms: O_1  and  C_14
REMARK    2  A    between atoms: N_3  and  C_10
REMARK    3  A    between atoms: C_7  and  C_10
REMARK    4  A    between atoms: C_11  and  C_15
REMARK    5  A    between atoms: C_16  and  C_17
REMARK                            x       y       z     vdW  Elec       q    Type
REMARK                         _______ _______ _______ _____ _____    ______ ____
ROOT
ATOM      3  N   UNL     1      -1.681   2.122  25.300  0.00  0.00    -0.289 NA
ATOM     11  C   UNL     1      -1.131   2.348  23.947  0.00  0.00    +0.148 C 
ATOM     12  C   UNL     1      -2.180   3.415  25.764  0.00  0.00    +0.116 C 
ATOM     13  C   UNL     1      -0.692   3.824  23.942  0.00  0.00    +0.061 C 
ATOM     14  C   UNL     1      -1.077   4.355  25.317  0.00  0.00    +0.130 C 
ENDROOT
BRANCH  11  15
ATOM      2  O   UNL     1      -0.339   0.264  22.947  0.00  0.00    -0.336 OA
ATOM      4  N   UNL     1       1.278   1.507  23.871  0.00  0.00    -0.190 NA
ATOM      5  N   UNL     1       0.855  -0.444  22.753  0.00  0.00    -0.056 NA
ATOM     15  C   UNL     1      -0.001   1.399  23.612  0.00  0.00    +0.245 A 
ATOM     16  C   UNL     1       1.761   0.354  23.325  0.00  0.00    +0.204 A 
BRANCH  16  17
ATOM      6  N   UNL     1       5.450   0.716  23.022  0.00  0.00    -0.263 NA
ATOM     17  C   UNL     1       3.158   0.028  23.367  0.00  0.00    +0.041 A 
ATOM     18  C   UNL     1       3.589  -1.231  23.771  0.00  0.00    +0.014 A 
ATOM     19  C   UNL     1       4.120   0.958  23.006  0.00  0.00    +0.122 A 
ATOM     20  C   UNL     1       4.950  -1.518  23.801  0.00  0.00    +0.020 A 
ATOM     21  C   UNL     1       5.831  -0.519  23.421  0.00  0.00    +0.111 A 
ENDBRANCH  16  17
ENDBRANCH  11  15
BRANCH  14   1
ATOM      1  O   UNL     1      -1.530   5.692  25.231  0.00  0.00    -0.390 OA
ATOM     22  H   UNL     1      -2.488   5.687  25.399  0.00  0.00    +0.210 HD
ENDBRANCH  14   1
BRANCH   3  10
ATOM     10  C   UNL     1      -2.711   1.092  25.337  0.00  0.00    +0.088 C 
BRANCH  10   7
ATOM      7  C   UNL     1      -3.892   1.474  24.507  0.00  0.00    +0.003 C 
ATOM      8  C   UNL     1      -5.021   2.231  25.141  0.00  0.00    +0.005 C 
ATOM      9  C   UNL     1      -5.208   0.795  24.748  0.00  0.00    +0.005 C 
ENDBRANCH  10   7
ENDBRANCH   3  10
TORSDOF 5
ENDMDL
