MODEL 1
REMARK VINA RESULT:      -4.3      0.000      0.000
REMARK  Name = 26743880
REMARK  6 active torsions:
REMARK  status: ('A' for Active; 'I' for Inactive)
REMARK    1  A    between atoms: O_1  and  C_10
REMARK    2  A    between atoms: N_3  and  C_12
REMARK    3  A    between atoms: C_8  and  C_13
REMARK    4  A    between atoms: C_12  and  C_14
REMARK    5  A    between atoms: C_15  and  C_16
REMARK    6  A    between atoms: C_21  and  C_24
REMARK                            x       y       z     vdW  Elec       q    Type
REMARK                         _______ _______ _______ _____ _____    ______ ____
ROOT
ATOM      3  N   UNL     1      -4.663   1.373  25.217  0.00  0.00    -0.282 NA
ATOM      8  C   UNL     1      -3.910   2.189  24.243  0.00  0.00    +0.149 C 
ATOM      9  C   UNL     1      -4.196   3.647  24.648  0.00  0.00    +0.061 C 
ATOM     10  C   UNL     1      -5.156   3.548  25.827  0.00  0.00    +0.130 C 
ATOM     11  C   UNL     1      -5.798   2.185  25.650  0.00  0.00    +0.117 C 
ENDROOT
BRANCH   8  13
ATOM      2  O   UNL     1      -1.733   2.178  25.355  0.00  0.00    -0.336 OA
ATOM      4  N   UNL     1      -1.707   1.320  23.286  0.00  0.00    -0.190 NA
ATOM      7  N   UNL     1      -0.410   1.792  25.110  0.00  0.00    -0.056 NA
ATOM     13  C   UNL     1      -2.430   1.865  24.232  0.00  0.00    +0.245 A 
ATOM     15  C   UNL     1      -0.475   1.295  23.871  0.00  0.00    +0.202 A 
BRANCH  15  16
ATOM     16  C   UNL     1       0.672   0.767  23.190  0.00  0.00    +0.023 A 
ATOM     19  C   UNL     1       1.953   1.181  23.557  0.00  0.00    +0.015 A 
ATOM     20  C   UNL     1       0.506  -0.160  22.162  0.00  0.00    +0.012 A 
ATOM     21  C   UNL     1       3.068   0.667  22.895  0.00  0.00    -0.050 A 
ATOM     22  C   UNL     1       1.622  -0.674  21.500  0.00  0.00    +0.001 A 
ATOM     23  C   UNL     1       2.903  -0.261  21.867  0.00  0.00    +0.003 A 
ATOM     24  C   UNL     1       4.438   1.110  23.287  0.00  0.00    +0.044 C 
ENDBRANCH  15  16
ENDBRANCH   8  13
BRANCH  10   1
ATOM      1  O   UNL     1      -6.112   4.590  25.785  0.00  0.00    -0.390 OA
ATOM     25  H   UNL     1      -5.649   5.400  25.511  0.00  0.00    +0.210 HD
ENDBRANCH  10   1
BRANCH   3  12
ATOM     12  C   UNL     1      -5.083   0.084  24.682  0.00  0.00    +0.159 C 
BRANCH  12  14
ATOM      5  N   UNL     1      -2.919  -0.805  25.579  0.00  0.00    -0.347 N 
ATOM      6  N   UNL     1      -3.856  -1.998  23.958  0.00  0.00    -0.239 NA
ATOM     14  C   UNL     1      -3.968  -0.927  24.711  0.00  0.00    +0.121 A 
ATOM     17  C   UNL     1      -2.084  -1.865  25.363  0.00  0.00    +0.104 A 
ATOM     18  C   UNL     1      -2.683  -2.587  24.359  0.00  0.00    +0.130 A 
ATOM     26  H   UNL     1      -2.783  -0.067  26.257  0.00  0.00    +0.167 HD
ENDBRANCH  12  14
ENDBRANCH   3  12
TORSDOF 5
ENDMDL
MODEL 2
REMARK VINA RESULT:      -3.3      1.965      6.314
REMARK  Name = 26743880
REMARK  6 active torsions:
REMARK  status: ('A' for Active; 'I' for Inactive)
REMARK    1  A    between atoms: O_1  and  C_10
REMARK    2  A    between atoms: N_3  and  C_12
REMARK    3  A    between atoms: C_8  and  C_13
REMARK    4  A    between atoms: C_12  and  C_14
REMARK    5  A    between atoms: C_15  and  C_16
REMARK    6  A    between atoms: C_21  and  C_24
REMARK                            x       y       z     vdW  Elec       q    Type
REMARK                         _______ _______ _______ _____ _____    ______ ____
ROOT
ATOM      3  N   UNL     1       0.300  -0.483  23.834  0.00  0.00    -0.282 NA
ATOM      8  C   UNL     1       0.831   0.768  24.413  0.00  0.00    +0.149 C 
ATOM      9  C   UNL     1       1.786   1.323  23.340  0.00  0.00    +0.061 C 
ATOM     10  C   UNL     1       1.761   0.292  22.218  0.00  0.00    +0.130 C 
ATOM     11  C   UNL     1       1.321  -0.981  22.915  0.00  0.00    +0.117 C 
ENDROOT
BRANCH   8  13
ATOM      2  O   UNL     1       0.143   2.949  25.274  0.00  0.00    -0.336 OA
ATOM      4  N   UNL     1      -1.562   1.609  24.712  0.00  0.00    -0.190 NA
ATOM      7  N   UNL     1      -1.026   3.671  25.544  0.00  0.00    -0.056 NA
ATOM     13  C   UNL     1      -0.262   1.747  24.787  0.00  0.00    +0.245 A 
ATOM     15  C   UNL     1      -1.988   2.815  25.187  0.00  0.00    +0.202 A 
BRANCH  15  16
ATOM     16  C   UNL     1      -3.383   3.133  25.292  0.00  0.00    +0.023 A 
ATOM     19  C   UNL     1      -4.344   2.158  25.023  0.00  0.00    +0.015 A 
ATOM     20  C   UNL     1      -3.778   4.418  25.664  0.00  0.00    +0.012 A 
ATOM     21  C   UNL     1      -5.700   2.468  25.126  0.00  0.00    -0.050 A 
ATOM     22  C   UNL     1      -5.135   4.727  25.768  0.00  0.00    +0.001 A 
ATOM     23  C   UNL     1      -6.095   3.752  25.499  0.00  0.00    +0.003 A 
ATOM     24  C   UNL     1      -6.727   1.425  24.838  0.00  0.00    +0.044 C 
ENDBRANCH  15  16
ENDBRANCH   8  13
BRANCH  10   1
ATOM      1  O   UNL     1       3.041   0.157  21.633  0.00  0.00    -0.390 OA
ATOM     25  H   UNL     1       3.596   0.879  21.974  0.00  0.00    +0.210 HD
ENDBRANCH  10   1
BRANCH   3  12
ATOM     12  C   UNL     1      -0.062  -1.473  24.841  0.00  0.00    +0.159 C 
BRANCH  12  14
ATOM      5  N   UNL     1      -2.397  -1.018  25.627  0.00  0.00    -0.347 N 
ATOM      6  N   UNL     1      -2.176  -2.669  24.160  0.00  0.00    -0.239 NA
ATOM     14  C   UNL     1      -1.542  -1.749  24.851  0.00  0.00    +0.121 A 
ATOM     17  C   UNL     1      -3.657  -1.504  25.419  0.00  0.00    +0.104 A 
ATOM     18  C   UNL     1      -3.495  -2.523  24.510  0.00  0.00    +0.130 A 
ATOM     26  H   UNL     1      -2.147  -0.256  26.243  0.00  0.00    +0.167 HD
ENDBRANCH  12  14
ENDBRANCH   3  12
TORSDOF 5
ENDMDL
MODEL 3
REMARK VINA RESULT:      -2.5      1.626      2.110
REMARK  Name = 26743880
REMARK  6 active torsions:
REMARK  status: ('A' for Active; 'I' for Inactive)
REMARK    1  A    between atoms: O_1  and  C_10
REMARK    2  A    between atoms: N_3  and  C_12
REMARK    3  A    between atoms: C_8  and  C_13
REMARK    4  A    between atoms: C_12  and  C_14
REMARK    5  A    between atoms: C_15  and  C_16
REMARK    6  A    between atoms: C_21  and  C_24
REMARK                            x       y       z     vdW  Elec       q    Type
REMARK                         _______ _______ _______ _____ _____    ______ ____
ROOT
ATOM      3  N   UNL     1      -3.286   1.639  24.900  0.00  0.00    -0.282 NA
ATOM      8  C   UNL     1      -2.242   2.287  24.079  0.00  0.00    +0.149 C 
ATOM      9  C   UNL     1      -1.914   3.596  24.821  0.00  0.00    +0.061 C 
ATOM     10  C   UNL     1      -2.856   3.616  26.019  0.00  0.00    +0.130 C 
ATOM     11  C   UNL     1      -3.997   2.713  25.590  0.00  0.00    +0.117 C 
ENDROOT
BRANCH   8  13
ATOM      2  O   UNL     1      -1.243   0.065  23.886  0.00  0.00    -0.336 OA
ATOM      4  N   UNL     1       0.225   1.747  23.702  0.00  0.00    -0.190 NA
ATOM      7  N   UNL     1       0.009  -0.530  23.688  0.00  0.00    -0.056 NA
ATOM     13  C   UNL     1      -1.027   1.406  23.880  0.00  0.00    +0.245 A 
ATOM     15  C   UNL     1       0.822   0.525  23.588  0.00  0.00    +0.202 A 
BRANCH  15  16
ATOM     16  C   UNL     1       2.235   0.394  23.376  0.00  0.00    +0.023 A 
ATOM     19  C   UNL     1       2.884  -0.793  23.717  0.00  0.00    +0.015 A 
ATOM     20  C   UNL     1       2.958   1.453  22.827  0.00  0.00    +0.012 A 
ATOM     21  C   UNL     1       4.258  -0.920  23.510  0.00  0.00    -0.050 A 
ATOM     22  C   UNL     1       4.332   1.324  22.619  0.00  0.00    +0.001 A 
ATOM     23  C   UNL     1       4.982   0.137  22.960  0.00  0.00    +0.003 A 
ATOM     24  C   UNL     1       4.952  -2.189  23.875  0.00  0.00    +0.044 C 
ENDBRANCH  15  16
ENDBRANCH   8  13
BRANCH  10   1
ATOM      1  O   UNL     1      -3.299   4.932  26.286  0.00  0.00    -0.390 OA
ATOM     25  H   UNL     1      -2.766   5.537  25.743  0.00  0.00    +0.210 HD
ENDBRANCH  10   1
BRANCH   3  12
ATOM     12  C   UNL     1      -4.186   0.796  24.123  0.00  0.00    +0.159 C 
BRANCH  12  14
ATOM      5  N   UNL     1      -3.413  -1.100  25.568  0.00  0.00    -0.347 N 
ATOM      6  N   UNL     1      -4.225  -1.668  23.581  0.00  0.00    -0.239 NA
ATOM     14  C   UNL     1      -3.955  -0.668  24.390  0.00  0.00    +0.121 A 
ATOM     17  C   UNL     1      -3.331  -2.463  25.506  0.00  0.00    +0.104 A 
ATOM     18  C   UNL     1      -3.838  -2.789  24.270  0.00  0.00    +0.130 A 
ATOM     26  H   UNL     1      -3.125  -0.520  26.345  0.00  0.00    +0.167 HD
ENDBRANCH  12  14
ENDBRANCH   3  12
TORSDOF 5
ENDMDL
MODEL 4
REMARK VINA RESULT:      -2.0      2.001      3.595
REMARK  Name = 26743880
REMARK  6 active torsions:
REMARK  status: ('A' for Active; 'I' for Inactive)
REMARK    1  A    between atoms: O_1  and  C_10
REMARK    2  A    between atoms: N_3  and  C_12
REMARK    3  A    between atoms: C_8  and  C_13
REMARK    4  A    between atoms: C_12  and  C_14
REMARK    5  A    between atoms: C_15  and  C_16
REMARK    6  A    between atoms: C_21  and  C_24
REMARK                            x       y       z     vdW  Elec       q    Type
REMARK                         _______ _______ _______ _____ _____    ______ ____
ROOT
ATOM      3  N   UNL     1      -3.829   2.725  25.298  0.00  0.00    -0.282 NA
ATOM      8  C   UNL     1      -3.720   1.317  25.731  0.00  0.00    +0.149 C 
ATOM      9  C   UNL     1      -5.000   0.642  25.204  0.00  0.00    +0.061 C 
ATOM     10  C   UNL     1      -5.786   1.760  24.530  0.00  0.00    +0.130 C 
ATOM     11  C   UNL     1      -5.258   3.017  25.196  0.00  0.00    +0.117 C 
ENDROOT
BRANCH   8  13
ATOM      2  O   UNL     1      -2.037  -0.446  25.915  0.00  0.00    -0.336 OA
ATOM      4  N   UNL     1      -1.693   0.973  24.216  0.00  0.00    -0.190 NA
ATOM      7  N   UNL     1      -0.870  -0.881  25.274  0.00  0.00    -0.056 NA
ATOM     13  C   UNL     1      -2.457   0.649  25.229  0.00  0.00    +0.245 A 
ATOM     15  C   UNL     1      -0.733   0.006  24.283  0.00  0.00    +0.202 A 
BRANCH  15  16
ATOM     16  C   UNL     1       0.350  -0.047  23.345  0.00  0.00    +0.023 A 
ATOM     19  C   UNL     1       1.588   0.505  23.676  0.00  0.00    +0.015 A 
ATOM     20  C   UNL     1       0.167  -0.652  22.101  0.00  0.00    +0.012 A 
ATOM     21  C   UNL     1       2.642   0.453  22.764  0.00  0.00    -0.050 A 
ATOM     22  C   UNL     1       1.221  -0.704  21.190  0.00  0.00    +0.001 A 
ATOM     23  C   UNL     1       2.459  -0.152  21.521  0.00  0.00    +0.003 A 
ATOM     24  C   UNL     1       3.965   1.044  23.118  0.00  0.00    +0.044 C 
ENDBRANCH  15  16
ENDBRANCH   8  13
BRANCH  10   1
ATOM      1  O   UNL     1      -7.174   1.596  24.744  0.00  0.00    -0.390 OA
ATOM     25  H   UNL     1      -7.384   1.982  25.611  0.00  0.00    +0.210 HD
ENDBRANCH  10   1
BRANCH   3  12
ATOM     12  C   UNL     1      -3.142   3.654  26.186  0.00  0.00    +0.159 C 
BRANCH  12  14
ATOM      5  N   UNL     1      -0.847   3.570  25.182  0.00  0.00    -0.347 N 
ATOM      6  N   UNL     1      -1.829   5.561  25.184  0.00  0.00    -0.239 NA
ATOM     14  C   UNL     1      -1.956   4.296  25.517  0.00  0.00    +0.121 A 
ATOM     17  C   UNL     1       0.043   4.426  24.598  0.00  0.00    +0.104 A 
ATOM     18  C   UNL     1      -0.585   5.649  24.612  0.00  0.00    +0.130 A 
ATOM     26  H   UNL     1      -0.710   2.579  25.335  0.00  0.00    +0.167 HD
ENDBRANCH  12  14
ENDBRANCH   3  12
TORSDOF 5
ENDMDL
MODEL 5
REMARK VINA RESULT:      -1.6      3.319      4.199
REMARK  Name = 26743880
REMARK  6 active torsions:
REMARK  status: ('A' for Active; 'I' for Inactive)
REMARK    1  A    between atoms: O_1  and  C_10
REMARK    2  A    between atoms: N_3  and  C_12
REMARK    3  A    between atoms: C_8  and  C_13
REMARK    4  A    between atoms: C_12  and  C_14
REMARK    5  A    between atoms: C_15  and  C_16
REMARK    6  A    between atoms: C_21  and  C_24
REMARK                            x       y       z     vdW  Elec       q    Type
REMARK                         _______ _______ _______ _____ _____    ______ ____
ROOT
ATOM      3  N   UNL     1      -3.927   1.700  24.718  0.00  0.00    -0.282 NA
ATOM      8  C   UNL     1      -3.094   2.920  24.696  0.00  0.00    +0.149 C 
ATOM      9  C   UNL     1      -3.930   3.980  25.439  0.00  0.00    +0.061 C 
ATOM     10  C   UNL     1      -5.233   3.274  25.797  0.00  0.00    +0.130 C 
ATOM     11  C   UNL     1      -5.316   2.147  24.785  0.00  0.00    +0.117 C 
ENDROOT
BRANCH   8  13
ATOM      2  O   UNL     1      -0.770   2.190  24.513  0.00  0.00    -0.336 OA
ATOM      4  N   UNL     1      -1.332   2.949  26.544  0.00  0.00    -0.190 NA
ATOM      7  N   UNL     1       0.383   2.085  25.301  0.00  0.00    -0.056 NA
ATOM     13  C   UNL     1      -1.731   2.707  25.321  0.00  0.00    +0.245 A 
ATOM     15  C   UNL     1      -0.028   2.552  26.484  0.00  0.00    +0.202 A 
BRANCH  15  16
ATOM     16  C   UNL     1       0.839   2.634  27.624  0.00  0.00    +0.023 A 
ATOM     19  C   UNL     1       0.327   2.428  28.906  0.00  0.00    +0.015 A 
ATOM     20  C   UNL     1       2.193   2.920  27.451  0.00  0.00    +0.012 A 
ATOM     21  C   UNL     1       1.170   2.508  30.014  0.00  0.00    -0.050 A 
ATOM     22  C   UNL     1       3.036   2.998  28.560  0.00  0.00    +0.001 A 
ATOM     23  C   UNL     1       2.524   2.792  29.841  0.00  0.00    +0.003 A 
ATOM     24  C   UNL     1       0.623   2.287  31.384  0.00  0.00    +0.044 C 
ENDBRANCH  15  16
ENDBRANCH   8  13
BRANCH  10   1
ATOM      1  O   UNL     1      -6.329   4.161  25.689  0.00  0.00    -0.390 OA
ATOM     25  H   UNL     1      -6.814   3.928  24.879  0.00  0.00    +0.210 HD
ENDBRANCH  10   1
BRANCH   3  12
ATOM     12  C   UNL     1      -3.688   0.822  23.580  0.00  0.00    +0.159 C 
BRANCH  12  14
ATOM      5  N   UNL     1      -4.214  -1.598  23.961  0.00  0.00    -0.347 N 
ATOM      6  N   UNL     1      -2.147  -0.966  24.470  0.00  0.00    -0.239 NA
ATOM     14  C   UNL     1      -3.314  -0.570  24.013  0.00  0.00    +0.121 A 
ATOM     17  C   UNL     1      -3.581  -2.721  24.415  0.00  0.00    +0.104 A 
ATOM     18  C   UNL     1      -2.307  -2.305  24.724  0.00  0.00    +0.130 A 
ATOM     26  H   UNL     1      -5.172  -1.541  23.643  0.00  0.00    +0.167 HD
ENDBRANCH  12  14
ENDBRANCH   3  12
TORSDOF 5
ENDMDL
