MODEL 1
REMARK VINA RESULT:       6.2      0.000      0.000
REMARK  Name = 11882028
REMARK  10 active torsions:
REMARK  status: ('A' for Active; 'I' for Inactive)
REMARK    1  A    between atoms: N_6  and  C_11
REMARK    2  A    between atoms: N_7  and  C_15
REMARK    3  A    between atoms: N_8  and  C_24
REMARK    4  A    between atoms: C_12  and  C_21
REMARK    5  A    between atoms: C_23  and  C_25
REMARK    6  A    between atoms: C_24  and  C_26
REMARK    7  A    between atoms: C_24  and  C_28
REMARK    8  A    between atoms: C_26  and  C_27
REMARK    9  A    between atoms: C_29  and  C_33
REMARK   10  A    between atoms: C_29  and  C_34
REMARK                            x       y       z     vdW  Elec       q    Type
REMARK                         _______ _______ _______ _____ _____    ______ ____
ROOT
ATOM      3  O   UNL     1       3.852   2.420  22.960  0.00  0.00    -0.271 OA
ATOM      5  N   UNL     1       2.379   0.643  22.756  0.00  0.00    -0.285 N 
ATOM     11  C   UNL     1       0.548  -0.874  22.652  0.00  0.00    +0.094 C 
ATOM     12  C   UNL     1       1.174   1.457  22.678  0.00  0.00    +0.164 C 
ATOM     13  C   UNL     1       0.082   0.508  22.190  0.00  0.00    +0.056 C 
ATOM     14  C   UNL     1       2.069  -0.779  22.587  0.00  0.00    +0.131 C 
ATOM     23  C   UNL     1       3.639   1.216  22.817  0.00  0.00    +0.240 C 
ENDROOT
BRANCH  11   6
ATOM      2  O   UNL     1      -2.182  -1.218  23.487  0.00  0.00    -0.253 OA
ATOM      6  N   UNL     1       0.085  -1.179  23.982  0.00  0.00    -0.295 N 
ATOM      7  N   UNL     1      -1.438  -1.620  25.649  0.00  0.00    -0.297 N 
ATOM     22  C   UNL     1      -1.264  -1.329  24.299  0.00  0.00    +0.300 C 
ATOM     39  H   UNL     1       0.768  -1.344  24.715  0.00  0.00    +0.151 HD
ATOM     40  H   UNL     1      -0.606  -1.757  26.217  0.00  0.00    +0.151 HD
BRANCH   7  15
ATOM     15  C   UNL     1      -2.735  -1.827  26.253  0.00  0.00    +0.074 C 
ATOM     16  C   UNL     1      -3.264  -3.234  25.956  0.00  0.00    +0.022 C 
ATOM     17  C   UNL     1      -3.731  -0.752  25.801  0.00  0.00    +0.022 C 
ATOM     18  C   UNL     1      -3.690  -3.403  24.497  0.00  0.00    +0.002 C 
ATOM     19  C   UNL     1      -4.156  -0.924  24.344  0.00  0.00    +0.002 C 
ATOM     20  C   UNL     1      -4.688  -2.329  24.075  0.00  0.00    +0.000 C 
ENDBRANCH   7  15
ENDBRANCH  11   6
BRANCH  12  21
ATOM      1  O   UNL     1       1.256   1.435  25.065  0.00  0.00    -0.274 OA
ATOM      8  N   UNL     1       0.096   3.145  23.992  0.00  0.00    -0.302 N 
ATOM     21  C   UNL     1       0.866   1.996  24.044  0.00  0.00    +0.234 C 
ATOM     41  H   UNL     1      -0.087   3.572  23.088  0.00  0.00    +0.150 HD
BRANCH   8  24
ATOM     24  C   UNL     1      -0.356   3.848  25.171  0.00  0.00    +0.163 C 
BRANCH  24  28
ATOM      4  O   UNL     1      -0.308   5.842  23.782  0.00  0.00    -0.274 OA
ATOM     10  N   UNL     1      -1.887   5.698  25.446  0.00  0.00    -0.328 N 
ATOM     28  C   UNL     1      -0.811   5.228  24.721  0.00  0.00    +0.231 C 
ATOM     43  H   UNL     1      -2.306   5.170  26.204  0.00  0.00    +0.145 HD
ATOM     44  H   UNL     1      -2.298   6.602  25.239  0.00  0.00    +0.145 HD
ENDBRANCH  24  28
BRANCH  24  26
ATOM     26  C   UNL     1      -1.497   3.112  25.885  0.00  0.00    +0.069 C 
BRANCH  26  27
ATOM      9  N   UNL     1      -3.777   2.215  23.145  0.00  0.00    -0.360 N 
ATOM     27  C   UNL     1      -2.631   2.752  24.968  0.00  0.00    -0.020 A 
ATOM     30  C   UNL     1      -3.998   2.603  25.331  0.00  0.00    +0.003 A 
ATOM     31  C   UNL     1      -2.525   2.507  23.618  0.00  0.00    +0.087 A 
ATOM     32  C   UNL     1      -4.696   2.266  24.169  0.00  0.00    +0.047 A 
ATOM     35  C   UNL     1      -4.713   2.723  26.540  0.00  0.00    +0.010 A 
ATOM     36  C   UNL     1      -6.077   2.042  24.156  0.00  0.00    +0.026 A 
ATOM     37  C   UNL     1      -6.094   2.502  26.541  0.00  0.00    +0.001 A 
ATOM     38  C   UNL     1      -6.764   2.167  25.366  0.00  0.00    +0.002 A 
ATOM     42  H   UNL     1      -3.995   1.994  22.184  0.00  0.00    +0.165 HD
ENDBRANCH  26  27
ENDBRANCH  24  26
ENDBRANCH   8  24
ENDBRANCH  12  21
BRANCH  23  25
ATOM     25  C   UNL     1       4.792   0.302  22.704  0.00  0.00    +0.066 C 
ATOM     29  C   UNL     1       5.616  -0.022  23.714  0.00  0.00    -0.071 C 
ATOM     33  C   UNL     1       5.388   0.566  25.083  0.00  0.00    +0.039 C 
ATOM     34  C   UNL     1       6.799  -0.949  23.638  0.00  0.00    +0.039 C 
ENDBRANCH  23  25
TORSDOF 8
ENDMDL
MODEL 2
REMARK VINA RESULT:       6.3      2.363      8.124
REMARK  Name = 11882028
REMARK  10 active torsions:
REMARK  status: ('A' for Active; 'I' for Inactive)
REMARK    1  A    between atoms: N_6  and  C_11
REMARK    2  A    between atoms: N_7  and  C_15
REMARK    3  A    between atoms: N_8  and  C_24
REMARK    4  A    between atoms: C_12  and  C_21
REMARK    5  A    between atoms: C_23  and  C_25
REMARK    6  A    between atoms: C_24  and  C_26
REMARK    7  A    between atoms: C_24  and  C_28
REMARK    8  A    between atoms: C_26  and  C_27
REMARK    9  A    between atoms: C_29  and  C_33
REMARK   10  A    between atoms: C_29  and  C_34
REMARK                            x       y       z     vdW  Elec       q    Type
REMARK                         _______ _______ _______ _____ _____    ______ ____
ROOT
ATOM      3  O   UNL     1      -3.509   0.042  23.841  0.00  0.00    -0.271 OA
ATOM      5  N   UNL     1      -3.040   2.185  24.588  0.00  0.00    -0.285 N 
ATOM     11  C   UNL     1      -2.224   4.373  25.046  0.00  0.00    +0.094 C 
ATOM     12  C   UNL     1      -2.199   2.554  23.459  0.00  0.00    +0.164 C 
ATOM     13  C   UNL     1      -2.042   4.070  23.557  0.00  0.00    +0.056 C 
ATOM     14  C   UNL     1      -3.216   3.311  25.509  0.00  0.00    +0.131 C 
ATOM     23  C   UNL     1      -3.690   0.962  24.639  0.00  0.00    +0.240 C 
ENDROOT
BRANCH  11   6
ATOM      2  O   UNL     1      -1.139   2.056  26.356  0.00  0.00    -0.253 OA
ATOM      6  N   UNL     1      -0.977   4.293  25.765  0.00  0.00    -0.295 N 
ATOM      7  N   UNL     1       0.702   3.317  26.998  0.00  0.00    -0.297 N 
ATOM     22  C   UNL     1      -0.527   3.123  26.373  0.00  0.00    +0.300 C 
ATOM     39  H   UNL     1      -0.371   5.108  25.790  0.00  0.00    +0.151 HD
ATOM     40  H   UNL     1       1.152   4.221  26.890  0.00  0.00    +0.151 HD
BRANCH   7  15
ATOM     15  C   UNL     1       1.403   2.270  27.707  0.00  0.00    +0.074 C 
ATOM     16  C   UNL     1       0.593   1.783  28.913  0.00  0.00    +0.022 C 
ATOM     17  C   UNL     1       2.803   2.732  28.128  0.00  0.00    +0.022 C 
ATOM     18  C   UNL     1       0.558   2.809  30.047  0.00  0.00    +0.002 C 
ATOM     19  C   UNL     1       2.764   3.756  29.262  0.00  0.00    +0.002 C 
ATOM     20  C   UNL     1       1.962   3.244  30.455  0.00  0.00    +0.000 C 
ENDBRANCH   7  15
ENDBRANCH  11   6
BRANCH  12  21
ATOM      1  O   UNL     1       0.185   2.434  23.387  0.00  0.00    -0.274 OA
ATOM      8  N   UNL     1      -1.025   0.520  23.929  0.00  0.00    -0.302 N 
ATOM     21  C   UNL     1      -0.879   1.854  23.589  0.00  0.00    +0.234 C 
ATOM     41  H   UNL     1      -1.950   0.173  24.165  0.00  0.00    +0.150 HD
BRANCH   8  24
ATOM     24  C   UNL     1       0.093  -0.381  24.093  0.00  0.00    +0.163 C 
BRANCH  24  28
ATOM      4  O   UNL     1      -1.349  -2.332  23.942  0.00  0.00    -0.274 OA
ATOM     10  N   UNL     1       0.135  -2.195  25.691  0.00  0.00    -0.328 N 
ATOM     28  C   UNL     1      -0.474  -1.718  24.549  0.00  0.00    +0.231 C 
ATOM     43  H   UNL     1       0.872  -1.687  26.169  0.00  0.00    +0.145 HD
ATOM     44  H   UNL     1      -0.139  -3.084  26.094  0.00  0.00    +0.145 HD
ENDBRANCH  24  28
BRANCH  24  26
ATOM     26  C   UNL     1       0.897  -0.552  22.799  0.00  0.00    +0.069 C 
BRANCH  26  27
ATOM      9  N   UNL     1       3.831   1.659  22.654  0.00  0.00    -0.360 N 
ATOM     27  C   UNL     1       2.237   0.125  22.845  0.00  0.00    -0.020 A 
ATOM     30  C   UNL     1       3.462  -0.449  23.286  0.00  0.00    +0.003 A 
ATOM     31  C   UNL     1       2.495   1.422  22.462  0.00  0.00    +0.087 A 
ATOM     32  C   UNL     1       4.445   0.534  23.155  0.00  0.00    +0.047 A 
ATOM     35  C   UNL     1       3.830  -1.714  23.785  0.00  0.00    +0.010 A 
ATOM     36  C   UNL     1       5.783   0.314  23.501  0.00  0.00    +0.026 A 
ATOM     37  C   UNL     1       5.164  -1.949  24.134  0.00  0.00    +0.001 A 
ATOM     38  C   UNL     1       6.125  -0.949  23.993  0.00  0.00    +0.002 A 
ATOM     42  H   UNL     1       4.297   2.532  22.455  0.00  0.00    +0.165 HD
ENDBRANCH  26  27
ENDBRANCH  24  26
ENDBRANCH   8  24
ENDBRANCH  12  21
BRANCH  23  25
ATOM     25  C   UNL     1      -4.660   0.769  25.734  0.00  0.00    +0.066 C 
ATOM     29  C   UNL     1      -5.837   1.410  25.838  0.00  0.00    -0.071 C 
ATOM     33  C   UNL     1      -6.239   2.410  24.784  0.00  0.00    +0.039 C 
ATOM     34  C   UNL     1      -6.850   1.241  26.936  0.00  0.00    +0.039 C 
ENDBRANCH  23  25
TORSDOF 8
ENDMDL
MODEL 3
REMARK VINA RESULT:       6.7      1.670      5.815
REMARK  Name = 11882028
REMARK  10 active torsions:
REMARK  status: ('A' for Active; 'I' for Inactive)
REMARK    1  A    between atoms: N_6  and  C_11
REMARK    2  A    between atoms: N_7  and  C_15
REMARK    3  A    between atoms: N_8  and  C_24
REMARK    4  A    between atoms: C_12  and  C_21
REMARK    5  A    between atoms: C_23  and  C_25
REMARK    6  A    between atoms: C_24  and  C_26
REMARK    7  A    between atoms: C_24  and  C_28
REMARK    8  A    between atoms: C_26  and  C_27
REMARK    9  A    between atoms: C_29  and  C_33
REMARK   10  A    between atoms: C_29  and  C_34
REMARK                            x       y       z     vdW  Elec       q    Type
REMARK                         _______ _______ _______ _____ _____    ______ ____
ROOT
ATOM      3  O   UNL     1      -4.538   0.297  24.804  0.00  0.00    -0.271 OA
ATOM      5  N   UNL     1      -2.423  -0.648  24.723  0.00  0.00    -0.285 N 
ATOM     11  C   UNL     1      -0.121  -1.238  24.855  0.00  0.00    +0.094 C 
ATOM     12  C   UNL     1      -1.830   0.232  25.720  0.00  0.00    +0.164 C 
ATOM     13  C   UNL     1      -0.504  -0.427  26.095  0.00  0.00    +0.056 C 
ATOM     14  C   UNL     1      -1.466  -1.664  24.276  0.00  0.00    +0.131 C 
ATOM     23  C   UNL     1      -3.770  -0.578  24.404  0.00  0.00    +0.240 C 
ENDROOT
BRANCH  11   6
ATOM      2  O   UNL     1       2.576  -1.734  23.993  0.00  0.00    -0.253 OA
ATOM      6  N   UNL     1       0.643  -0.453  23.918  0.00  0.00    -0.295 N 
ATOM      7  N   UNL     1       2.457   0.147  22.637  0.00  0.00    -0.297 N 
ATOM     22  C   UNL     1       1.952  -0.769  23.555  0.00  0.00    +0.300 C 
ATOM     39  H   UNL     1       0.197   0.335  23.458  0.00  0.00    +0.151 HD
ATOM     40  H   UNL     1       1.831   0.868  22.290  0.00  0.00    +0.151 HD
BRANCH   7  15
ATOM     15  C   UNL     1       3.792   0.063  22.089  0.00  0.00    +0.074 C 
ATOM     16  C   UNL     1       4.493  -1.223  22.540  0.00  0.00    +0.022 C 
ATOM     17  C   UNL     1       4.617   1.303  22.454  0.00  0.00    +0.022 C 
ATOM     18  C   UNL     1       4.882  -1.189  24.019  0.00  0.00    +0.002 C 
ATOM     19  C   UNL     1       5.005   1.333  23.932  0.00  0.00    +0.002 C 
ATOM     20  C   UNL     1       5.711   0.048  24.355  0.00  0.00    +0.000 C 
ENDBRANCH   7  15
ENDBRANCH  11   6
BRANCH  12  21
ATOM      1  O   UNL     1      -1.753   1.779  23.903  0.00  0.00    -0.274 OA
ATOM      8  N   UNL     1      -1.247   2.532  26.048  0.00  0.00    -0.302 N 
ATOM     21  C   UNL     1      -1.619   1.585  25.109  0.00  0.00    +0.234 C 
ATOM     41  H   UNL     1      -1.262   2.278  27.032  0.00  0.00    +0.150 HD
BRANCH   8  24
ATOM     24  C   UNL     1      -0.963   3.908  25.713  0.00  0.00    +0.163 C 
BRANCH  24  28
ATOM      4  O   UNL     1      -0.252   4.760  23.550  0.00  0.00    -0.274 OA
ATOM     10  N   UNL     1       0.723   2.838  24.348  0.00  0.00    -0.328 N 
ATOM     28  C   UNL     1      -0.160   3.896  24.419  0.00  0.00    +0.231 C 
ATOM     43  H   UNL     1       0.803   2.145  25.085  0.00  0.00    +0.145 HD
ATOM     44  H   UNL     1       1.329   2.720  23.544  0.00  0.00    +0.145 HD
ENDBRANCH  24  28
BRANCH  24  26
ATOM     26  C   UNL     1      -2.238   4.742  25.545  0.00  0.00    +0.069 C 
BRANCH  26  27
ATOM      9  N   UNL     1      -4.561   3.135  23.192  0.00  0.00    -0.360 N 
ATOM     27  C   UNL     1      -3.331   4.010  24.820  0.00  0.00    -0.020 A 
ATOM     30  C   UNL     1      -4.442   3.346  25.410  0.00  0.00    +0.003 A 
ATOM     31  C   UNL     1      -3.431   3.863  23.455  0.00  0.00    +0.087 A 
ATOM     32  C   UNL     1      -5.198   2.806  24.367  0.00  0.00    +0.047 A 
ATOM     35  C   UNL     1      -4.880   3.151  26.736  0.00  0.00    +0.010 A 
ATOM     36  C   UNL     1      -6.373   2.079  24.585  0.00  0.00    +0.026 A 
ATOM     37  C   UNL     1      -6.053   2.427  26.968  0.00  0.00    +0.001 A 
ATOM     38  C   UNL     1      -6.788   1.899  25.907  0.00  0.00    +0.002 A 
ATOM     42  H   UNL     1      -4.881   2.877  22.270  0.00  0.00    +0.165 HD
ENDBRANCH  26  27
ENDBRANCH  24  26
ENDBRANCH   8  24
ENDBRANCH  12  21
BRANCH  23  25
ATOM     25  C   UNL     1      -4.299  -1.636  23.522  0.00  0.00    +0.066 C 
ATOM     29  C   UNL     1      -4.251  -2.952  23.788  0.00  0.00    -0.071 C 
ATOM     33  C   UNL     1      -3.618  -3.433  25.068  0.00  0.00    +0.039 C 
ATOM     34  C   UNL     1      -4.779  -4.058  22.916  0.00  0.00    +0.039 C 
ENDBRANCH  23  25
TORSDOF 8
ENDMDL
MODEL 4
REMARK VINA RESULT:       6.8      2.418      6.916
REMARK  Name = 11882028
REMARK  10 active torsions:
REMARK  status: ('A' for Active; 'I' for Inactive)
REMARK    1  A    between atoms: N_6  and  C_11
REMARK    2  A    between atoms: N_7  and  C_15
REMARK    3  A    between atoms: N_8  and  C_24
REMARK    4  A    between atoms: C_12  and  C_21
REMARK    5  A    between atoms: C_23  and  C_25
REMARK    6  A    between atoms: C_24  and  C_26
REMARK    7  A    between atoms: C_24  and  C_28
REMARK    8  A    between atoms: C_26  and  C_27
REMARK    9  A    between atoms: C_29  and  C_33
REMARK   10  A    between atoms: C_29  and  C_34
REMARK                            x       y       z     vdW  Elec       q    Type
REMARK                         _______ _______ _______ _____ _____    ______ ____
ROOT
ATOM      3  O   UNL     1      -3.124   0.261  23.391  0.00  0.00    -0.271 OA
ATOM      5  N   UNL     1      -2.419   2.322  24.184  0.00  0.00    -0.285 N 
ATOM     11  C   UNL     1      -1.340   4.374  24.720  0.00  0.00    +0.094 C 
ATOM     12  C   UNL     1      -1.435   2.554  23.137  0.00  0.00    +0.164 C 
ATOM     13  C   UNL     1      -1.070   4.032  23.253  0.00  0.00    +0.056 C 
ATOM     14  C   UNL     1      -2.513   3.471  25.088  0.00  0.00    +0.131 C 
ATOM     23  C   UNL     1      -3.241   1.206  24.172  0.00  0.00    +0.240 C 
ENDROOT
BRANCH  11   6
ATOM      2  O   UNL     1      -1.003   2.216  26.589  0.00  0.00    -0.253 OA
ATOM      6  N   UNL     1      -0.188   4.122  25.549  0.00  0.00    -0.295 N 
ATOM      7  N   UNL     1       1.107   3.034  27.109  0.00  0.00    -0.297 N 
ATOM     22  C   UNL     1      -0.110   3.047  26.432  0.00  0.00    +0.300 C 
ATOM     39  H   UNL     1       0.627   4.721  25.453  0.00  0.00    +0.151 HD
ATOM     40  H   UNL     1       1.801   3.729  26.851  0.00  0.00    +0.151 HD
BRANCH   7  15
ATOM     15  C   UNL     1       1.458   2.028  28.086  0.00  0.00    +0.074 C 
ATOM     16  C   UNL     1       0.395   1.933  29.186  0.00  0.00    +0.022 C 
ATOM     17  C   UNL     1       2.847   2.296  28.678  0.00  0.00    +0.022 C 
ATOM     18  C   UNL     1       0.412   3.142  30.122  0.00  0.00    +0.002 C 
ATOM     19  C   UNL     1       2.860   3.504  29.614  0.00  0.00    +0.002 C 
ATOM     20  C   UNL     1       1.802   3.381  30.706  0.00  0.00    +0.000 C 
ENDBRANCH   7  15
ENDBRANCH  11   6
BRANCH  12  21
ATOM      1  O   UNL     1       0.699   2.040  24.076  0.00  0.00    -0.274 OA
ATOM      8  N   UNL     1      -0.353   0.456  22.732  0.00  0.00    -0.302 N 
ATOM     21  C   UNL     1      -0.247   1.673  23.384  0.00  0.00    +0.234 C 
ATOM     41  H   UNL     1      -1.226   0.225  22.265  0.00  0.00    +0.150 HD
BRANCH   8  24
ATOM     24  C   UNL     1       0.669  -0.564  22.790  0.00  0.00    +0.163 C 
BRANCH  24  28
ATOM      4  O   UNL     1       2.281  -0.058  21.043  0.00  0.00    -0.274 OA
ATOM     10  N   UNL     1       2.649   0.775  23.152  0.00  0.00    -0.328 N 
ATOM     28  C   UNL     1       1.941   0.046  22.219  0.00  0.00    +0.231 C 
ATOM     43  H   UNL     1       2.344   0.871  24.115  0.00  0.00    +0.145 HD
ATOM     44  H   UNL     1       3.511   1.246  22.899  0.00  0.00    +0.145 HD
ENDBRANCH  24  28
BRANCH  24  26
ATOM     26  C   UNL     1       0.909  -1.066  24.219  0.00  0.00    +0.069 C 
BRANCH  26  27
ATOM      9  N   UNL     1      -1.865  -0.911  26.626  0.00  0.00    -0.360 N 
ATOM     27  C   UNL     1      -0.354  -1.184  25.022  0.00  0.00    -0.020 A 
ATOM     30  C   UNL     1      -1.496  -1.968  24.697  0.00  0.00    +0.003 A 
ATOM     31  C   UNL     1      -0.611  -0.545  26.214  0.00  0.00    +0.087 A 
ATOM     32  C   UNL     1      -2.428  -1.779  25.719  0.00  0.00    +0.047 A 
ATOM     35  C   UNL     1      -1.827  -2.824  23.627  0.00  0.00    +0.010 A 
ATOM     36  C   UNL     1      -3.680  -2.405  25.724  0.00  0.00    +0.026 A 
ATOM     37  C   UNL     1      -3.074  -3.457  23.620  0.00  0.00    +0.001 A 
ATOM     38  C   UNL     1      -3.986  -3.249  24.654  0.00  0.00    +0.002 A 
ATOM     42  H   UNL     1      -2.312  -0.590  27.473  0.00  0.00    +0.165 HD
ENDBRANCH  26  27
ENDBRANCH  24  26
ENDBRANCH   8  24
ENDBRANCH  12  21
BRANCH  23  25
ATOM     25  C   UNL     1      -4.323   1.166  25.174  0.00  0.00    +0.066 C 
ATOM     29  C   UNL     1      -5.343   2.038  25.235  0.00  0.00    -0.071 C 
ATOM     33  C   UNL     1      -5.432   3.157  24.230  0.00  0.00    +0.039 C 
ATOM     34  C   UNL     1      -6.464   2.031  26.239  0.00  0.00    +0.039 C 
ENDBRANCH  23  25
TORSDOF 8
ENDMDL
MODEL 5
REMARK VINA RESULT:       7.0      1.913      5.895
REMARK  Name = 11882028
REMARK  10 active torsions:
REMARK  status: ('A' for Active; 'I' for Inactive)
REMARK    1  A    between atoms: N_6  and  C_11
REMARK    2  A    between atoms: N_7  and  C_15
REMARK    3  A    between atoms: N_8  and  C_24
REMARK    4  A    between atoms: C_12  and  C_21
REMARK    5  A    between atoms: C_23  and  C_25
REMARK    6  A    between atoms: C_24  and  C_26
REMARK    7  A    between atoms: C_24  and  C_28
REMARK    8  A    between atoms: C_26  and  C_27
REMARK    9  A    between atoms: C_29  and  C_33
REMARK   10  A    between atoms: C_29  and  C_34
REMARK                            x       y       z     vdW  Elec       q    Type
REMARK                         _______ _______ _______ _____ _____    ______ ____
ROOT
ATOM      3  O   UNL     1      -4.267   0.719  25.541  0.00  0.00    -0.271 OA
ATOM      5  N   UNL     1      -2.593  -0.226  24.245  0.00  0.00    -0.285 N 
ATOM     11  C   UNL     1      -0.734  -1.378  23.308  0.00  0.00    +0.094 C 
ATOM     12  C   UNL     1      -2.181  -1.213  25.233  0.00  0.00    +0.164 C 
ATOM     13  C   UNL     1      -1.300  -2.199  24.469  0.00  0.00    +0.056 C 
ATOM     14  C   UNL     1      -1.849  -0.386  22.993  0.00  0.00    +0.131 C 
ATOM     23  C   UNL     1      -3.670   0.618  24.469  0.00  0.00    +0.240 C 
ENDROOT
BRANCH  11   6
ATOM      2  O   UNL     1       1.385  -0.588  21.533  0.00  0.00    -0.253 OA
ATOM      6  N   UNL     1       0.492  -0.712  23.671  0.00  0.00    -0.295 N 
ATOM      7  N   UNL     1       2.549   0.266  23.352  0.00  0.00    -0.297 N 
ATOM     22  C   UNL     1       1.469  -0.365  22.740  0.00  0.00    +0.300 C 
ATOM     39  H   UNL     1       0.633  -0.435  24.638  0.00  0.00    +0.151 HD
ATOM     40  H   UNL     1       2.484   0.462  24.347  0.00  0.00    +0.151 HD
BRANCH   7  15
ATOM     15  C   UNL     1       3.707   0.735  22.624  0.00  0.00    +0.074 C 
ATOM     16  C   UNL     1       4.492  -0.436  22.024  0.00  0.00    +0.022 C 
ATOM     17  C   UNL     1       4.602   1.606  23.515  0.00  0.00    +0.022 C 
ATOM     18  C   UNL     1       5.234  -1.248  23.086  0.00  0.00    +0.002 C 
ATOM     19  C   UNL     1       5.343   0.790  24.574  0.00  0.00    +0.002 C 
ATOM     20  C   UNL     1       6.126  -0.362  23.952  0.00  0.00    +0.000 C 
ENDBRANCH   7  15
ENDBRANCH  11   6
BRANCH  12  21
ATOM      1  O   UNL     1      -1.062  -1.105  27.340  0.00  0.00    -0.274 OA
ATOM      8  N   UNL     1      -1.196   0.818  26.034  0.00  0.00    -0.302 N 
ATOM     21  C   UNL     1      -1.415  -0.519  26.320  0.00  0.00    +0.234 C 
ATOM     41  H   UNL     1      -1.450   1.171  25.116  0.00  0.00    +0.150 HD
BRANCH   8  24
ATOM     24  C   UNL     1      -0.501   1.715  26.930  0.00  0.00    +0.163 C 
BRANCH  24  28
ATOM      4  O   UNL     1       0.838   2.185  24.957  0.00  0.00    -0.274 OA
ATOM     10  N   UNL     1       1.624   2.864  27.006  0.00  0.00    -0.328 N 
ATOM     28  C   UNL     1       0.708   2.249  26.177  0.00  0.00    +0.231 C 
ATOM     43  H   UNL     1       1.493   2.928  28.010  0.00  0.00    +0.145 HD
ATOM     44  H   UNL     1       2.471   3.276  26.630  0.00  0.00    +0.145 HD
ENDBRANCH  24  28
BRANCH  24  26
ATOM     26  C   UNL     1      -1.392   2.869  27.404  0.00  0.00    +0.069 C 
BRANCH  26  27
ATOM      9  N   UNL     1      -1.976   5.089  24.532  0.00  0.00    -0.360 N 
ATOM     27  C   UNL     1      -1.908   3.717  26.276  0.00  0.00    -0.020 A 
ATOM     30  C   UNL     1      -3.269   3.899  25.907  0.00  0.00    +0.003 A 
ATOM     31  C   UNL     1      -1.136   4.461  25.413  0.00  0.00    +0.087 A 
ATOM     32  C   UNL     1      -3.284   4.764  24.811  0.00  0.00    +0.047 A 
ATOM     35  C   UNL     1      -4.495   3.410  26.402  0.00  0.00    +0.010 A 
ATOM     36  C   UNL     1      -4.468   5.165  24.182  0.00  0.00    +0.026 A 
ATOM     37  C   UNL     1      -5.686   3.804  25.783  0.00  0.00    +0.001 A 
ATOM     38  C   UNL     1      -5.671   4.668  24.690  0.00  0.00    +0.002 A 
ATOM     42  H   UNL     1      -1.679   5.702  23.786  0.00  0.00    +0.165 HD
ENDBRANCH  26  27
ENDBRANCH  24  26
ENDBRANCH   8  24
ENDBRANCH  12  21
BRANCH  23  25
ATOM     25  C   UNL     1      -4.114   1.445  23.330  0.00  0.00    +0.066 C 
ATOM     29  C   UNL     1      -3.304   2.200  22.570  0.00  0.00    -0.071 C 
ATOM     33  C   UNL     1      -1.826   2.240  22.861  0.00  0.00    +0.039 C 
ATOM     34  C   UNL     1      -3.718   3.055  21.403  0.00  0.00    +0.039 C 
ENDBRANCH  23  25
TORSDOF 8
ENDMDL
MODEL 6
REMARK VINA RESULT:       7.3      1.926      7.285
REMARK  Name = 11882028
REMARK  10 active torsions:
REMARK  status: ('A' for Active; 'I' for Inactive)
REMARK    1  A    between atoms: N_6  and  C_11
REMARK    2  A    between atoms: N_7  and  C_15
REMARK    3  A    between atoms: N_8  and  C_24
REMARK    4  A    between atoms: C_12  and  C_21
REMARK    5  A    between atoms: C_23  and  C_25
REMARK    6  A    between atoms: C_24  and  C_26
REMARK    7  A    between atoms: C_24  and  C_28
REMARK    8  A    between atoms: C_26  and  C_27
REMARK    9  A    between atoms: C_29  and  C_33
REMARK   10  A    between atoms: C_29  and  C_34
REMARK                            x       y       z     vdW  Elec       q    Type
REMARK                         _______ _______ _______ _____ _____    ______ ____
ROOT
ATOM      3  O   UNL     1      -4.205   3.434  22.909  0.00  0.00    -0.271 OA
ATOM      5  N   UNL     1      -2.507   3.289  24.481  0.00  0.00    -0.285 N 
ATOM     11  C   UNL     1      -0.516   2.981  25.747  0.00  0.00    +0.094 C 
ATOM     12  C   UNL     1      -1.425   3.149  23.517  0.00  0.00    +0.164 C 
ATOM     13  C   UNL     1      -0.146   3.381  24.317  0.00  0.00    +0.056 C 
ATOM     14  C   UNL     1      -1.992   3.351  25.851  0.00  0.00    +0.131 C 
ATOM     23  C   UNL     1      -3.816   3.497  24.076  0.00  0.00    +0.240 C 
ENDROOT
BRANCH  11   6
ATOM      2  O   UNL     1      -2.520   0.926  25.892  0.00  0.00    -0.253 OA
ATOM      6  N   UNL     1      -0.295   1.577  25.984  0.00  0.00    -0.295 N 
ATOM      7  N   UNL     1      -0.847  -0.637  26.280  0.00  0.00    -0.297 N 
ATOM     22  C   UNL     1      -1.331   0.646  26.039  0.00  0.00    +0.300 C 
ATOM     39  H   UNL     1       0.658   1.235  26.064  0.00  0.00    +0.151 HD
ATOM     40  H   UNL     1       0.160  -0.766  26.316  0.00  0.00    +0.151 HD
BRANCH   7  15
ATOM     15  C   UNL     1      -1.702  -1.798  26.385  0.00  0.00    +0.074 C 
ATOM     16  C   UNL     1      -1.458  -2.770  25.225  0.00  0.00    +0.022 C 
ATOM     17  C   UNL     1      -3.177  -1.390  26.468  0.00  0.00    +0.022 C 
ATOM     18  C   UNL     1      -1.998  -2.240  23.896  0.00  0.00    +0.002 C 
ATOM     19  C   UNL     1      -3.714  -0.863  25.137  0.00  0.00    +0.002 C 
ATOM     20  C   UNL     1      -3.470  -1.852  24.001  0.00  0.00    +0.000 C 
ENDBRANCH   7  15
ENDBRANCH  11   6
BRANCH  12  21
ATOM      1  O   UNL     1      -2.504   1.288  22.479  0.00  0.00    -0.274 OA
ATOM      8  N   UNL     1      -0.243   1.127  23.014  0.00  0.00    -0.302 N 
ATOM     21  C   UNL     1      -1.469   1.766  22.938  0.00  0.00    +0.234 C 
ATOM     41  H   UNL     1       0.566   1.656  23.328  0.00  0.00    +0.150 HD
BRANCH   8  24
ATOM     24  C   UNL     1      -0.024  -0.222  22.547  0.00  0.00    +0.163 C 
BRANCH  24  28
ATOM      4  O   UNL     1       1.179  -0.625  20.474  0.00  0.00    -0.274 OA
ATOM     10  N   UNL     1      -0.831   0.484  20.380  0.00  0.00    -0.328 N 
ATOM     28  C   UNL     1       0.203  -0.143  21.044  0.00  0.00    +0.231 C 
ATOM     43  H   UNL     1      -1.642   0.858  20.862  0.00  0.00    +0.145 HD
ATOM     44  H   UNL     1      -0.812   0.591  19.372  0.00  0.00    +0.145 HD
ENDBRANCH  24  28
BRANCH  24  26
ATOM     26  C   UNL     1       1.171  -0.890  23.236  0.00  0.00    +0.069 C 
BRANCH  26  27
ATOM      9  N   UNL     1       3.806   1.650  22.890  0.00  0.00    -0.360 N 
ATOM     27  C   UNL     1       2.424  -0.064  23.177  0.00  0.00    -0.020 A 
ATOM     30  C   UNL     1       3.744  -0.503  23.473  0.00  0.00    +0.003 A 
ATOM     31  C   UNL     1       2.493   1.265  22.822  0.00  0.00    +0.087 A 
ATOM     32  C   UNL     1       4.591   0.591  23.285  0.00  0.00    +0.047 A 
ATOM     35  C   UNL     1       4.302  -1.730  23.884  0.00  0.00    +0.010 A 
ATOM     36  C   UNL     1       5.974   0.518  23.489  0.00  0.00    +0.026 A 
ATOM     37  C   UNL     1       5.682  -1.817  24.091  0.00  0.00    +0.001 A 
ATOM     38  C   UNL     1       6.504  -0.709  23.896  0.00  0.00    +0.002 A 
ATOM     42  H   UNL     1       4.148   2.577  22.681  0.00  0.00    +0.165 HD
ENDBRANCH  26  27
ENDBRANCH  24  26
ENDBRANCH   8  24
ENDBRANCH  12  21
BRANCH  23  25
ATOM     25  C   UNL     1      -4.797   3.811  25.133  0.00  0.00    +0.066 C 
ATOM     29  C   UNL     1      -5.728   2.958  25.592  0.00  0.00    -0.071 C 
ATOM     33  C   UNL     1      -5.818   1.568  25.017  0.00  0.00    +0.039 C 
ATOM     34  C   UNL     1      -6.744   3.240  26.666  0.00  0.00    +0.039 C 
ENDBRANCH  23  25
TORSDOF 8
ENDMDL
MODEL 7
REMARK VINA RESULT:       7.6      2.168      5.360
REMARK  Name = 11882028
REMARK  10 active torsions:
REMARK  status: ('A' for Active; 'I' for Inactive)
REMARK    1  A    between atoms: N_6  and  C_11
REMARK    2  A    between atoms: N_7  and  C_15
REMARK    3  A    between atoms: N_8  and  C_24
REMARK    4  A    between atoms: C_12  and  C_21
REMARK    5  A    between atoms: C_23  and  C_25
REMARK    6  A    between atoms: C_24  and  C_26
REMARK    7  A    between atoms: C_24  and  C_28
REMARK    8  A    between atoms: C_26  and  C_27
REMARK    9  A    between atoms: C_29  and  C_33
REMARK   10  A    between atoms: C_29  and  C_34
REMARK                            x       y       z     vdW  Elec       q    Type
REMARK                         _______ _______ _______ _____ _____    ______ ____
ROOT
ATOM      3  O   UNL     1      -1.930   5.587  24.753  0.00  0.00    -0.271 OA
ATOM      5  N   UNL     1      -1.400   3.673  25.948  0.00  0.00    -0.285 N 
ATOM     11  C   UNL     1      -0.467   1.721  26.939  0.00  0.00    +0.094 C 
ATOM     12  C   UNL     1       0.023   3.699  25.645  0.00  0.00    +0.164 C 
ATOM     13  C   UNL     1       0.657   2.709  26.620  0.00  0.00    +0.056 C 
ATOM     14  C   UNL     1      -1.728   2.576  26.862  0.00  0.00    +0.131 C 
ATOM     23  C   UNL     1      -2.250   4.682  25.524  0.00  0.00    +0.240 C 
ENDROOT
BRANCH  11   6
ATOM      2  O   UNL     1      -1.491  -0.923  27.413  0.00  0.00    -0.253 OA
ATOM      6  N   UNL     1      -0.501   0.628  26.000  0.00  0.00    -0.295 N 
ATOM      7  N   UNL     1      -0.931  -1.498  25.234  0.00  0.00    -0.297 N 
ATOM     22  C   UNL     1      -1.018  -0.627  26.316  0.00  0.00    +0.300 C 
ATOM     39  H   UNL     1      -0.184   0.787  25.048  0.00  0.00    +0.151 HD
ATOM     40  H   UNL     1      -0.586  -1.129  24.353  0.00  0.00    +0.151 HD
BRANCH   7  15
ATOM     15  C   UNL     1      -1.394  -2.867  25.281  0.00  0.00    +0.074 C 
ATOM     16  C   UNL     1      -1.559  -3.442  23.871  0.00  0.00    +0.022 C 
ATOM     17  C   UNL     1      -2.695  -2.981  26.084  0.00  0.00    +0.022 C 
ATOM     18  C   UNL     1      -2.760  -2.848  23.133  0.00  0.00    +0.002 C 
ATOM     19  C   UNL     1      -3.893  -2.387  25.343  0.00  0.00    +0.002 C 
ATOM     20  C   UNL     1      -4.044  -2.983  23.947  0.00  0.00    +0.000 C 
ENDBRANCH   7  15
ENDBRANCH  11   6
BRANCH  12  21
ATOM      1  O   UNL     1       0.352   4.092  23.312  0.00  0.00    -0.274 OA
ATOM      8  N   UNL     1       0.216   1.897  24.079  0.00  0.00    -0.302 N 
ATOM     21  C   UNL     1       0.223   3.274  24.221  0.00  0.00    +0.234 C 
ATOM     41  H   UNL     1       0.198   1.319  24.915  0.00  0.00    +0.150 HD
BRANCH   8  24
ATOM     24  C   UNL     1       0.366   1.232  22.805  0.00  0.00    +0.163 C 
BRANCH  24  28
ATOM      4  O   UNL     1       1.322  -0.979  23.127  0.00  0.00    -0.274 OA
ATOM     10  N   UNL     1       2.745   0.801  22.831  0.00  0.00    -0.328 N 
ATOM     28  C   UNL     1       1.497   0.225  22.957  0.00  0.00    +0.231 C 
ATOM     43  H   UNL     1       2.874   1.794  22.668  0.00  0.00    +0.145 HD
ATOM     44  H   UNL     1       3.586   0.238  22.898  0.00  0.00    +0.145 HD
ENDBRANCH  24  28
BRANCH  24  26
ATOM     26  C   UNL     1      -0.922   0.530  22.360  0.00  0.00    +0.069 C 
BRANCH  26  27
ATOM      9  N   UNL     1      -3.683   2.955  22.279  0.00  0.00    -0.360 N 
ATOM     27  C   UNL     1      -2.150   1.374  22.552  0.00  0.00    -0.020 A 
ATOM     30  C   UNL     1      -3.151   1.199  23.547  0.00  0.00    +0.003 A 
ATOM     31  C   UNL     1      -2.504   2.461  21.786  0.00  0.00    +0.087 A 
ATOM     32  C   UNL     1      -4.101   2.204  23.354  0.00  0.00    +0.047 A 
ATOM     35  C   UNL     1      -3.341   0.279  24.598  0.00  0.00    +0.010 A 
ATOM     36  C   UNL     1      -5.236   2.335  24.161  0.00  0.00    +0.026 A 
ATOM     37  C   UNL     1      -4.472   0.399  25.414  0.00  0.00    +0.001 A 
ATOM     38  C   UNL     1      -5.404   1.413  25.197  0.00  0.00    +0.002 A 
ATOM     42  H   UNL     1      -4.175   3.755  21.907  0.00  0.00    +0.165 HD
ENDBRANCH  26  27
ENDBRANCH  24  26
ENDBRANCH   8  24
ENDBRANCH  12  21
BRANCH  23  25
ATOM     25  C   UNL     1      -3.631   4.651  26.045  0.00  0.00    +0.066 C 
ATOM     29  C   UNL     1      -4.719   5.032  25.355  0.00  0.00    -0.071 C 
ATOM     33  C   UNL     1      -4.570   5.537  23.943  0.00  0.00    +0.039 C 
ATOM     34  C   UNL     1      -6.140   5.014  25.849  0.00  0.00    +0.039 C 
ENDBRANCH  23  25
TORSDOF 8
ENDMDL
MODEL 8
REMARK VINA RESULT:       7.9      1.772      6.734
REMARK  Name = 11882028
REMARK  10 active torsions:
REMARK  status: ('A' for Active; 'I' for Inactive)
REMARK    1  A    between atoms: N_6  and  C_11
REMARK    2  A    between atoms: N_7  and  C_15
REMARK    3  A    between atoms: N_8  and  C_24
REMARK    4  A    between atoms: C_12  and  C_21
REMARK    5  A    between atoms: C_23  and  C_25
REMARK    6  A    between atoms: C_24  and  C_26
REMARK    7  A    between atoms: C_24  and  C_28
REMARK    8  A    between atoms: C_26  and  C_27
REMARK    9  A    between atoms: C_29  and  C_33
REMARK   10  A    between atoms: C_29  and  C_34
REMARK                            x       y       z     vdW  Elec       q    Type
REMARK                         _______ _______ _______ _____ _____    ______ ____
ROOT
ATOM      3  O   UNL     1      -3.049   4.864  24.419  0.00  0.00    -0.271 OA
ATOM      5  N   UNL     1      -1.952   3.389  25.831  0.00  0.00    -0.285 N 
ATOM     11  C   UNL     1      -0.476   1.929  26.994  0.00  0.00    +0.094 C 
ATOM     12  C   UNL     1      -0.614   3.677  25.334  0.00  0.00    +0.164 C 
ATOM     13  C   UNL     1       0.333   3.064  26.363  0.00  0.00    +0.056 C 
ATOM     14  C   UNL     1      -1.910   2.446  26.952  0.00  0.00    +0.131 C 
ATOM     23  C   UNL     1      -3.062   4.079  25.367  0.00  0.00    +0.240 C 
ENDROOT
BRANCH  11   6
ATOM      2  O   UNL     1      -2.401  -0.197  26.800  0.00  0.00    -0.253 OA
ATOM      6  N   UNL     1      -0.328   0.695  26.264  0.00  0.00    -0.295 N 
ATOM      7  N   UNL     1      -0.921  -1.373  25.451  0.00  0.00    -0.297 N 
ATOM     22  C   UNL     1      -1.317  -0.285  26.224  0.00  0.00    +0.300 C 
ATOM     39  H   UNL     1       0.511   0.550  25.709  0.00  0.00    +0.151 HD
ATOM     40  H   UNL     1      -0.032  -1.311  24.963  0.00  0.00    +0.151 HD
BRANCH   7  15
ATOM     15  C   UNL     1      -1.754  -2.536  25.237  0.00  0.00    +0.074 C 
ATOM     16  C   UNL     1      -2.089  -2.708  23.752  0.00  0.00    +0.022 C 
ATOM     17  C   UNL     1      -3.026  -2.467  26.090  0.00  0.00    +0.022 C 
ATOM     18  C   UNL     1      -3.078  -1.655  23.250  0.00  0.00    +0.002 C 
ATOM     19  C   UNL     1      -4.013  -1.415  25.584  0.00  0.00    +0.002 C 
ATOM     20  C   UNL     1      -4.340  -1.614  24.107  0.00  0.00    +0.000 C 
ENDBRANCH   7  15
ENDBRANCH  11   6
BRANCH  12  21
ATOM      1  O   UNL     1       0.168   3.589  23.080  0.00  0.00    -0.274 OA
ATOM      8  N   UNL     1      -1.090   1.813  23.907  0.00  0.00    -0.302 N 
ATOM     21  C   UNL     1      -0.452   3.039  23.986  0.00  0.00    +0.234 C 
ATOM     41  H   UNL     1      -1.491   1.414  24.751  0.00  0.00    +0.150 HD
BRANCH   8  24
ATOM     24  C   UNL     1      -1.104   1.005  22.709  0.00  0.00    +0.163 C 
BRANCH  24  28
ATOM      4  O   UNL     1      -2.872   2.548  22.078  0.00  0.00    -0.274 OA
ATOM     10  N   UNL     1      -2.108   1.052  20.510  0.00  0.00    -0.328 N 
ATOM     28  C   UNL     1      -2.131   1.618  21.769  0.00  0.00    +0.231 C 
ATOM     43  H   UNL     1      -1.475   0.298  20.263  0.00  0.00    +0.145 HD
ATOM     44  H   UNL     1      -2.734   1.378  19.782  0.00  0.00    +0.145 HD
ENDBRANCH  24  28
BRANCH  24  26
ATOM     26  C   UNL     1       0.272   0.942  22.034  0.00  0.00    +0.069 C 
BRANCH  26  27
ATOM      9  N   UNL     1       2.034  -1.729  23.844  0.00  0.00    -0.360 N 
ATOM     27  C   UNL     1       1.225   0.010  22.725  0.00  0.00    -0.020 A 
ATOM     30  C   UNL     1       2.629   0.189  22.872  0.00  0.00    +0.003 A 
ATOM     31  C   UNL     1       0.889  -1.179  23.332  0.00  0.00    +0.087 A 
ATOM     32  C   UNL     1       3.112  -0.915  23.577  0.00  0.00    +0.047 A 
ATOM     35  C   UNL     1       3.538   1.189  22.472  0.00  0.00    +0.010 A 
ATOM     36  C   UNL     1       4.464  -1.070  23.903  0.00  0.00    +0.026 A 
ATOM     37  C   UNL     1       4.893   1.046  22.791  0.00  0.00    +0.001 A 
ATOM     38  C   UNL     1       5.347  -0.067  23.496  0.00  0.00    +0.002 A 
ATOM     42  H   UNL     1       2.081  -2.605  24.344  0.00  0.00    +0.165 HD
ENDBRANCH  26  27
ENDBRANCH  24  26
ENDBRANCH   8  24
ENDBRANCH  12  21
BRANCH  23  25
ATOM     25  C   UNL     1      -4.336   3.838  26.071  0.00  0.00    +0.066 C 
ATOM     29  C   UNL     1      -5.195   2.846  25.785  0.00  0.00    -0.071 C 
ATOM     33  C   UNL     1      -4.879   1.882  24.670  0.00  0.00    +0.039 C 
ATOM     34  C   UNL     1      -6.501   2.569  26.478  0.00  0.00    +0.039 C 
ENDBRANCH  23  25
TORSDOF 8
ENDMDL
MODEL 9
REMARK VINA RESULT:       8.1      2.086      6.212
REMARK  Name = 11882028
REMARK  10 active torsions:
REMARK  status: ('A' for Active; 'I' for Inactive)
REMARK    1  A    between atoms: N_6  and  C_11
REMARK    2  A    between atoms: N_7  and  C_15
REMARK    3  A    between atoms: N_8  and  C_24
REMARK    4  A    between atoms: C_12  and  C_21
REMARK    5  A    between atoms: C_23  and  C_25
REMARK    6  A    between atoms: C_24  and  C_26
REMARK    7  A    between atoms: C_24  and  C_28
REMARK    8  A    between atoms: C_26  and  C_27
REMARK    9  A    between atoms: C_29  and  C_33
REMARK   10  A    between atoms: C_29  and  C_34
REMARK                            x       y       z     vdW  Elec       q    Type
REMARK                         _______ _______ _______ _____ _____    ______ ____
ROOT
ATOM      3  O   UNL     1      -3.527   0.023  26.107  0.00  0.00    -0.271 OA
ATOM      5  N   UNL     1      -1.776  -0.972  24.959  0.00  0.00    -0.285 N 
ATOM     11  C   UNL     1       0.285  -1.790  24.093  0.00  0.00    +0.094 C 
ATOM     12  C   UNL     1      -0.784  -0.781  26.008  0.00  0.00    +0.164 C 
ATOM     13  C   UNL     1       0.389  -1.675  25.615  0.00  0.00    +0.056 C 
ATOM     14  C   UNL     1      -1.217  -1.722  23.832  0.00  0.00    +0.131 C 
ATOM     23  C   UNL     1      -3.101  -0.610  25.140  0.00  0.00    +0.240 C 
ENDROOT
BRANCH  11   6
ATOM      2  O   UNL     1       3.119  -1.634  23.640  0.00  0.00    -0.253 OA
ATOM      6  N   UNL     1       0.994  -0.727  23.426  0.00  0.00    -0.295 N 
ATOM      7  N   UNL     1       2.807   0.407  22.577  0.00  0.00    -0.297 N 
ATOM     22  C   UNL     1       2.377  -0.734  23.250  0.00  0.00    +0.300 C 
ATOM     39  H   UNL     1       0.465   0.037  23.018  0.00  0.00    +0.151 HD
ATOM     40  H   UNL     1       2.101   1.053  22.238  0.00  0.00    +0.151 HD
BRANCH   7  15
ATOM     15  C   UNL     1       4.194   0.661  22.258  0.00  0.00    +0.074 C 
ATOM     16  C   UNL     1       4.984  -0.647  22.148  0.00  0.00    +0.022 C 
ATOM     17  C   UNL     1       4.829   1.609  23.283  0.00  0.00    +0.022 C 
ATOM     18  C   UNL     1       5.206  -1.312  23.507  0.00  0.00    +0.002 C 
ATOM     19  C   UNL     1       5.051   0.941  24.639  0.00  0.00    +0.002 C 
ATOM     20  C   UNL     1       5.848  -0.353  24.505  0.00  0.00    +0.000 C 
ENDBRANCH   7  15
ENDBRANCH  11   6
BRANCH  12  21
ATOM      1  O   UNL     1       0.143   1.214  25.079  0.00  0.00    -0.274 OA
ATOM      8  N   UNL     1      -0.670   1.258  27.261  0.00  0.00    -0.302 N 
ATOM     21  C   UNL     1      -0.388   0.665  26.041  0.00  0.00    +0.234 C 
ATOM     41  H   UNL     1      -1.198   0.731  27.951  0.00  0.00    +0.150 HD
BRANCH   8  24
ATOM     24  C   UNL     1      -0.364   2.638  27.558  0.00  0.00    +0.163 C 
BRANCH  24  28
ATOM      4  O   UNL     1       2.028   3.062  27.497  0.00  0.00    -0.274 OA
ATOM     10  N   UNL     1       1.103   2.265  29.443  0.00  0.00    -0.328 N 
ATOM     28  C   UNL     1       1.047   2.671  28.126  0.00  0.00    +0.231 C 
ATOM     43  H   UNL     1       0.280   1.965  29.957  0.00  0.00    +0.145 HD
ATOM     44  H   UNL     1       1.983   2.252  29.947  0.00  0.00    +0.145 HD
ENDBRANCH  24  28
BRANCH  24  26
ATOM     26  C   UNL     1      -0.466   3.537  26.320  0.00  0.00    +0.069 C 
BRANCH  26  27
ATOM      9  N   UNL     1      -4.024   4.119  25.602  0.00  0.00    -0.360 N 
ATOM     27  C   UNL     1      -1.864   3.640  25.780  0.00  0.00    -0.020 A 
ATOM     30  C   UNL     1      -2.326   3.150  24.527  0.00  0.00    +0.003 A 
ATOM     31  C   UNL     1      -2.930   4.231  26.419  0.00  0.00    +0.087 A 
ATOM     32  C   UNL     1      -3.685   3.463  24.441  0.00  0.00    +0.047 A 
ATOM     35  C   UNL     1      -1.719   2.467  23.454  0.00  0.00    +0.010 A 
ATOM     36  C   UNL     1      -4.468   3.127  23.331  0.00  0.00    +0.026 A 
ATOM     37  C   UNL     1      -2.490   2.124  22.339  0.00  0.00    +0.001 A 
ATOM     38  C   UNL     1      -3.844   2.450  22.279  0.00  0.00    +0.002 A 
ATOM     42  H   UNL     1      -4.947   4.468  25.820  0.00  0.00    +0.165 HD
ENDBRANCH  26  27
ENDBRANCH  24  26
ENDBRANCH   8  24
ENDBRANCH  12  21
BRANCH  23  25
ATOM     25  C   UNL     1      -4.051  -1.019  24.087  0.00  0.00    +0.066 C 
ATOM     29  C   UNL     1      -4.376  -2.290  23.799  0.00  0.00    -0.071 C 
ATOM     33  C   UNL     1      -3.749  -3.417  24.580  0.00  0.00    +0.039 C 
ATOM     34  C   UNL     1      -5.338  -2.746  22.737  0.00  0.00    +0.039 C 
ENDBRANCH  23  25
TORSDOF 8
ENDMDL
MODEL 10
REMARK VINA RESULT:       8.1      1.342      2.030
REMARK  Name = 11882028
REMARK  10 active torsions:
REMARK  status: ('A' for Active; 'I' for Inactive)
REMARK    1  A    between atoms: N_6  and  C_11
REMARK    2  A    between atoms: N_7  and  C_15
REMARK    3  A    between atoms: N_8  and  C_24
REMARK    4  A    between atoms: C_12  and  C_21
REMARK    5  A    between atoms: C_23  and  C_25
REMARK    6  A    between atoms: C_24  and  C_26
REMARK    7  A    between atoms: C_24  and  C_28
REMARK    8  A    between atoms: C_26  and  C_27
REMARK    9  A    between atoms: C_29  and  C_33
REMARK   10  A    between atoms: C_29  and  C_34
REMARK                            x       y       z     vdW  Elec       q    Type
REMARK                         _______ _______ _______ _____ _____    ______ ____
ROOT
ATOM      3  O   UNL     1       3.919   2.048  22.602  0.00  0.00    -0.271 OA
ATOM      5  N   UNL     1       2.604   0.139  22.595  0.00  0.00    -0.285 N 
ATOM     11  C   UNL     1       0.905  -1.528  22.601  0.00  0.00    +0.094 C 
ATOM     12  C   UNL     1       1.364   0.815  22.242  0.00  0.00    +0.164 C 
ATOM     13  C   UNL     1       0.403  -0.300  21.838  0.00  0.00    +0.056 C 
ATOM     14  C   UNL     1       2.414  -1.312  22.672  0.00  0.00    +0.131 C 
ATOM     23  C   UNL     1       3.807   0.824  22.672  0.00  0.00    +0.240 C 
ENDROOT
BRANCH  11   6
ATOM      2  O   UNL     1      -1.719  -2.516  23.235  0.00  0.00    -0.253 OA
ATOM      6  N   UNL     1       0.313  -1.623  23.911  0.00  0.00    -0.295 N 
ATOM      7  N   UNL     1      -1.299  -2.102  25.481  0.00  0.00    -0.297 N 
ATOM     22  C   UNL     1      -0.972  -2.117  24.128  0.00  0.00    +0.300 C 
ATOM     39  H   UNL     1       0.870  -1.370  24.722  0.00  0.00    +0.151 HD
ATOM     40  H   UNL     1      -0.580  -1.816  26.141  0.00  0.00    +0.151 HD
BRANCH   7  15
ATOM     15  C   UNL     1      -2.571  -2.559  25.993  0.00  0.00    +0.074 C 
ATOM     16  C   UNL     1      -3.348  -3.336  24.925  0.00  0.00    +0.022 C 
ATOM     17  C   UNL     1      -3.398  -1.389  26.539  0.00  0.00    +0.022 C 
ATOM     18  C   UNL     1      -3.887  -2.430  23.818  0.00  0.00    +0.002 C 
ATOM     19  C   UNL     1      -3.937  -0.486  25.430  0.00  0.00    +0.002 C 
ATOM     20  C   UNL     1      -4.715  -1.280  24.385  0.00  0.00    +0.000 C 
ENDBRANCH   7  15
ENDBRANCH  11   6
BRANCH  12  21
ATOM      1  O   UNL     1       1.583   2.342  24.065  0.00  0.00    -0.274 OA
ATOM      8  N   UNL     1      -0.451   1.254  23.743  0.00  0.00    -0.302 N 
ATOM     21  C   UNL     1       0.864   1.566  23.441  0.00  0.00    +0.234 C 
ATOM     41  H   UNL     1      -0.976   0.670  23.099  0.00  0.00    +0.150 HD
BRANCH   8  24
ATOM     24  C   UNL     1      -1.161   1.824  24.865  0.00  0.00    +0.163 C 
BRANCH  24  28
ATOM      4  O   UNL     1      -0.508   0.286  26.630  0.00  0.00    -0.274 OA
ATOM     10  N   UNL     1       0.411   2.392  26.612  0.00  0.00    -0.328 N 
ATOM     28  C   UNL     1      -0.418   1.402  26.124  0.00  0.00    +0.231 C 
ATOM     43  H   UNL     1       0.492   3.302  26.171  0.00  0.00    +0.145 HD
ATOM     44  H   UNL     1       0.975   2.236  27.441  0.00  0.00    +0.145 HD
ENDBRANCH  24  28
BRANCH  24  26
ATOM     26  C   UNL     1      -1.250   3.353  24.781  0.00  0.00    +0.069 C 
BRANCH  26  27
ATOM      9  N   UNL     1      -3.995   5.193  26.390  0.00  0.00    -0.360 N 
ATOM     27  C   UNL     1      -2.538   3.899  25.328  0.00  0.00    -0.020 A 
ATOM     30  C   UNL     1      -3.835   3.343  25.154  0.00  0.00    +0.003 A 
ATOM     31  C   UNL     1      -2.667   5.036  26.092  0.00  0.00    +0.087 A 
ATOM     32  C   UNL     1      -4.731   4.174  25.830  0.00  0.00    +0.047 A 
ATOM     35  C   UNL     1      -4.337   2.209  24.484  0.00  0.00    +0.010 A 
ATOM     36  C   UNL     1      -6.108   3.926  25.870  0.00  0.00    +0.026 A 
ATOM     37  C   UNL     1      -5.711   1.949  24.516  0.00  0.00    +0.001 A 
ATOM     38  C   UNL     1      -6.582   2.796  25.199  0.00  0.00    +0.002 A 
ATOM     42  H   UNL     1      -4.379   5.948  26.941  0.00  0.00    +0.165 HD
ENDBRANCH  26  27
ENDBRANCH  24  26
ENDBRANCH   8  24
ENDBRANCH  12  21
BRANCH  23  25
ATOM     25  C   UNL     1       5.025   0.010  22.853  0.00  0.00    +0.066 C 
ATOM     29  C   UNL     1       5.731  -0.070  23.993  0.00  0.00    -0.071 C 
ATOM     33  C   UNL     1       5.289   0.712  25.203  0.00  0.00    +0.039 C 
ATOM     34  C   UNL     1       6.975  -0.886  24.216  0.00  0.00    +0.039 C 
ENDBRANCH  23  25
TORSDOF 8
ENDMDL
