MODEL 1
REMARK VINA RESULT:      -5.1      0.000      0.000
REMARK  Name = 56775848
REMARK  2 active torsions:
REMARK  status: ('A' for Active; 'I' for Inactive)
REMARK    1  A    between atoms: C_6  and  C_8
REMARK    2  A    between atoms: C_11  and  C_13
REMARK                            x       y       z     vdW  Elec       q    Type
REMARK                         _______ _______ _______ _____ _____    ______ ____
ROOT
ATOM      4  N   UNL     1      -0.169   0.943  23.777  0.00  0.00    -0.341 N 
ATOM      5  N   UNL     1       0.011  -1.250  24.070  0.00  0.00    -0.238 NA
ATOM      8  C   UNL     1       0.616  -0.168  23.636  0.00  0.00    +0.127 A 
ATOM     11  C   UNL     1      -1.349   0.543  24.337  0.00  0.00    +0.066 A 
ATOM     12  C   UNL     1      -1.215  -0.815  24.509  0.00  0.00    +0.139 A 
ATOM     20  H   UNL     1       0.090   1.888  23.521  0.00  0.00    +0.167 HD
ENDROOT
BRANCH  11  13
ATOM      1 CL   UNL     1      -5.815   4.271  25.584  0.00  0.00    -0.084 Cl
ATOM     13  C   UNL     1      -2.429   1.445  24.638  0.00  0.00    -0.000 A 
ATOM     14  C   UNL     1      -3.751   1.029  24.477  0.00  0.00    +0.011 A 
ATOM     15  C   UNL     1      -2.155   2.735  25.093  0.00  0.00    +0.011 A 
ATOM     16  C   UNL     1      -4.798   1.903  24.769  0.00  0.00    +0.020 A 
ATOM     17  C   UNL     1      -3.202   3.609  25.385  0.00  0.00    +0.020 A 
ATOM     18  C   UNL     1      -4.523   3.193  25.223  0.00  0.00    +0.041 A 
ENDBRANCH  11  13
BRANCH   8   6
ATOM      2  O   UNL     1       4.251  -1.025  23.081  0.00  0.00    -0.377 OA
ATOM      3  N   UNL     1       2.570   1.275  23.179  0.00  0.00    -0.303 NA
ATOM      6  C   UNL     1       2.007  -0.080  23.040  0.00  0.00    +0.146 C 
ATOM      7  C   UNL     1       2.955  -1.109  23.677  0.00  0.00    +0.186 C 
ATOM      9  C   UNL     1       3.923   1.330  22.620  0.00  0.00    +0.109 C 
ATOM     10  C   UNL     1       4.810   0.277  23.268  0.00  0.00    +0.175 C 
ATOM     19  H   UNL     1       2.618   1.511  24.170  0.00  0.00    +0.123 HD
ENDBRANCH   8   6
TORSDOF 2
ENDMDL
MODEL 2
REMARK VINA RESULT:      -3.8     18.645     19.493
REMARK  Name = 56775848
REMARK  2 active torsions:
REMARK  status: ('A' for Active; 'I' for Inactive)
REMARK    1  A    between atoms: C_6  and  C_8
REMARK    2  A    between atoms: C_11  and  C_13
REMARK                            x       y       z     vdW  Elec       q    Type
REMARK                         _______ _______ _______ _____ _____    ______ ____
ROOT
ATOM      4  N   UNL     1      16.710  -6.725  26.376  0.00  0.00    -0.341 N 
ATOM      5  N   UNL     1      17.187  -8.709  25.500  0.00  0.00    -0.238 NA
ATOM      8  C   UNL     1      16.770  -8.077  26.573  0.00  0.00    +0.127 A 
ATOM     11  C   UNL     1      17.115  -6.480  25.094  0.00  0.00    +0.066 A 
ATOM     12  C   UNL     1      17.404  -7.720  24.573  0.00  0.00    +0.139 A 
ATOM     20  H   UNL     1      16.409  -6.040  27.057  0.00  0.00    +0.167 HD
ENDROOT
BRANCH  11  13
ATOM      1 CL   UNL     1      17.390  -1.026  22.732  0.00  0.00    -0.084 Cl
ATOM     13  C   UNL     1      17.181  -5.161  24.522  0.00  0.00    -0.000 A 
ATOM     14  C   UNL     1      17.104  -4.039  25.348  0.00  0.00    +0.011 A 
ATOM     15  C   UNL     1      17.324  -5.004  23.143  0.00  0.00    +0.011 A 
ATOM     16  C   UNL     1      17.169  -2.761  24.794  0.00  0.00    +0.020 A 
ATOM     17  C   UNL     1      17.388  -3.726  22.590  0.00  0.00    +0.020 A 
ATOM     18  C   UNL     1      17.311  -2.604  23.415  0.00  0.00    +0.041 A 
ENDBRANCH  11  13
BRANCH   8   6
ATOM      2  O   UNL     1      15.438 -10.667  28.978  0.00  0.00    -0.377 OA
ATOM      3  N   UNL     1      15.454  -7.835  28.651  0.00  0.00    -0.303 NA
ATOM      6  C   UNL     1      16.385  -8.698  27.902  0.00  0.00    +0.146 C 
ATOM      7  C   UNL     1      15.768 -10.092  27.711  0.00  0.00    +0.186 C 
ATOM      9  C   UNL     1      15.075  -8.465  29.918  0.00  0.00    +0.109 C 
ATOM     10  C   UNL     1      14.494  -9.850  29.672  0.00  0.00    +0.175 C 
ATOM     19  H   UNL     1      14.611  -7.697  28.093  0.00  0.00    +0.123 HD
ENDBRANCH   8   6
TORSDOF 2
ENDMDL
MODEL 3
REMARK VINA RESULT:      -3.4      1.398      1.928
REMARK  Name = 56775848
REMARK  2 active torsions:
REMARK  status: ('A' for Active; 'I' for Inactive)
REMARK    1  A    between atoms: C_6  and  C_8
REMARK    2  A    between atoms: C_11  and  C_13
REMARK                            x       y       z     vdW  Elec       q    Type
REMARK                         _______ _______ _______ _____ _____    ______ ____
ROOT
ATOM      4  N   UNL     1       1.177   0.943  23.728  0.00  0.00    -0.341 N 
ATOM      5  N   UNL     1       0.900  -0.587  22.143  0.00  0.00    -0.238 NA
ATOM      8  C   UNL     1       1.774   0.028  22.907  0.00  0.00    +0.127 A 
ATOM     11  C   UNL     1      -0.165   0.909  23.471  0.00  0.00    +0.066 A 
ATOM     12  C   UNL     1      -0.311  -0.043  22.488  0.00  0.00    +0.139 A 
ATOM     20  H   UNL     1       1.648   1.526  24.408  0.00  0.00    +0.167 HD
ENDROOT
BRANCH  11  13
ATOM      1 CL   UNL     1      -4.124   4.349  26.279  0.00  0.00    -0.084 Cl
ATOM     13  C   UNL     1      -1.123   1.741  24.150  0.00  0.00    -0.000 A 
ATOM     14  C   UNL     1      -0.696   2.644  25.123  0.00  0.00    +0.011 A 
ATOM     15  C   UNL     1      -2.479   1.645  23.835  0.00  0.00    +0.011 A 
ATOM     16  C   UNL     1      -1.623   3.451  25.782  0.00  0.00    +0.020 A 
ATOM     17  C   UNL     1      -3.406   2.452  24.493  0.00  0.00    +0.020 A 
ATOM     18  C   UNL     1      -2.979   3.354  25.467  0.00  0.00    +0.041 A 
ENDBRANCH  11  13
BRANCH   8   6
ATOM      2  O   UNL     1       5.059  -1.626  23.767  0.00  0.00    -0.377 OA
ATOM      3  N   UNL     1       3.988   0.994  23.432  0.00  0.00    -0.303 NA
ATOM      6  C   UNL     1       3.274  -0.195  22.933  0.00  0.00    +0.146 C 
ATOM      7  C   UNL     1       3.644  -1.422  23.780  0.00  0.00    +0.186 C 
ATOM      9  C   UNL     1       5.431   0.748  23.473  0.00  0.00    +0.109 C 
ATOM     10  C   UNL     1       5.738  -0.490  24.304  0.00  0.00    +0.175 C 
ATOM     19  H   UNL     1       3.666   1.197  24.380  0.00  0.00    +0.123 HD
ENDBRANCH   8   6
TORSDOF 2
ENDMDL
MODEL 4
REMARK VINA RESULT:      -3.0     18.549     19.384
REMARK  Name = 56775848
REMARK  2 active torsions:
REMARK  status: ('A' for Active; 'I' for Inactive)
REMARK    1  A    between atoms: C_6  and  C_8
REMARK    2  A    between atoms: C_11  and  C_13
REMARK                            x       y       z     vdW  Elec       q    Type
REMARK                         _______ _______ _______ _____ _____    ______ ____
ROOT
ATOM      4  N   UNL     1      16.624  -5.562  28.185  0.00  0.00    -0.341 N 
ATOM      5  N   UNL     1      17.130  -7.722  28.278  0.00  0.00    -0.238 NA
ATOM      8  C   UNL     1      16.682  -6.690  28.956  0.00  0.00    +0.127 A 
ATOM     11  C   UNL     1      17.063  -5.898  26.935  0.00  0.00    +0.066 A 
ATOM     12  C   UNL     1      17.369  -7.236  27.018  0.00  0.00    +0.139 A 
ATOM     20  H   UNL     1      16.302  -4.652  28.489  0.00  0.00    +0.167 HD
ENDROOT
BRANCH  11  13
ATOM      1 CL   UNL     1      17.385  -2.028  22.428  0.00  0.00    -0.084 Cl
ATOM     13  C   UNL     1      17.141  -4.961  25.845  0.00  0.00    -0.000 A 
ATOM     14  C   UNL     1      17.329  -5.422  24.542  0.00  0.00    +0.011 A 
ATOM     15  C   UNL     1      17.027  -3.593  26.091  0.00  0.00    +0.011 A 
ATOM     16  C   UNL     1      17.404  -4.516  23.485  0.00  0.00    +0.020 A 
ATOM     17  C   UNL     1      17.103  -2.686  25.034  0.00  0.00    +0.020 A 
ATOM     18  C   UNL     1      17.292  -3.147  23.732  0.00  0.00    +0.041 A 
ENDBRANCH  11  13
BRANCH   8   6
ATOM      2  O   UNL     1      14.504  -7.277  31.985  0.00  0.00    -0.377 OA
ATOM      3  N   UNL     1      16.292  -5.306  30.967  0.00  0.00    -0.303 NA
ATOM      6  C   UNL     1      16.262  -6.671  30.413  0.00  0.00    +0.146 C 
ATOM      7  C   UNL     1      14.865  -7.282  30.602  0.00  0.00    +0.186 C 
ATOM      9  C   UNL     1      15.859  -5.307  32.366  0.00  0.00    +0.109 C 
ATOM     10  C   UNL     1      14.483  -5.944  32.497  0.00  0.00    +0.175 C 
ATOM     19  H   UNL     1      15.653  -4.719  30.430  0.00  0.00    +0.123 HD
ENDBRANCH   8   6
TORSDOF 2
ENDMDL
MODEL 5
REMARK VINA RESULT:      -2.3      1.363      1.755
REMARK  Name = 56775848
REMARK  2 active torsions:
REMARK  status: ('A' for Active; 'I' for Inactive)
REMARK    1  A    between atoms: C_6  and  C_8
REMARK    2  A    between atoms: C_11  and  C_13
REMARK                            x       y       z     vdW  Elec       q    Type
REMARK                         _______ _______ _______ _____ _____    ______ ____
ROOT
ATOM      4  N   UNL     1      -0.482   1.153  23.778  0.00  0.00    -0.341 N 
ATOM      5  N   UNL     1       0.972   2.305  24.999  0.00  0.00    -0.238 NA
ATOM      8  C   UNL     1       0.833   1.437  24.022  0.00  0.00    +0.127 A 
ATOM     11  C   UNL     1      -1.229   1.887  24.656  0.00  0.00    +0.066 A 
ATOM     12  C   UNL     1      -0.309   2.590  25.399  0.00  0.00    +0.139 A 
ATOM     20  H   UNL     1      -0.830   0.522  23.068  0.00  0.00    +0.167 HD
ENDROOT
BRANCH  11  13
ATOM      1 CL   UNL     1      -7.174   1.732  24.826  0.00  0.00    -0.084 Cl
ATOM     13  C   UNL     1      -2.667   1.850  24.697  0.00  0.00    -0.000 A 
ATOM     14  C   UNL     1      -3.335   0.628  24.619  0.00  0.00    +0.011 A 
ATOM     15  C   UNL     1      -3.393   3.036  24.816  0.00  0.00    +0.011 A 
ATOM     16  C   UNL     1      -4.729   0.591  24.658  0.00  0.00    +0.020 A 
ATOM     17  C   UNL     1      -4.787   2.999  24.855  0.00  0.00    +0.020 A 
ATOM     18  C   UNL     1      -5.455   1.777  24.776  0.00  0.00    +0.041 A 
ENDBRANCH  11  13
BRANCH   8   6
ATOM      2  O   UNL     1       3.302  -1.217  22.962  0.00  0.00    -0.377 OA
ATOM      3  N   UNL     1       3.159   1.619  23.206  0.00  0.00    -0.303 NA
ATOM      6  C   UNL     1       1.942   0.787  23.218  0.00  0.00    +0.146 C 
ATOM      7  C   UNL     1       2.273  -0.615  23.751  0.00  0.00    +0.186 C 
ATOM      9  C   UNL     1       4.225   0.962  22.447  0.00  0.00    +0.109 C 
ATOM     10  C   UNL     1       4.493  -0.430  23.001  0.00  0.00    +0.175 C 
ATOM     19  H   UNL     1       3.478   1.750  24.167  0.00  0.00    +0.123 HD
ENDBRANCH   8   6
TORSDOF 2
ENDMDL
MODEL 6
REMARK VINA RESULT:      -1.9      3.973      7.200
REMARK  Name = 56775848
REMARK  2 active torsions:
REMARK  status: ('A' for Active; 'I' for Inactive)
REMARK    1  A    between atoms: C_6  and  C_8
REMARK    2  A    between atoms: C_11  and  C_13
REMARK                            x       y       z     vdW  Elec       q    Type
REMARK                         _______ _______ _______ _____ _____    ______ ____
ROOT
ATOM      4  N   UNL     1      -0.498   1.077  23.705  0.00  0.00    -0.341 N 
ATOM      5  N   UNL     1      -1.872  -0.581  24.245  0.00  0.00    -0.238 NA
ATOM      8  C   UNL     1      -1.782   0.704  23.990  0.00  0.00    +0.127 A 
ATOM     11  C   UNL     1       0.281  -0.043  23.784  0.00  0.00    +0.066 A 
ATOM     12  C   UNL     1      -0.590  -1.054  24.119  0.00  0.00    +0.139 A 
ATOM     20  H   UNL     1      -0.191   2.012  23.468  0.00  0.00    +0.167 HD
ENDROOT
BRANCH  11  13
ATOM      1 CL   UNL     1       6.148  -0.028  22.794  0.00  0.00    -0.084 Cl
ATOM     13  C   UNL     1       1.700  -0.040  23.544  0.00  0.00    -0.000 A 
ATOM     14  C   UNL     1       2.322   1.110  23.056  0.00  0.00    +0.011 A 
ATOM     15  C   UNL     1       2.454  -1.185  23.801  0.00  0.00    +0.011 A 
ATOM     16  C   UNL     1       3.697   1.113  22.824  0.00  0.00    +0.020 A 
ATOM     17  C   UNL     1       3.829  -1.181  23.569  0.00  0.00    +0.020 A 
ATOM     18  C   UNL     1       4.451  -0.033  23.080  0.00  0.00    +0.041 A 
ENDBRANCH  11  13
BRANCH   8   6
ATOM      2  O   UNL     1      -3.556   3.984  24.590  0.00  0.00    -0.377 OA
ATOM      3  N   UNL     1      -4.104   1.189  24.687  0.00  0.00    -0.303 NA
ATOM      6  C   UNL     1      -2.915   1.713  23.990  0.00  0.00    +0.146 C 
ATOM      7  C   UNL     1      -2.480   3.043  24.625  0.00  0.00    +0.186 C 
ATOM      9  C   UNL     1      -5.175   2.187  24.698  0.00  0.00    +0.109 C 
ATOM     10  C   UNL     1      -4.684   3.489  25.314  0.00  0.00    +0.175 C 
ATOM     19  H   UNL     1      -3.851   0.972  25.652  0.00  0.00    +0.123 HD
ENDBRANCH   8   6
TORSDOF 2
ENDMDL
MODEL 7
REMARK VINA RESULT:      -1.8     16.999     18.720
REMARK  Name = 56775848
REMARK  2 active torsions:
REMARK  status: ('A' for Active; 'I' for Inactive)
REMARK    1  A    between atoms: C_6  and  C_8
REMARK    2  A    between atoms: C_11  and  C_13
REMARK                            x       y       z     vdW  Elec       q    Type
REMARK                         _______ _______ _______ _____ _____    ______ ____
ROOT
ATOM      4  N   UNL     1      16.343  -5.124  25.403  0.00  0.00    -0.341 N 
ATOM      5  N   UNL     1      17.405  -3.423  26.356  0.00  0.00    -0.238 NA
ATOM      8  C   UNL     1      16.854  -3.865  25.249  0.00  0.00    +0.127 A 
ATOM     11  C   UNL     1      16.583  -5.509  26.692  0.00  0.00    +0.066 A 
ATOM     12  C   UNL     1      17.240  -4.442  27.260  0.00  0.00    +0.139 A 
ATOM     20  H   UNL     1      15.865  -5.660  24.690  0.00  0.00    +0.167 HD
ENDROOT
BRANCH  11  13
ATOM      1 CL   UNL     1      14.931 -10.781  28.898  0.00  0.00    -0.084 Cl
ATOM     13  C   UNL     1      16.184  -6.784  27.225  0.00  0.00    -0.000 A 
ATOM     14  C   UNL     1      16.400  -7.075  28.572  0.00  0.00    +0.011 A 
ATOM     15  C   UNL     1      15.580  -7.729  26.395  0.00  0.00    +0.011 A 
ATOM     16  C   UNL     1      16.013  -8.311  29.090  0.00  0.00    +0.020 A 
ATOM     17  C   UNL     1      15.192  -8.965  26.913  0.00  0.00    +0.020 A 
ATOM     18  C   UNL     1      15.409  -9.256  28.260  0.00  0.00    +0.041 A 
ENDBRANCH  11  13
BRANCH   8   6
ATOM      2  O   UNL     1      17.319  -1.077  22.744  0.00  0.00    -0.377 OA
ATOM      3  N   UNL     1      15.360  -3.015  23.472  0.00  0.00    -0.303 NA
ATOM      6  C   UNL     1      16.758  -3.131  23.925  0.00  0.00    +0.146 C 
ATOM      7  C   UNL     1      17.398  -1.737  24.010  0.00  0.00    +0.186 C 
ATOM      9  C   UNL     1      15.288  -2.281  22.207  0.00  0.00    +0.109 C 
ATOM     10  C   UNL     1      15.958  -0.921  22.341  0.00  0.00    +0.175 C 
ATOM     19  H   UNL     1      14.828  -2.502  24.176  0.00  0.00    +0.123 HD
ENDBRANCH   8   6
TORSDOF 2
ENDMDL
