MODEL 1
REMARK VINA RESULT:       6.3      0.000      0.000
REMARK  Name = 45360943
REMARK  11 active torsions:
REMARK  status: ('A' for Active; 'I' for Inactive)
REMARK    1  A    between atoms: O_3  and  C_36
REMARK    2  A    between atoms: O_3  and  C_37
REMARK    3  A    between atoms: N_4  and  C_17
REMARK    4  A    between atoms: N_5  and  C_19
REMARK    5  A    between atoms: N_7  and  C_25
REMARK    6  A    between atoms: N_9  and  C_28
REMARK    7  A    between atoms: C_14  and  C_18
REMARK    8  A    between atoms: C_17  and  C_20
REMARK    9  A    between atoms: C_18  and  C_21
REMARK   10  A    between atoms: C_21  and  C_22
REMARK   11  A    between atoms: C_28  and  C_31
REMARK                            x       y       z     vdW  Elec       q    Type
REMARK                         _______ _______ _______ _____ _____    ______ ____
ROOT
ATOM      1  O   UNL     1      -1.546   2.102  23.375  0.00  0.00    -0.274 OA
ATOM      4  N   UNL     1      -0.217  -0.186  23.914  0.00  0.00    -0.283 NA
ATOM      5  N   UNL     1      -3.491  -0.464  25.525  0.00  0.00    -0.296 NA
ATOM      6  N   UNL     1      -3.581   1.093  23.097  0.00  0.00    -0.312 N 
ATOM     10  C   UNL     1      -2.264  -1.023  24.916  0.00  0.00    +0.084 C 
ATOM     11  C   UNL     1      -1.666  -0.312  23.667  0.00  0.00    +0.161 C 
ATOM     12  C   UNL     1      -1.056  -1.063  25.870  0.00  0.00    +0.036 C 
ATOM     13  C   UNL     1       0.130  -1.169  24.935  0.00  0.00    +0.087 C 
ATOM     14  C   UNL     1      -4.689  -0.497  24.639  0.00  0.00    +0.074 C 
ATOM     15  C   UNL     1      -2.229   1.078  23.384  0.00  0.00    +0.232 C 
ATOM     16  C   UNL     1      -4.427  -0.080  23.179  0.00  0.00    +0.123 C 
ATOM     19  C   UNL     1      -3.787  -1.123  26.808  0.00  0.00    +0.105 C 
ATOM     38  H   UNL     1      -4.014   1.984  22.877  0.00  0.00    +0.149 HD
ENDROOT
BRANCH   4  17
ATOM     17  C   UNL     1       0.590  -0.339  22.710  0.00  0.00    +0.159 C 
BRANCH  17  20
ATOM      7  N   UNL     1       2.817   0.757  23.095  0.00  0.00    -0.330 N 
ATOM      8  N   UNL     1       2.769  -1.460  23.246  0.00  0.00    -0.231 NA
ATOM     20  C   UNL     1       2.058  -0.378  23.020  0.00  0.00    +0.125 A 
ATOM     23  C   UNL     1       4.102   0.382  23.391  0.00  0.00    +0.069 A 
ATOM     24  C   UNL     1       4.047  -1.006  23.479  0.00  0.00    +0.089 A 
ATOM     25  C   UNL     1       2.350   2.111  22.901  0.00  0.00    +0.150 C 
ATOM     26  C   UNL     1       5.274   1.116  23.582  0.00  0.00    +0.028 A 
ATOM     27  C   UNL     1       5.219  -1.721  23.776  0.00  0.00    +0.030 A 
ATOM     29  C   UNL     1       6.431   0.389  23.876  0.00  0.00    +0.002 A 
ATOM     30  C   UNL     1       6.407  -1.005  23.972  0.00  0.00    +0.002 A 
ENDBRANCH  17  20
ENDBRANCH   4  17
BRANCH  14  18
ATOM     18  C   UNL     1      -5.796   0.423  25.194  0.00  0.00    +0.029 C 
BRANCH  18  21
ATOM     21  C   UNL     1      -5.835   1.735  24.431  0.00  0.00    +0.097 C 
BRANCH  21  22
ATOM      2  O   UNL     1      -5.334   3.129  26.347  0.00  0.00    -0.276 OA
ATOM      9  N   UNL     1      -4.159   3.457  24.372  0.00  0.00    -0.311 N 
ATOM     22  C   UNL     1      -5.104   2.836  25.176  0.00  0.00    +0.213 C 
ATOM     39  H   UNL     1      -4.084   3.186  23.396  0.00  0.00    +0.149 HD
BRANCH   9  28
ATOM     28  C   UNL     1      -3.331   4.540  24.850  0.00  0.00    +0.139 C 
BRANCH  28  31
ATOM     31  C   UNL     1      -2.051   4.043  25.457  0.00  0.00    -0.030 A 
ATOM     32  C   UNL     1      -0.830   4.567  25.036  0.00  0.00    +0.009 A 
ATOM     33  C   UNL     1      -2.085   3.057  26.443  0.00  0.00    +0.009 A 
ATOM     34  C   UNL     1       0.359   4.105  25.601  0.00  0.00    +0.046 A 
ATOM     35  C   UNL     1      -0.897   2.594  27.007  0.00  0.00    +0.046 A 
ATOM     36  C   UNL     1       0.326   3.117  26.586  0.00  0.00    +0.120 A 
BRANCH  36   3
ATOM      3  O   UNL     1       1.485   2.667  27.137  0.00  0.00    -0.495 OA
ATOM     37  C   UNL     1       1.554   2.627  28.562  0.00  0.00    +0.277 C 
ENDBRANCH  36   3
ENDBRANCH  28  31
ENDBRANCH   9  28
ENDBRANCH  21  22
ENDBRANCH  18  21
ENDBRANCH  14  18
TORSDOF 8
ENDMDL
MODEL 2
REMARK VINA RESULT:       7.1      1.739      3.495
REMARK  Name = 45360943
REMARK  11 active torsions:
REMARK  status: ('A' for Active; 'I' for Inactive)
REMARK    1  A    between atoms: O_3  and  C_36
REMARK    2  A    between atoms: O_3  and  C_37
REMARK    3  A    between atoms: N_4  and  C_17
REMARK    4  A    between atoms: N_5  and  C_19
REMARK    5  A    between atoms: N_7  and  C_25
REMARK    6  A    between atoms: N_9  and  C_28
REMARK    7  A    between atoms: C_14  and  C_18
REMARK    8  A    between atoms: C_17  and  C_20
REMARK    9  A    between atoms: C_18  and  C_21
REMARK   10  A    between atoms: C_21  and  C_22
REMARK   11  A    between atoms: C_28  and  C_31
REMARK                            x       y       z     vdW  Elec       q    Type
REMARK                         _______ _______ _______ _____ _____    ______ ____
ROOT
ATOM      1  O   UNL     1      -1.084   3.094  21.766  0.00  0.00    -0.274 OA
ATOM      4  N   UNL     1       0.239   1.599  23.584  0.00  0.00    -0.283 NA
ATOM      5  N   UNL     1      -2.447   3.314  25.383  0.00  0.00    -0.296 NA
ATOM      6  N   UNL     1      -3.157   2.704  22.654  0.00  0.00    -0.312 N 
ATOM     10  C   UNL     1      -1.472   2.218  25.192  0.00  0.00    +0.084 C 
ATOM     11  C   UNL     1      -1.224   1.689  23.748  0.00  0.00    +0.161 C 
ATOM     12  C   UNL     1      -0.044   2.564  25.654  0.00  0.00    +0.036 C 
ATOM     13  C   UNL     1       0.818   1.558  24.922  0.00  0.00    +0.087 C 
ATOM     14  C   UNL     1      -3.848   2.963  25.018  0.00  0.00    +0.074 C 
ATOM     15  C   UNL     1      -1.782   2.570  22.633  0.00  0.00    +0.232 C 
ATOM     16  C   UNL     1      -3.997   2.168  23.706  0.00  0.00    +0.123 C 
ATOM     19  C   UNL     1      -2.393   3.829  26.761  0.00  0.00    +0.105 C 
ATOM     38  H   UNL     1      -3.594   3.259  21.925  0.00  0.00    +0.149 HD
ENDROOT
BRANCH   4  17
ATOM     17  C   UNL     1       0.660   0.465  22.770  0.00  0.00    +0.159 C 
BRANCH  17  20
ATOM      7  N   UNL     1       3.120   0.941  22.936  0.00  0.00    -0.330 N 
ATOM      8  N   UNL     1       2.480  -1.126  23.440  0.00  0.00    -0.231 NA
ATOM     20  C   UNL     1       2.078   0.065  23.056  0.00  0.00    +0.125 A 
ATOM     23  C   UNL     1       4.271   0.271  23.265  0.00  0.00    +0.069 A 
ATOM     24  C   UNL     1       3.845  -1.016  23.575  0.00  0.00    +0.089 A 
ATOM     25  C   UNL     1       3.029   2.327  22.535  0.00  0.00    +0.150 C 
ATOM     26  C   UNL     1       5.607   0.670  23.315  0.00  0.00    +0.028 A 
ATOM     27  C   UNL     1       4.794  -1.977  23.962  0.00  0.00    +0.030 A 
ATOM     29  C   UNL     1       6.539  -0.299  23.702  0.00  0.00    +0.002 A 
ATOM     30  C   UNL     1       6.141  -1.601  24.020  0.00  0.00    +0.002 A 
ENDBRANCH  17  20
ENDBRANCH   4  17
BRANCH  14  18
ATOM     18  C   UNL     1      -4.708   4.237  24.889  0.00  0.00    +0.029 C 
BRANCH  18  21
ATOM     21  C   UNL     1      -6.042   4.058  25.590  0.00  0.00    +0.097 C 
BRANCH  21  22
ATOM      2  O   UNL     1      -6.544   2.290  27.168  0.00  0.00    -0.276 OA
ATOM      9  N   UNL     1      -6.096   1.739  24.958  0.00  0.00    -0.311 N 
ATOM     22  C   UNL     1      -6.259   2.618  26.018  0.00  0.00    +0.213 C 
ATOM     39  H   UNL     1      -5.799   2.101  24.055  0.00  0.00    +0.149 HD
BRANCH   9  28
ATOM     28  C   UNL     1      -6.249   0.310  25.109  0.00  0.00    +0.139 C 
BRANCH  28  31
ATOM     31  C   UNL     1      -4.939  -0.411  24.977  0.00  0.00    -0.030 A 
ATOM     32  C   UNL     1      -3.977  -0.299  25.980  0.00  0.00    +0.009 A 
ATOM     33  C   UNL     1      -4.685  -1.194  23.850  0.00  0.00    +0.009 A 
ATOM     34  C   UNL     1      -2.759  -0.971  25.857  0.00  0.00    +0.046 A 
ATOM     35  C   UNL     1      -3.468  -1.864  23.727  0.00  0.00    +0.046 A 
ATOM     36  C   UNL     1      -2.505  -1.752  24.729  0.00  0.00    +0.120 A 
BRANCH  36   3
ATOM      3  O   UNL     1      -1.319  -2.407  24.610  0.00  0.00    -0.495 OA
ATOM     37  C   UNL     1      -0.241  -1.955  25.428  0.00  0.00    +0.277 C 
ENDBRANCH  36   3
ENDBRANCH  28  31
ENDBRANCH   9  28
ENDBRANCH  21  22
ENDBRANCH  18  21
ENDBRANCH  14  18
TORSDOF 8
ENDMDL
MODEL 3
REMARK VINA RESULT:       7.9      1.663      2.833
REMARK  Name = 45360943
REMARK  11 active torsions:
REMARK  status: ('A' for Active; 'I' for Inactive)
REMARK    1  A    between atoms: O_3  and  C_36
REMARK    2  A    between atoms: O_3  and  C_37
REMARK    3  A    between atoms: N_4  and  C_17
REMARK    4  A    between atoms: N_5  and  C_19
REMARK    5  A    between atoms: N_7  and  C_25
REMARK    6  A    between atoms: N_9  and  C_28
REMARK    7  A    between atoms: C_14  and  C_18
REMARK    8  A    between atoms: C_17  and  C_20
REMARK    9  A    between atoms: C_18  and  C_21
REMARK   10  A    between atoms: C_21  and  C_22
REMARK   11  A    between atoms: C_28  and  C_31
REMARK                            x       y       z     vdW  Elec       q    Type
REMARK                         _______ _______ _______ _____ _____    ______ ____
ROOT
ATOM      1  O   UNL     1      -2.210   1.390  22.574  0.00  0.00    -0.274 OA
ATOM      4  N   UNL     1       0.014   1.854  24.034  0.00  0.00    -0.283 NA
ATOM      5  N   UNL     1      -1.923  -0.674  25.837  0.00  0.00    -0.296 NA
ATOM      6  N   UNL     1      -2.249  -0.863  22.977  0.00  0.00    -0.312 N 
ATOM     10  C   UNL     1      -0.669   0.023  25.474  0.00  0.00    +0.084 C 
ATOM     11  C   UNL     1      -0.465   0.460  23.993  0.00  0.00    +0.161 C 
ATOM     12  C   UNL     1      -0.448   1.346  26.231  0.00  0.00    +0.036 C 
ATOM     13  C   UNL     1       0.555   2.082  25.369  0.00  0.00    +0.087 C 
ATOM     14  C   UNL     1      -2.108  -1.995  25.174  0.00  0.00    +0.074 C 
ATOM     15  C   UNL     1      -1.720   0.405  23.126  0.00  0.00    +0.232 C 
ATOM     16  C   UNL     1      -1.745  -2.026  23.677  0.00  0.00    +0.123 C 
ATOM     19  C   UNL     1      -2.040  -0.815  27.298  0.00  0.00    +0.105 C 
ATOM     38  H   UNL     1      -3.072  -0.972  22.392  0.00  0.00    +0.149 HD
ENDROOT
BRANCH   4  17
ATOM     17  C   UNL     1       0.983   2.163  22.990  0.00  0.00    +0.159 C 
BRANCH  17  20
ATOM      7  N   UNL     1       2.317   0.035  22.984  0.00  0.00    -0.330 N 
ATOM      8  N   UNL     1       3.426   1.893  23.489  0.00  0.00    -0.231 NA
ATOM     20  C   UNL     1       2.258   1.389  23.161  0.00  0.00    +0.125 A 
ATOM     23  C   UNL     1       3.610  -0.360  23.212  0.00  0.00    +0.069 A 
ATOM     24  C   UNL     1       4.282   0.817  23.526  0.00  0.00    +0.089 A 
ATOM     25  C   UNL     1       1.216  -0.829  22.619  0.00  0.00    +0.150 C 
ATOM     26  C   UNL     1       4.230  -1.610  23.173  0.00  0.00    +0.028 A 
ATOM     27  C   UNL     1       5.655   0.764  23.821  0.00  0.00    +0.030 A 
ATOM     29  C   UNL     1       5.597  -1.644  23.469  0.00  0.00    +0.002 A 
ATOM     30  C   UNL     1       6.299  -0.478  23.788  0.00  0.00    +0.002 A 
ENDBRANCH  17  20
ENDBRANCH   4  17
BRANCH  14  18
ATOM     18  C   UNL     1      -3.571  -2.466  25.307  0.00  0.00    +0.029 C 
BRANCH  18  21
ATOM     21  C   UNL     1      -4.491  -1.603  24.462  0.00  0.00    +0.097 C 
BRANCH  21  22
ATOM      2  O   UNL     1      -4.685  -0.131  26.375  0.00  0.00    -0.276 OA
ATOM      9  N   UNL     1      -5.397   0.617  24.296  0.00  0.00    -0.311 N 
ATOM     22  C   UNL     1      -4.855  -0.312  25.172  0.00  0.00    +0.213 C 
ATOM     39  H   UNL     1      -5.555   0.352  23.328  0.00  0.00    +0.149 HD
BRANCH   9  28
ATOM     28  C   UNL     1      -5.826   1.927  24.729  0.00  0.00    +0.139 C 
BRANCH  28  31
ATOM     31  C   UNL     1      -4.669   2.868  24.904  0.00  0.00    -0.030 A 
ATOM     32  C   UNL     1      -3.973   3.331  23.788  0.00  0.00    +0.009 A 
ATOM     33  C   UNL     1      -4.290   3.277  26.182  0.00  0.00    +0.009 A 
ATOM     34  C   UNL     1      -2.898   4.206  23.950  0.00  0.00    +0.046 A 
ATOM     35  C   UNL     1      -3.215   4.150  26.345  0.00  0.00    +0.046 A 
ATOM     36  C   UNL     1      -2.518   4.614  25.229  0.00  0.00    +0.120 A 
BRANCH  36   3
ATOM      3  O   UNL     1      -1.471   5.468  25.387  0.00  0.00    -0.495 OA
ATOM     37  C   UNL     1      -0.408   5.374  24.440  0.00  0.00    +0.277 C 
ENDBRANCH  36   3
ENDBRANCH  28  31
ENDBRANCH   9  28
ENDBRANCH  21  22
ENDBRANCH  18  21
ENDBRANCH  14  18
TORSDOF 8
ENDMDL
MODEL 4
REMARK VINA RESULT:       7.9      1.167      1.724
REMARK  Name = 45360943
REMARK  11 active torsions:
REMARK  status: ('A' for Active; 'I' for Inactive)
REMARK    1  A    between atoms: O_3  and  C_36
REMARK    2  A    between atoms: O_3  and  C_37
REMARK    3  A    between atoms: N_4  and  C_17
REMARK    4  A    between atoms: N_5  and  C_19
REMARK    5  A    between atoms: N_7  and  C_25
REMARK    6  A    between atoms: N_9  and  C_28
REMARK    7  A    between atoms: C_14  and  C_18
REMARK    8  A    between atoms: C_17  and  C_20
REMARK    9  A    between atoms: C_18  and  C_21
REMARK   10  A    between atoms: C_21  and  C_22
REMARK   11  A    between atoms: C_28  and  C_31
REMARK                            x       y       z     vdW  Elec       q    Type
REMARK                         _______ _______ _______ _____ _____    ______ ____
ROOT
ATOM      1  O   UNL     1      -1.334   2.075  23.645  0.00  0.00    -0.274 OA
ATOM      4  N   UNL     1      -0.095  -0.301  23.984  0.00  0.00    -0.283 NA
ATOM      5  N   UNL     1      -3.359  -0.571  25.617  0.00  0.00    -0.296 NA
ATOM      6  N   UNL     1      -3.412   1.174  23.320  0.00  0.00    -0.312 N 
ATOM     10  C   UNL     1      -2.163  -1.130  24.948  0.00  0.00    +0.084 C 
ATOM     11  C   UNL     1      -1.550  -0.347  23.749  0.00  0.00    +0.161 C 
ATOM     12  C   UNL     1      -0.946  -1.294  25.878  0.00  0.00    +0.036 C 
ATOM     13  C   UNL     1       0.222  -1.373  24.919  0.00  0.00    +0.087 C 
ATOM     14  C   UNL     1      -4.567  -0.486  24.749  0.00  0.00    +0.074 C 
ATOM     15  C   UNL     1      -2.059   1.082  23.584  0.00  0.00    +0.232 C 
ATOM     16  C   UNL     1      -4.306   0.033  23.322  0.00  0.00    +0.123 C 
ATOM     19  C   UNL     1      -3.667  -1.317  26.848  0.00  0.00    +0.105 C 
ATOM     38  H   UNL     1      -3.811   2.097  23.176  0.00  0.00    +0.149 HD
ENDROOT
BRANCH   4  17
ATOM     17  C   UNL     1       0.691  -0.391  22.760  0.00  0.00    +0.159 C 
BRANCH  17  20
ATOM      7  N   UNL     1       2.921   0.720  23.073  0.00  0.00    -0.330 N 
ATOM      8  N   UNL     1       2.884  -1.493  23.277  0.00  0.00    -0.231 NA
ATOM     20  C   UNL     1       2.165  -0.418  23.040  0.00  0.00    +0.125 A 
ATOM     23  C   UNL     1       4.214   0.356  23.352  0.00  0.00    +0.069 A 
ATOM     24  C   UNL     1       4.165  -1.029  23.473  0.00  0.00    +0.089 A 
ATOM     25  C   UNL     1       2.446   2.068  22.857  0.00  0.00    +0.150 C 
ATOM     26  C   UNL     1       5.387   1.098  23.501  0.00  0.00    +0.028 A 
ATOM     27  C   UNL     1       5.345  -1.734  23.762  0.00  0.00    +0.030 A 
ATOM     29  C   UNL     1       6.552   0.381  23.788  0.00  0.00    +0.002 A 
ATOM     30  C   UNL     1       6.534  -1.011  23.917  0.00  0.00    +0.002 A 
ENDBRANCH  17  20
ENDBRANCH   4  17
BRANCH  14  18
ATOM     18  C   UNL     1      -5.629   0.431  25.390  0.00  0.00    +0.029 C 
BRANCH  18  21
ATOM     21  C   UNL     1      -5.912   1.628  24.499  0.00  0.00    +0.097 C 
BRANCH  21  22
ATOM      2  O   UNL     1      -4.683   3.679  24.119  0.00  0.00    -0.276 OA
ATOM      9  N   UNL     1      -4.887   2.869  26.285  0.00  0.00    -0.311 N 
ATOM     22  C   UNL     1      -5.097   2.839  24.914  0.00  0.00    +0.213 C 
ATOM     39  H   UNL     1      -5.218   2.094  26.854  0.00  0.00    +0.149 HD
BRANCH   9  28
ATOM     28  C   UNL     1      -4.136   3.923  26.928  0.00  0.00    +0.139 C 
BRANCH  28  31
ATOM     31  C   UNL     1      -2.872   4.245  26.185  0.00  0.00    -0.030 A 
ATOM     32  C   UNL     1      -1.789   3.370  26.239  0.00  0.00    +0.009 A 
ATOM     33  C   UNL     1      -2.783   5.422  25.440  0.00  0.00    +0.009 A 
ATOM     34  C   UNL     1      -0.614   3.671  25.548  0.00  0.00    +0.046 A 
ATOM     35  C   UNL     1      -1.609   5.723  24.750  0.00  0.00    +0.046 A 
ATOM     36  C   UNL     1      -0.524   4.847  24.805  0.00  0.00    +0.120 A 
BRANCH  36   3
ATOM      3  O   UNL     1       0.620   5.140  24.130  0.00  0.00    -0.495 OA
ATOM     37  C   UNL     1       0.536   5.212  22.708  0.00  0.00    +0.277 C 
ENDBRANCH  36   3
ENDBRANCH  28  31
ENDBRANCH   9  28
ENDBRANCH  21  22
ENDBRANCH  18  21
ENDBRANCH  14  18
TORSDOF 8
ENDMDL
MODEL 5
REMARK VINA RESULT:       8.3      1.922      4.515
REMARK  Name = 45360943
REMARK  11 active torsions:
REMARK  status: ('A' for Active; 'I' for Inactive)
REMARK    1  A    between atoms: O_3  and  C_36
REMARK    2  A    between atoms: O_3  and  C_37
REMARK    3  A    between atoms: N_4  and  C_17
REMARK    4  A    between atoms: N_5  and  C_19
REMARK    5  A    between atoms: N_7  and  C_25
REMARK    6  A    between atoms: N_9  and  C_28
REMARK    7  A    between atoms: C_14  and  C_18
REMARK    8  A    between atoms: C_17  and  C_20
REMARK    9  A    between atoms: C_18  and  C_21
REMARK   10  A    between atoms: C_21  and  C_22
REMARK   11  A    between atoms: C_28  and  C_31
REMARK                            x       y       z     vdW  Elec       q    Type
REMARK                         _______ _______ _______ _____ _____    ______ ____
ROOT
ATOM      1  O   UNL     1      -1.422   0.315  26.434  0.00  0.00    -0.274 OA
ATOM      4  N   UNL     1      -1.102  -0.358  23.839  0.00  0.00    -0.283 NA
ATOM      5  N   UNL     1      -2.038   3.180  23.905  0.00  0.00    -0.296 NA
ATOM      6  N   UNL     1      -0.502   2.399  26.219  0.00  0.00    -0.312 N 
ATOM     10  C   UNL     1      -1.403   1.990  23.296  0.00  0.00    +0.084 C 
ATOM     11  C   UNL     1      -0.652   0.992  24.228  0.00  0.00    +0.161 C 
ATOM     12  C   UNL     1      -2.389   1.061  22.562  0.00  0.00    +0.036 C 
ATOM     13  C   UNL     1      -1.646  -0.256  22.490  0.00  0.00    +0.087 C 
ATOM     14  C   UNL     1      -1.083   4.128  24.544  0.00  0.00    +0.074 C 
ATOM     15  C   UNL     1      -0.916   1.179  25.719  0.00  0.00    +0.232 C 
ATOM     16  C   UNL     1       0.021   3.465  25.389  0.00  0.00    +0.123 C 
ATOM     19  C   UNL     1      -2.877   3.886  22.921  0.00  0.00    +0.105 C 
ATOM     38  H   UNL     1      -0.628   2.578  27.210  0.00  0.00    +0.149 HD
ENDROOT
BRANCH   4  17
ATOM     17  C   UNL     1      -0.052  -1.365  23.932  0.00  0.00    +0.159 C 
BRANCH  17  20
ATOM      7  N   UNL     1       2.456  -1.402  24.064  0.00  0.00    -0.330 N 
ATOM      8  N   UNL     1       1.549   0.332  23.010  0.00  0.00    -0.231 NA
ATOM     20  C   UNL     1       1.306  -0.788  23.653  0.00  0.00    +0.125 A 
ATOM     23  C   UNL     1       3.512  -0.628  23.656  0.00  0.00    +0.069 A 
ATOM     24  C   UNL     1       2.920   0.448  23.002  0.00  0.00    +0.089 A 
ATOM     25  C   UNL     1       2.546  -2.646  24.795  0.00  0.00    +0.150 C 
ATOM     26  C   UNL     1       4.892  -0.772  23.802  0.00  0.00    +0.028 A 
ATOM     27  C   UNL     1       3.738   1.449  22.452  0.00  0.00    +0.030 A 
ATOM     29  C   UNL     1       5.692   0.233  23.249  0.00  0.00    +0.002 A 
ATOM     30  C   UNL     1       5.127   1.326  22.585  0.00  0.00    +0.002 A 
ENDBRANCH  17  20
ENDBRANCH   4  17
BRANCH  14  18
ATOM     18  C   UNL     1      -1.837   5.117  25.458  0.00  0.00    +0.029 C 
BRANCH  18  21
ATOM     21  C   UNL     1      -2.655   4.372  26.497  0.00  0.00    +0.097 C 
BRANCH  21  22
ATOM      2  O   UNL     1      -4.824   4.473  25.427  0.00  0.00    -0.276 OA
ATOM      9  N   UNL     1      -3.919   2.401  25.953  0.00  0.00    -0.311 N 
ATOM     22  C   UNL     1      -3.920   3.787  25.898  0.00  0.00    +0.213 C 
ATOM     39  H   UNL     1      -3.152   1.924  26.418  0.00  0.00    +0.149 HD
BRANCH   9  28
ATOM     28  C   UNL     1      -5.016   1.608  25.448  0.00  0.00    +0.139 C 
BRANCH  28  31
ATOM     31  C   UNL     1      -4.599   0.196  25.154  0.00  0.00    -0.030 A 
ATOM     32  C   UNL     1      -3.871  -0.527  26.099  0.00  0.00    +0.009 A 
ATOM     33  C   UNL     1      -4.939  -0.392  23.936  0.00  0.00    +0.009 A 
ATOM     34  C   UNL     1      -3.484  -1.840  25.825  0.00  0.00    +0.046 A 
ATOM     35  C   UNL     1      -4.551  -1.703  23.662  0.00  0.00    +0.046 A 
ATOM     36  C   UNL     1      -3.823  -2.427  24.606  0.00  0.00    +0.120 A 
BRANCH  36   3
ATOM      3  O   UNL     1      -3.446  -3.707  24.340  0.00  0.00    -0.495 OA
ATOM     37  C   UNL     1      -2.346  -3.888  23.450  0.00  0.00    +0.277 C 
ENDBRANCH  36   3
ENDBRANCH  28  31
ENDBRANCH   9  28
ENDBRANCH  21  22
ENDBRANCH  18  21
ENDBRANCH  14  18
TORSDOF 8
ENDMDL
MODEL 6
REMARK VINA RESULT:       8.4      1.666      4.080
REMARK  Name = 45360943
REMARK  11 active torsions:
REMARK  status: ('A' for Active; 'I' for Inactive)
REMARK    1  A    between atoms: O_3  and  C_36
REMARK    2  A    between atoms: O_3  and  C_37
REMARK    3  A    between atoms: N_4  and  C_17
REMARK    4  A    between atoms: N_5  and  C_19
REMARK    5  A    between atoms: N_7  and  C_25
REMARK    6  A    between atoms: N_9  and  C_28
REMARK    7  A    between atoms: C_14  and  C_18
REMARK    8  A    between atoms: C_17  and  C_20
REMARK    9  A    between atoms: C_18  and  C_21
REMARK   10  A    between atoms: C_21  and  C_22
REMARK   11  A    between atoms: C_28  and  C_31
REMARK                            x       y       z     vdW  Elec       q    Type
REMARK                         _______ _______ _______ _____ _____    ______ ____
ROOT
ATOM      1  O   UNL     1       0.231   2.262  26.014  0.00  0.00    -0.274 OA
ATOM      4  N   UNL     1       0.213   2.085  23.320  0.00  0.00    -0.283 NA
ATOM      5  N   UNL     1      -3.207   2.884  24.346  0.00  0.00    -0.296 NA
ATOM      6  N   UNL     1      -1.228   4.022  26.111  0.00  0.00    -0.312 N 
ATOM     10  C   UNL     1      -2.085   2.865  23.382  0.00  0.00    +0.084 C 
ATOM     11  C   UNL     1      -0.645   3.127  23.915  0.00  0.00    +0.161 C 
ATOM     12  C   UNL     1      -1.915   1.522  22.648  0.00  0.00    +0.036 C 
ATOM     13  C   UNL     1      -0.486   1.571  22.149  0.00  0.00    +0.087 C 
ATOM     14  C   UNL     1      -3.435   4.203  25.001  0.00  0.00    +0.074 C 
ATOM     15  C   UNL     1      -0.498   3.066  25.433  0.00  0.00    +0.232 C 
ATOM     16  C   UNL     1      -2.155   4.927  25.462  0.00  0.00    +0.123 C 
ATOM     19  C   UNL     1      -4.449   2.407  23.714  0.00  0.00    +0.105 C 
ATOM     38  H   UNL     1      -1.157   4.051  27.123  0.00  0.00    +0.149 HD
ENDROOT
BRANCH   4  17
ATOM     17  C   UNL     1       1.553   2.559  22.994  0.00  0.00    +0.159 C 
BRANCH  17  20
ATOM      7  N   UNL     1       2.257   0.172  23.336  0.00  0.00    -0.330 N 
ATOM      8  N   UNL     1       3.888   1.679  23.248  0.00  0.00    -0.231 NA
ATOM     20  C   UNL     1       2.589   1.490  23.191  0.00  0.00    +0.125 A 
ATOM     23  C   UNL     1       3.420  -0.537  23.495  0.00  0.00    +0.069 A 
ATOM     24  C   UNL     1       4.423   0.425  23.438  0.00  0.00    +0.089 A 
ATOM     25  C   UNL     1       0.921  -0.379  23.321  0.00  0.00    +0.150 C 
ATOM     26  C   UNL     1       3.672  -1.897  23.681  0.00  0.00    +0.028 A 
ATOM     27  C   UNL     1       5.763   0.026  23.570  0.00  0.00    +0.030 A 
ATOM     29  C   UNL     1       5.011  -2.277  23.812  0.00  0.00    +0.002 A 
ATOM     30  C   UNL     1       6.041  -1.333  23.757  0.00  0.00    +0.002 A 
ENDBRANCH  17  20
ENDBRANCH   4  17
BRANCH  14  18
ATOM     18  C   UNL     1      -4.349   4.043  26.233  0.00  0.00    +0.029 C 
BRANCH  18  21
ATOM     21  C   UNL     1      -5.761   3.682  25.811  0.00  0.00    +0.097 C 
BRANCH  21  22
ATOM      2  O   UNL     1      -6.642   1.817  27.079  0.00  0.00    -0.276 OA
ATOM      9  N   UNL     1      -5.613   1.411  25.038  0.00  0.00    -0.311 N 
ATOM     22  C   UNL     1      -6.066   2.219  26.071  0.00  0.00    +0.213 C 
ATOM     39  H   UNL     1      -5.092   1.830  24.273  0.00  0.00    +0.149 HD
BRANCH   9  28
ATOM     28  C   UNL     1      -5.782  -0.024  25.050  0.00  0.00    +0.139 C 
BRANCH  28  31
ATOM     31  C   UNL     1      -4.468  -0.744  24.948  0.00  0.00    -0.030 A 
ATOM     32  C   UNL     1      -4.336  -1.836  24.091  0.00  0.00    +0.009 A 
ATOM     33  C   UNL     1      -3.381  -0.321  25.712  0.00  0.00    +0.009 A 
ATOM     34  C   UNL     1      -3.115  -2.505  23.997  0.00  0.00    +0.046 A 
ATOM     35  C   UNL     1      -2.161  -0.990  25.619  0.00  0.00    +0.046 A 
ATOM     36  C   UNL     1      -2.028  -2.083  24.762  0.00  0.00    +0.120 A 
BRANCH  36   3
ATOM      3  O   UNL     1      -0.838  -2.734  24.669  0.00  0.00    -0.495 OA
ATOM     37  C   UNL     1       0.126  -2.475  25.688  0.00  0.00    +0.277 C 
ENDBRANCH  36   3
ENDBRANCH  28  31
ENDBRANCH   9  28
ENDBRANCH  21  22
ENDBRANCH  18  21
ENDBRANCH  14  18
TORSDOF 8
ENDMDL
MODEL 7
REMARK VINA RESULT:       8.8      1.809      2.856
REMARK  Name = 45360943
REMARK  11 active torsions:
REMARK  status: ('A' for Active; 'I' for Inactive)
REMARK    1  A    between atoms: O_3  and  C_36
REMARK    2  A    between atoms: O_3  and  C_37
REMARK    3  A    between atoms: N_4  and  C_17
REMARK    4  A    between atoms: N_5  and  C_19
REMARK    5  A    between atoms: N_7  and  C_25
REMARK    6  A    between atoms: N_9  and  C_28
REMARK    7  A    between atoms: C_14  and  C_18
REMARK    8  A    between atoms: C_17  and  C_20
REMARK    9  A    between atoms: C_18  and  C_21
REMARK   10  A    between atoms: C_21  and  C_22
REMARK   11  A    between atoms: C_28  and  C_31
REMARK                            x       y       z     vdW  Elec       q    Type
REMARK                         _______ _______ _______ _____ _____    ______ ____
ROOT
ATOM      1  O   UNL     1       0.013   1.256  24.351  0.00  0.00    -0.274 OA
ATOM      4  N   UNL     1      -1.287  -1.110  24.393  0.00  0.00    -0.283 NA
ATOM      5  N   UNL     1      -3.820   1.493  24.842  0.00  0.00    -0.296 NA
ATOM      6  N   UNL     1      -1.620   2.363  23.191  0.00  0.00    -0.312 N 
ATOM     10  C   UNL     1      -3.365   0.145  24.437  0.00  0.00    +0.084 C 
ATOM     11  C   UNL     1      -1.983   0.009  23.731  0.00  0.00    +0.161 C 
ATOM     12  C   UNL     1      -3.225  -0.847  25.607  0.00  0.00    +0.036 C 
ATOM     13  C   UNL     1      -2.306  -1.916  25.056  0.00  0.00    +0.087 C 
ATOM     14  C   UNL     1      -4.040   2.436  23.710  0.00  0.00    +0.074 C 
ATOM     15  C   UNL     1      -1.093   1.247  23.812  0.00  0.00    +0.232 C 
ATOM     16  C   UNL     1      -2.951   2.407  22.621  0.00  0.00    +0.123 C 
ATOM     19  C   UNL     1      -5.029   1.408  25.678  0.00  0.00    +0.105 C 
ATOM     38  H   UNL     1      -1.067   3.215  23.189  0.00  0.00    +0.149 HD
ENDROOT
BRANCH   4  17
ATOM     17  C   UNL     1      -0.470  -1.902  23.482  0.00  0.00    +0.159 C 
BRANCH  17  20
ATOM      7  N   UNL     1       1.326  -0.578  22.329  0.00  0.00    -0.330 N 
ATOM      8  N   UNL     1       1.903  -1.579  24.228  0.00  0.00    -0.231 NA
ATOM     20  C   UNL     1       0.928  -1.366  23.373  0.00  0.00    +0.125 A 
ATOM     23  C   UNL     1       2.646  -0.260  22.525  0.00  0.00    +0.069 A 
ATOM     24  C   UNL     1       2.982  -0.897  23.716  0.00  0.00    +0.089 A 
ATOM     25  C   UNL     1       0.506  -0.152  21.218  0.00  0.00    +0.150 C 
ATOM     26  C   UNL     1       3.547   0.506  21.784  0.00  0.00    +0.028 A 
ATOM     27  C   UNL     1       4.291  -0.773  24.213  0.00  0.00    +0.030 A 
ATOM     29  C   UNL     1       4.844   0.619  22.293  0.00  0.00    +0.002 A 
ATOM     30  C   UNL     1       5.212  -0.009  23.486  0.00  0.00    +0.002 A 
ENDBRANCH  17  20
ENDBRANCH   4  17
BRANCH  14  18
ATOM     18  C   UNL     1      -4.141   3.886  24.227  0.00  0.00    +0.029 C 
BRANCH  18  21
ATOM     21  C   UNL     1      -3.553   4.001  25.621  0.00  0.00    +0.097 C 
BRANCH  21  22
ATOM      2  O   UNL     1      -1.642   5.416  25.166  0.00  0.00    -0.276 OA
ATOM      9  N   UNL     1      -1.294   3.301  26.056  0.00  0.00    -0.311 N 
ATOM     22  C   UNL     1      -2.075   4.343  25.578  0.00  0.00    +0.213 C 
ATOM     39  H   UNL     1      -1.741   2.427  26.318  0.00  0.00    +0.149 HD
BRANCH   9  28
ATOM     28  C   UNL     1       0.147   3.381  26.116  0.00  0.00    +0.139 C 
BRANCH  28  31
ATOM     31  C   UNL     1       0.676   2.976  27.461  0.00  0.00    -0.030 A 
ATOM     32  C   UNL     1       2.052   2.932  27.685  0.00  0.00    +0.009 A 
ATOM     33  C   UNL     1      -0.209   2.644  28.487  0.00  0.00    +0.009 A 
ATOM     34  C   UNL     1       2.543   2.555  28.936  0.00  0.00    +0.046 A 
ATOM     35  C   UNL     1       0.282   2.267  29.737  0.00  0.00    +0.046 A 
ATOM     36  C   UNL     1       1.658   2.222  29.961  0.00  0.00    +0.120 A 
BRANCH  36   3
ATOM      3  O   UNL     1       2.137   1.856  31.181  0.00  0.00    -0.495 OA
ATOM     37  C   UNL     1       1.225   1.898  32.276  0.00  0.00    +0.277 C 
ENDBRANCH  36   3
ENDBRANCH  28  31
ENDBRANCH   9  28
ENDBRANCH  21  22
ENDBRANCH  18  21
ENDBRANCH  14  18
TORSDOF 8
ENDMDL
MODEL 8
REMARK VINA RESULT:       9.7     13.995     17.433
REMARK  Name = 45360943
REMARK  11 active torsions:
REMARK  status: ('A' for Active; 'I' for Inactive)
REMARK    1  A    between atoms: O_3  and  C_36
REMARK    2  A    between atoms: O_3  and  C_37
REMARK    3  A    between atoms: N_4  and  C_17
REMARK    4  A    between atoms: N_5  and  C_19
REMARK    5  A    between atoms: N_7  and  C_25
REMARK    6  A    between atoms: N_9  and  C_28
REMARK    7  A    between atoms: C_14  and  C_18
REMARK    8  A    between atoms: C_17  and  C_20
REMARK    9  A    between atoms: C_18  and  C_21
REMARK   10  A    between atoms: C_21  and  C_22
REMARK   11  A    between atoms: C_28  and  C_31
REMARK                            x       y       z     vdW  Elec       q    Type
REMARK                         _______ _______ _______ _____ _____    ______ ____
ROOT
ATOM      1  O   UNL     1      -7.501 -10.766  11.059  0.00  0.00    -0.274 OA
ATOM      4  N   UNL     1      -7.183 -10.207  13.681  0.00  0.00    -0.283 NA
ATOM      5  N   UNL     1      -3.856 -10.069  12.163  0.00  0.00    -0.296 NA
ATOM      6  N   UNL     1      -5.939  -9.257  10.339  0.00  0.00    -0.312 N 
ATOM     10  C   UNL     1      -4.857  -9.712  13.192  0.00  0.00    +0.084 C 
ATOM     11  C   UNL     1      -6.327  -9.459  12.742  0.00  0.00    +0.161 C 
ATOM     12  C   UNL     1      -5.038 -10.781  14.286  0.00  0.00    +0.036 C 
ATOM     13  C   UNL     1      -6.391 -10.453  14.880  0.00  0.00    +0.087 C 
ATOM     14  C   UNL     1      -3.612  -9.008  11.147  0.00  0.00    +0.074 C 
ATOM     15  C   UNL     1      -6.654  -9.914  11.322  0.00  0.00    +0.232 C 
ATOM     16  C   UNL     1      -4.880  -8.309  10.620  0.00  0.00    +0.123 C 
ATOM     19  C   UNL     1      -2.588 -10.481  12.787  0.00  0.00    +0.105 C 
ATOM     38  H   UNL     1      -6.126  -9.496   9.371  0.00  0.00    +0.149 HD
ENDROOT
BRANCH   4  17
ATOM     17  C   UNL     1      -8.438  -9.529  13.983  0.00  0.00    +0.159 C 
BRANCH  17  20
ATOM      7  N   UNL     1      -9.806  -8.904  15.995  0.00  0.00    -0.330 N 
ATOM      8  N   UNL     1      -8.237 -10.446  16.309  0.00  0.00    -0.231 NA
ATOM     20  C   UNL     1      -8.806  -9.648  15.434  0.00  0.00    +0.125 A 
ATOM     23  C   UNL     1      -9.889  -9.247  17.320  0.00  0.00    +0.069 A 
ATOM     24  C   UNL     1      -8.900 -10.210  17.492  0.00  0.00    +0.089 A 
ATOM     25  C   UNL     1     -10.632  -7.932  15.315  0.00  0.00    +0.150 C 
ATOM     26  C   UNL     1     -10.719  -8.808  18.353  0.00  0.00    +0.028 A 
ATOM     27  C   UNL     1      -8.713 -10.781  18.761  0.00  0.00    +0.030 A 
ATOM     29  C   UNL     1     -10.520  -9.387  19.610  0.00  0.00    +0.002 A 
ATOM     30  C   UNL     1      -9.534 -10.357  19.813  0.00  0.00    +0.002 A 
ENDBRANCH  17  20
ENDBRANCH   4  17
BRANCH  14  18
ATOM     18  C   UNL     1      -2.861  -9.588   9.930  0.00  0.00    +0.029 C 
BRANCH  18  21
ATOM     21  C   UNL     1      -1.583  -8.813   9.669  0.00  0.00    +0.097 C 
BRANCH  21  22
ATOM      2  O   UNL     1      -0.677  -9.883  11.643  0.00  0.00    -0.276 OA
ATOM      9  N   UNL     1       0.753  -8.718  10.233  0.00  0.00    -0.311 N 
ATOM     22  C   UNL     1      -0.481  -9.209  10.634  0.00  0.00    +0.213 C 
ATOM     39  H   UNL     1       0.804  -8.117   9.415  0.00  0.00    +0.149 HD
BRANCH   9  28
ATOM     28  C   UNL     1       1.961  -8.958  10.986  0.00  0.00    +0.139 C 
BRANCH  28  31
ATOM     31  C   UNL     1       2.547  -7.686  11.529  0.00  0.00    -0.030 A 
ATOM     32  C   UNL     1       1.752  -6.546  11.644  0.00  0.00    +0.009 A 
ATOM     33  C   UNL     1       3.886  -7.645  11.917  0.00  0.00    +0.009 A 
ATOM     34  C   UNL     1       2.296  -5.364  12.148  0.00  0.00    +0.046 A 
ATOM     35  C   UNL     1       4.430  -6.464  12.420  0.00  0.00    +0.046 A 
ATOM     36  C   UNL     1       3.636  -5.323  12.535  0.00  0.00    +0.120 A 
BRANCH  36   3
ATOM      3  O   UNL     1       4.166  -4.172  13.028  0.00  0.00    -0.495 OA
ATOM     37  C   UNL     1       5.322  -4.291  13.856  0.00  0.00    +0.277 C 
ENDBRANCH  36   3
ENDBRANCH  28  31
ENDBRANCH   9  28
ENDBRANCH  21  22
ENDBRANCH  18  21
ENDBRANCH  14  18
TORSDOF 8
ENDMDL
MODEL 9
REMARK VINA RESULT:      10.1     13.854     17.245
REMARK  Name = 45360943
REMARK  11 active torsions:
REMARK  status: ('A' for Active; 'I' for Inactive)
REMARK    1  A    between atoms: O_3  and  C_36
REMARK    2  A    between atoms: O_3  and  C_37
REMARK    3  A    between atoms: N_4  and  C_17
REMARK    4  A    between atoms: N_5  and  C_19
REMARK    5  A    between atoms: N_7  and  C_25
REMARK    6  A    between atoms: N_9  and  C_28
REMARK    7  A    between atoms: C_14  and  C_18
REMARK    8  A    between atoms: C_17  and  C_20
REMARK    9  A    between atoms: C_18  and  C_21
REMARK   10  A    between atoms: C_21  and  C_22
REMARK   11  A    between atoms: C_28  and  C_31
REMARK                            x       y       z     vdW  Elec       q    Type
REMARK                         _______ _______ _______ _____ _____    ______ ____
ROOT
ATOM      1  O   UNL     1      -7.505 -10.775  11.057  0.00  0.00    -0.274 OA
ATOM      4  N   UNL     1      -7.224 -10.233  13.687  0.00  0.00    -0.283 NA
ATOM      5  N   UNL     1      -3.889  -9.998  12.199  0.00  0.00    -0.296 NA
ATOM      6  N   UNL     1      -5.976  -9.220  10.365  0.00  0.00    -0.312 N 
ATOM     10  C   UNL     1      -4.907  -9.676  13.223  0.00  0.00    +0.084 C 
ATOM     11  C   UNL     1      -6.378  -9.455  12.763  0.00  0.00    +0.161 C 
ATOM     12  C   UNL     1      -5.070 -10.760  14.306  0.00  0.00    +0.036 C 
ATOM     13  C   UNL     1      -6.436 -10.471  14.891  0.00  0.00    +0.087 C 
ATOM     14  C   UNL     1      -3.662  -8.921  11.196  0.00  0.00    +0.074 C 
ATOM     15  C   UNL     1      -6.682  -9.905  11.336  0.00  0.00    +0.232 C 
ATOM     16  C   UNL     1      -4.943  -8.249  10.664  0.00  0.00    +0.123 C 
ATOM     19  C   UNL     1      -2.615 -10.384  12.830  0.00  0.00    +0.105 C 
ATOM     38  H   UNL     1      -6.148  -9.455   9.393  0.00  0.00    +0.149 HD
ENDROOT
BRANCH   4  17
ATOM     17  C   UNL     1      -8.498  -9.590  13.984  0.00  0.00    +0.159 C 
BRANCH  17  20
ATOM      7  N   UNL     1      -9.834  -8.925  16.004  0.00  0.00    -0.330 N 
ATOM      8  N   UNL     1      -8.279 -10.481  16.319  0.00  0.00    -0.231 NA
ATOM     20  C   UNL     1      -8.849  -9.687  15.441  0.00  0.00    +0.125 A 
ATOM     23  C   UNL     1      -9.905  -9.249  17.335  0.00  0.00    +0.069 A 
ATOM     24  C   UNL     1      -8.924 -10.221  17.507  0.00  0.00    +0.089 A 
ATOM     25  C   UNL     1     -10.658  -7.951  15.322  0.00  0.00    +0.150 C 
ATOM     26  C   UNL     1     -10.718  -8.788  18.371  0.00  0.00    +0.028 A 
ATOM     27  C   UNL     1      -8.729 -10.779  18.781  0.00  0.00    +0.030 A 
ATOM     29  C   UNL     1     -10.510  -9.354  19.633  0.00  0.00    +0.002 A 
ATOM     30  C   UNL     1      -9.533 -10.332  19.837  0.00  0.00    +0.002 A 
ENDBRANCH  17  20
ENDBRANCH   4  17
BRANCH  14  18
ATOM     18  C   UNL     1      -2.887  -9.470   9.980  0.00  0.00    +0.029 C 
BRANCH  18  21
ATOM     21  C   UNL     1      -1.605  -8.688   9.763  0.00  0.00    +0.097 C 
BRANCH  21  22
ATOM      2  O   UNL     1       0.145 -10.091  10.675  0.00  0.00    -0.276 OA
ATOM      9  N   UNL     1      -0.436  -8.141  11.791  0.00  0.00    -0.311 N 
ATOM     22  C   UNL     1      -0.537  -9.073  10.769  0.00  0.00    +0.213 C 
ATOM     39  H   UNL     1      -1.087  -7.361  11.816  0.00  0.00    +0.149 HD
BRANCH   9  28
ATOM     28  C   UNL     1       0.508  -8.282  12.875  0.00  0.00    +0.139 C 
BRANCH  28  31
ATOM     31  C   UNL     1      -0.141  -8.819  14.118  0.00  0.00    -0.030 A 
ATOM     32  C   UNL     1      -1.218  -9.698  14.018  0.00  0.00    +0.009 A 
ATOM     33  C   UNL     1       0.335  -8.437  15.373  0.00  0.00    +0.009 A 
ATOM     34  C   UNL     1      -1.820 -10.197  15.174  0.00  0.00    +0.046 A 
ATOM     35  C   UNL     1      -0.268  -8.935  16.528  0.00  0.00    +0.046 A 
ATOM     36  C   UNL     1      -1.346  -9.815  16.429  0.00  0.00    +0.120 A 
BRANCH  36   3
ATOM      3  O   UNL     1      -1.932 -10.302  17.555  0.00  0.00    -0.495 OA
ATOM     37  C   UNL     1      -3.272 -10.778  17.436  0.00  0.00    +0.277 C 
ENDBRANCH  36   3
ENDBRANCH  28  31
ENDBRANCH   9  28
ENDBRANCH  21  22
ENDBRANCH  18  21
ENDBRANCH  14  18
TORSDOF 8
ENDMDL
