MODEL 1
REMARK VINA RESULT:      -5.5      0.000      0.000
REMARK  Name = 75536728
REMARK  9 active torsions:
REMARK  status: ('A' for Active; 'I' for Inactive)
REMARK    1  A    between atoms: O_2  and  C_9
REMARK    2  A    between atoms: N_4  and  C_8
REMARK    3  A    between atoms: N_4  and  C_13
REMARK    4  A    between atoms: N_5  and  C_12
REMARK    5  A    between atoms: N_6  and  C_16
REMARK    6  A    between atoms: C_10  and  C_12
REMARK    7  A    between atoms: C_13  and  C_14
REMARK    8  A    between atoms: C_16  and  C_18
REMARK    9  A    between atoms: C_16  and  C_19
REMARK                            x       y       z     vdW  Elec       q    Type
REMARK                         _______ _______ _______ _____ _____    ______ ____
ROOT
ATOM      1  O   UNL     1       0.193   3.250  23.515  0.00  0.00    -0.371 OA
ATOM      8  C   UNL     1      -0.841   3.855  25.565  0.00  0.00    +0.111 C 
ATOM      9  C   UNL     1      -0.480   2.383  25.610  0.00  0.00    +0.164 C 
ATOM     10  C   UNL     1       0.589   2.310  24.528  0.00  0.00    +0.165 C 
ATOM     11  C   UNL     1      -0.798   4.132  24.072  0.00  0.00    +0.181 C 
ENDROOT
BRANCH   9   2
ATOM      2  O   UNL     1       0.017   1.979  26.871  0.00  0.00    -0.388 OA
ATOM     24  H   UNL     1      -0.029   2.740  27.475  0.00  0.00    +0.210 HD
ENDBRANCH   9   2
BRANCH   8   4
ATOM      4  N   UNL     1      -2.133   4.158  26.160  0.00  0.00    -0.303 NA
ATOM     23  H   UNL     1      -2.062   5.031  26.685  0.00  0.00    +0.123 HD
BRANCH   4  13
ATOM     13  C   UNL     1      -3.162   4.304  25.138  0.00  0.00    +0.137 C 
BRANCH  13  14
ATOM      7  N   UNL     1      -5.239   3.384  26.009  0.00  0.00    -0.259 NA
ATOM     14  C   UNL     1      -4.173   3.192  25.198  0.00  0.00    +0.055 A 
ATOM     17  C   UNL     1      -3.973   2.050  24.439  0.00  0.00    +0.024 A 
ATOM     20  C   UNL     1      -4.928   1.042  24.516  0.00  0.00    +0.003 A 
ATOM     21  C   UNL     1      -6.145   2.383  26.058  0.00  0.00    +0.111 A 
ATOM     22  C   UNL     1      -6.038   1.204  25.339  0.00  0.00    +0.020 A 
ENDBRANCH  13  14
ENDBRANCH   4  13
ENDBRANCH   8   4
BRANCH  10  12
ATOM     12  C   UNL     1       0.732   0.927  23.917  0.00  0.00    +0.140 C 
BRANCH  12   5
ATOM      3  O   UNL     1      -0.403  -1.253  25.429  0.00  0.00    -0.253 OA
ATOM      5  N   UNL     1      -0.549   0.310  23.717  0.00  0.00    -0.297 N 
ATOM      6  N   UNL     1      -2.294  -1.152  24.088  0.00  0.00    -0.297 N 
ATOM     15  C   UNL     1      -1.027  -0.746  24.497  0.00  0.00    +0.300 C 
ATOM     25  H   UNL     1      -1.132   0.652  22.959  0.00  0.00    +0.150 HD
ATOM     26  H   UNL     1      -2.758  -0.623  23.357  0.00  0.00    +0.150 HD
BRANCH   6  16
ATOM     16  C   UNL     1      -3.015  -2.227  24.728  0.00  0.00    +0.068 C 
ATOM     18  C   UNL     1      -3.443  -1.823  26.133  0.00  0.00    +0.027 C 
ATOM     19  C   UNL     1      -4.215  -2.636  23.882  0.00  0.00    +0.027 C 
ENDBRANCH   6  16
ENDBRANCH  12   5
ENDBRANCH  10  12
TORSDOF 7
ENDMDL
MODEL 2
REMARK VINA RESULT:      -5.5      2.021      4.421
REMARK  Name = 75536728
REMARK  9 active torsions:
REMARK  status: ('A' for Active; 'I' for Inactive)
REMARK    1  A    between atoms: O_2  and  C_9
REMARK    2  A    between atoms: N_4  and  C_8
REMARK    3  A    between atoms: N_4  and  C_13
REMARK    4  A    between atoms: N_5  and  C_12
REMARK    5  A    between atoms: N_6  and  C_16
REMARK    6  A    between atoms: C_10  and  C_12
REMARK    7  A    between atoms: C_13  and  C_14
REMARK    8  A    between atoms: C_16  and  C_18
REMARK    9  A    between atoms: C_16  and  C_19
REMARK                            x       y       z     vdW  Elec       q    Type
REMARK                         _______ _______ _______ _____ _____    ______ ____
ROOT
ATOM      1  O   UNL     1      -1.880   2.737  23.332  0.00  0.00    -0.371 OA
ATOM      8  C   UNL     1      -4.133   2.667  24.078  0.00  0.00    +0.111 C 
ATOM      9  C   UNL     1      -3.230   2.967  25.260  0.00  0.00    +0.164 C 
ATOM     10  C   UNL     1      -1.986   3.487  24.553  0.00  0.00    +0.165 C 
ATOM     11  C   UNL     1      -3.142   2.095  23.079  0.00  0.00    +0.181 C 
ENDROOT
BRANCH   9   2
ATOM      2  O   UNL     1      -3.780   3.930  26.137  0.00  0.00    -0.388 OA
ATOM     24  H   UNL     1      -3.072   4.253  26.720  0.00  0.00    +0.210 HD
ENDBRANCH   9   2
BRANCH   8   4
ATOM      4  N   UNL     1      -5.217   1.750  24.390  0.00  0.00    -0.303 NA
ATOM     23  H   UNL     1      -5.392   1.153  23.580  0.00  0.00    +0.123 HD
BRANCH   4  13
ATOM     13  C   UNL     1      -4.883   0.909  25.532  0.00  0.00    +0.137 C 
BRANCH  13  14
ATOM      7  N   UNL     1      -2.950  -0.554  25.734  0.00  0.00    -0.259 NA
ATOM     14  C   UNL     1      -4.132  -0.328  25.118  0.00  0.00    +0.055 A 
ATOM     17  C   UNL     1      -4.673  -1.158  24.149  0.00  0.00    +0.024 A 
ATOM     20  C   UNL     1      -3.954  -2.293  23.790  0.00  0.00    +0.003 A 
ATOM     21  C   UNL     1      -2.280  -1.666  25.359  0.00  0.00    +0.111 A 
ATOM     22  C   UNL     1      -2.734  -2.559  24.402  0.00  0.00    +0.020 A 
ENDBRANCH  13  14
ENDBRANCH   4  13
ENDBRANCH   8   4
BRANCH  10  12
ATOM     12  C   UNL     1      -0.717   3.319  25.370  0.00  0.00    +0.140 C 
BRANCH  12   5
ATOM      3  O   UNL     1       0.121   0.639  24.706  0.00  0.00    -0.253 OA
ATOM      5  N   UNL     1       0.391   2.940  24.541  0.00  0.00    -0.297 N 
ATOM      6  N   UNL     1       1.848   1.531  23.438  0.00  0.00    -0.297 N 
ATOM     15  C   UNL     1       0.733   1.613  24.267  0.00  0.00    +0.300 C 
ATOM     25  H   UNL     1       0.967   3.677  24.145  0.00  0.00    +0.150 HD
ATOM     26  H   UNL     1       2.238   2.392  23.067  0.00  0.00    +0.150 HD
BRANCH   6  16
ATOM     16  C   UNL     1       2.408   0.274  23.002  0.00  0.00    +0.068 C 
ATOM     18  C   UNL     1       1.615  -0.287  21.829  0.00  0.00    +0.027 C 
ATOM     19  C   UNL     1       3.879   0.446  22.643  0.00  0.00    +0.027 C 
ENDBRANCH   6  16
ENDBRANCH  12   5
ENDBRANCH  10  12
TORSDOF 7
ENDMDL
MODEL 3
REMARK VINA RESULT:      -5.1      1.592      4.596
REMARK  Name = 75536728
REMARK  9 active torsions:
REMARK  status: ('A' for Active; 'I' for Inactive)
REMARK    1  A    between atoms: O_2  and  C_9
REMARK    2  A    between atoms: N_4  and  C_8
REMARK    3  A    between atoms: N_4  and  C_13
REMARK    4  A    between atoms: N_5  and  C_12
REMARK    5  A    between atoms: N_6  and  C_16
REMARK    6  A    between atoms: C_10  and  C_12
REMARK    7  A    between atoms: C_13  and  C_14
REMARK    8  A    between atoms: C_16  and  C_18
REMARK    9  A    between atoms: C_16  and  C_19
REMARK                            x       y       z     vdW  Elec       q    Type
REMARK                         _______ _______ _______ _____ _____    ______ ____
ROOT
ATOM      1  O   UNL     1       0.139   3.751  25.879  0.00  0.00    -0.371 OA
ATOM      8  C   UNL     1       0.030   1.681  24.721  0.00  0.00    +0.111 C 
ATOM      9  C   UNL     1      -1.234   2.471  24.441  0.00  0.00    +0.164 C 
ATOM     10  C   UNL     1      -0.777   3.884  24.780  0.00  0.00    +0.165 C 
ATOM     11  C   UNL     1       0.549   2.375  25.968  0.00  0.00    +0.181 C 
ENDROOT
BRANCH   9   2
ATOM      2  O   UNL     1      -1.659   2.363  23.096  0.00  0.00    -0.388 OA
ATOM     24  H   UNL     1      -2.567   2.016  23.089  0.00  0.00    +0.210 HD
ENDBRANCH   9   2
BRANCH   8   4
ATOM      4  N   UNL     1      -0.203   0.259  24.920  0.00  0.00    -0.303 NA
ATOM     23  H   UNL     1       0.613  -0.152  25.374  0.00  0.00    +0.123 HD
BRANCH   4  13
ATOM     13  C   UNL     1      -1.374   0.029  25.757  0.00  0.00    +0.137 C 
BRANCH  13  14
ATOM      7  N   UNL     1      -1.986  -2.188  24.965  0.00  0.00    -0.259 NA
ATOM     14  C   UNL     1      -2.362  -0.896  25.098  0.00  0.00    +0.055 A 
ATOM     17  C   UNL     1      -3.580  -0.395  24.670  0.00  0.00    +0.024 A 
ATOM     20  C   UNL     1      -4.470  -1.276  24.067  0.00  0.00    +0.003 A 
ATOM     21  C   UNL     1      -2.877  -3.015  24.374  0.00  0.00    +0.111 A 
ATOM     22  C   UNL     1      -4.119  -2.613  23.912  0.00  0.00    +0.020 A 
ENDBRANCH  13  14
ENDBRANCH   4  13
ENDBRANCH   8   4
BRANCH  10  12
ATOM     12  C   UNL     1      -1.918   4.806  25.173  0.00  0.00    +0.140 C 
BRANCH  12   5
ATOM      3  O   UNL     1      -4.445   3.827  24.181  0.00  0.00    -0.253 OA
ATOM      5  N   UNL     1      -2.925   4.103  25.915  0.00  0.00    -0.297 N 
ATOM      6  N   UNL     1      -4.920   3.009  26.300  0.00  0.00    -0.297 N 
ATOM     15  C   UNL     1      -4.128   3.660  25.358  0.00  0.00    +0.300 C 
ATOM     25  H   UNL     1      -2.759   3.930  26.902  0.00  0.00    +0.150 HD
ATOM     26  H   UNL     1      -4.538   2.855  27.227  0.00  0.00    +0.150 HD
BRANCH   6  16
ATOM     16  C   UNL     1      -6.215   2.455  25.983  0.00  0.00    +0.068 C 
ATOM     18  C   UNL     1      -6.193   1.794  24.611  0.00  0.00    +0.027 C 
ATOM     19  C   UNL     1      -6.648   1.471  27.063  0.00  0.00    +0.027 C 
ENDBRANCH   6  16
ENDBRANCH  12   5
ENDBRANCH  10  12
TORSDOF 7
ENDMDL
MODEL 4
REMARK VINA RESULT:      -4.9      1.725      3.897
REMARK  Name = 75536728
REMARK  9 active torsions:
REMARK  status: ('A' for Active; 'I' for Inactive)
REMARK    1  A    between atoms: O_2  and  C_9
REMARK    2  A    between atoms: N_4  and  C_8
REMARK    3  A    between atoms: N_4  and  C_13
REMARK    4  A    between atoms: N_5  and  C_12
REMARK    5  A    between atoms: N_6  and  C_16
REMARK    6  A    between atoms: C_10  and  C_12
REMARK    7  A    between atoms: C_13  and  C_14
REMARK    8  A    between atoms: C_16  and  C_18
REMARK    9  A    between atoms: C_16  and  C_19
REMARK                            x       y       z     vdW  Elec       q    Type
REMARK                         _______ _______ _______ _____ _____    ______ ____
ROOT
ATOM      1  O   UNL     1      -3.063   4.522  23.868  0.00  0.00    -0.371 OA
ATOM      8  C   UNL     1      -4.482   3.435  25.431  0.00  0.00    +0.111 C 
ATOM      9  C   UNL     1      -3.074   3.484  25.993  0.00  0.00    +0.164 C 
ATOM     10  C   UNL     1      -2.471   4.618  25.174  0.00  0.00    +0.165 C 
ATOM     11  C   UNL     1      -4.227   3.680  23.954  0.00  0.00    +0.181 C 
ENDROOT
BRANCH   9   2
ATOM      2  O   UNL     1      -3.048   3.763  27.379  0.00  0.00    -0.388 OA
ATOM     24  H   UNL     1      -3.807   4.333  27.591  0.00  0.00    +0.210 HD
ENDBRANCH   9   2
BRANCH   8   4
ATOM      4  N   UNL     1      -5.169   2.179  25.686  0.00  0.00    -0.303 NA
ATOM     23  H   UNL     1      -6.130   2.376  25.970  0.00  0.00    +0.123 HD
BRANCH   4  13
ATOM     13  C   UNL     1      -5.191   1.339  24.495  0.00  0.00    +0.137 C 
BRANCH  13  14
ATOM      7  N   UNL     1      -4.604  -0.894  23.730  0.00  0.00    -0.259 NA
ATOM     14  C   UNL     1      -4.533   0.007  24.735  0.00  0.00    +0.055 A 
ATOM     17  C   UNL     1      -3.901  -0.229  25.945  0.00  0.00    +0.024 A 
ATOM     20  C   UNL     1      -3.301  -1.469  26.134  0.00  0.00    +0.003 A 
ATOM     21  C   UNL     1      -4.011  -2.088  23.950  0.00  0.00    +0.111 A 
ATOM     22  C   UNL     1      -3.353  -2.422  25.123  0.00  0.00    +0.020 A 
ENDBRANCH  13  14
ENDBRANCH   4  13
ENDBRANCH   8   4
BRANCH  10  12
ATOM     12  C   UNL     1      -0.959   4.537  25.059  0.00  0.00    +0.140 C 
BRANCH  12   5
ATOM      3  O   UNL     1      -1.141   2.347  23.189  0.00  0.00    -0.253 OA
ATOM      5  N   UNL     1      -0.492   3.194  25.252  0.00  0.00    -0.297 N 
ATOM      6  N   UNL     1      -0.083   0.982  24.740  0.00  0.00    -0.297 N 
ATOM     15  C   UNL     1      -0.619   2.186  24.293  0.00  0.00    +0.300 C 
ATOM     25  H   UNL     1      -0.059   2.961  26.141  0.00  0.00    +0.150 HD
ATOM     26  H   UNL     1       0.394   0.969  25.636  0.00  0.00    +0.150 HD
BRANCH   6  16
ATOM     16  C   UNL     1      -0.085  -0.220  23.940  0.00  0.00    +0.068 C 
ATOM     18  C   UNL     1       1.104  -0.231  22.987  0.00  0.00    +0.027 C 
ATOM     19  C   UNL     1      -0.085  -1.452  24.836  0.00  0.00    +0.027 C 
ENDBRANCH   6  16
ENDBRANCH  12   5
ENDBRANCH  10  12
TORSDOF 7
ENDMDL
MODEL 5
REMARK VINA RESULT:      -4.9      2.097      4.800
REMARK  Name = 75536728
REMARK  9 active torsions:
REMARK  status: ('A' for Active; 'I' for Inactive)
REMARK    1  A    between atoms: O_2  and  C_9
REMARK    2  A    between atoms: N_4  and  C_8
REMARK    3  A    between atoms: N_4  and  C_13
REMARK    4  A    between atoms: N_5  and  C_12
REMARK    5  A    between atoms: N_6  and  C_16
REMARK    6  A    between atoms: C_10  and  C_12
REMARK    7  A    between atoms: C_13  and  C_14
REMARK    8  A    between atoms: C_16  and  C_18
REMARK    9  A    between atoms: C_16  and  C_19
REMARK                            x       y       z     vdW  Elec       q    Type
REMARK                         _______ _______ _______ _____ _____    ______ ____
ROOT
ATOM      1  O   UNL     1      -4.129   3.803  25.867  0.00  0.00    -0.371 OA
ATOM      8  C   UNL     1      -2.033   3.769  24.751  0.00  0.00    +0.111 C 
ATOM      9  C   UNL     1      -2.897   2.644  24.214  0.00  0.00    +0.164 C 
ATOM     10  C   UNL     1      -4.287   3.129  24.608  0.00  0.00    +0.165 C 
ATOM     11  C   UNL     1      -2.731   4.087  26.062  0.00  0.00    +0.181 C 
ENDROOT
BRANCH   9   2
ATOM      2  O   UNL     1      -2.773   2.480  22.815  0.00  0.00    -0.388 OA
ATOM     24  H   UNL     1      -2.081   3.085  22.496  0.00  0.00    +0.210 HD
ENDBRANCH   9   2
BRANCH   8   4
ATOM      4  N   UNL     1      -0.637   3.399  24.928  0.00  0.00    -0.303 NA
ATOM     23  H   UNL     1      -0.244   3.940  25.699  0.00  0.00    +0.123 HD
BRANCH   4  13
ATOM     13  C   UNL     1      -0.504   1.979  25.233  0.00  0.00    +0.137 C 
BRANCH  13  14
ATOM      7  N   UNL     1       1.617   1.768  24.060  0.00  0.00    -0.259 NA
ATOM     14  C   UNL     1       0.371   1.272  24.233  0.00  0.00    +0.055 A 
ATOM     17  C   UNL     1      -0.127   0.171  23.555  0.00  0.00    +0.024 A 
ATOM     20  C   UNL     1       0.708  -0.461  22.640  0.00  0.00    +0.003 A 
ATOM     21  C   UNL     1       2.399   1.127  23.163  0.00  0.00    +0.111 A 
ATOM     22  C   UNL     1       1.996   0.021  22.434  0.00  0.00    +0.020 A 
ENDBRANCH  13  14
ENDBRANCH   4  13
ENDBRANCH   8   4
BRANCH  10  12
ATOM     12  C   UNL     1      -5.296   2.003  24.753  0.00  0.00    +0.140 C 
BRANCH  12   5
ATOM      3  O   UNL     1      -4.152  -0.361  23.558  0.00  0.00    -0.253 OA
ATOM      5  N   UNL     1      -4.728   0.877  25.437  0.00  0.00    -0.297 N 
ATOM      6  N   UNL     1      -3.709  -1.179  25.684  0.00  0.00    -0.297 N 
ATOM     15  C   UNL     1      -4.192  -0.234  24.781  0.00  0.00    +0.300 C 
ATOM     25  H   UNL     1      -4.728   0.883  26.452  0.00  0.00    +0.150 HD
ATOM     26  H   UNL     1      -3.719  -0.950  26.673  0.00  0.00    +0.150 HD
BRANCH   6  16
ATOM     16  C   UNL     1      -3.104  -2.421  25.267  0.00  0.00    +0.068 C 
ATOM     18  C   UNL     1      -3.862  -3.017  24.088  0.00  0.00    +0.027 C 
ATOM     19  C   UNL     1      -1.635  -2.207  24.928  0.00  0.00    +0.027 C 
ENDBRANCH   6  16
ENDBRANCH  12   5
ENDBRANCH  10  12
TORSDOF 7
ENDMDL
MODEL 6
REMARK VINA RESULT:      -4.9      1.904      4.630
REMARK  Name = 75536728
REMARK  9 active torsions:
REMARK  status: ('A' for Active; 'I' for Inactive)
REMARK    1  A    between atoms: O_2  and  C_9
REMARK    2  A    between atoms: N_4  and  C_8
REMARK    3  A    between atoms: N_4  and  C_13
REMARK    4  A    between atoms: N_5  and  C_12
REMARK    5  A    between atoms: N_6  and  C_16
REMARK    6  A    between atoms: C_10  and  C_12
REMARK    7  A    between atoms: C_13  and  C_14
REMARK    8  A    between atoms: C_16  and  C_18
REMARK    9  A    between atoms: C_16  and  C_19
REMARK                            x       y       z     vdW  Elec       q    Type
REMARK                         _______ _______ _______ _____ _____    ______ ____
ROOT
ATOM      1  O   UNL     1      -1.602  -2.353  23.745  0.00  0.00    -0.371 OA
ATOM      8  C   UNL     1      -0.050  -0.764  24.584  0.00  0.00    +0.111 C 
ATOM      9  C   UNL     1      -1.269  -0.788  25.486  0.00  0.00    +0.164 C 
ATOM     10  C   UNL     1      -1.860  -2.149  25.144  0.00  0.00    +0.165 C 
ATOM     11  C   UNL     1      -0.593  -1.417  23.325  0.00  0.00    +0.181 C 
ENDROOT
BRANCH   9   2
ATOM      2  O   UNL     1      -0.936  -0.687  26.857  0.00  0.00    -0.388 OA
ATOM     24  H   UNL     1      -0.134  -1.214  27.017  0.00  0.00    +0.210 HD
ENDBRANCH   9   2
BRANCH   8   4
ATOM      4  N   UNL     1       0.476   0.571  24.347  0.00  0.00    -0.303 NA
ATOM     23  H   UNL     1       1.343   0.499  23.815  0.00  0.00    +0.123 HD
BRANCH   4  13
ATOM     13  C   UNL     1      -0.473   1.385  23.596  0.00  0.00    +0.137 C 
BRANCH  13  14
ATOM      7  N   UNL     1      -1.650   2.349  25.494  0.00  0.00    -0.259 NA
ATOM     14  C   UNL     1      -0.923   2.588  24.380  0.00  0.00    +0.055 A 
ATOM     17  C   UNL     1      -0.579   3.855  23.935  0.00  0.00    +0.024 A 
ATOM     20  C   UNL     1      -1.009   4.945  24.683  0.00  0.00    +0.003 A 
ATOM     21  C   UNL     1      -2.050   3.433  26.195  0.00  0.00    +0.111 A 
ATOM     22  C   UNL     1      -1.760   4.739  25.836  0.00  0.00    +0.020 A 
ENDBRANCH  13  14
ENDBRANCH   4  13
ENDBRANCH   8   4
BRANCH  10  12
ATOM     12  C   UNL     1      -3.353  -2.239  25.408  0.00  0.00    +0.140 C 
BRANCH  12   5
ATOM      3  O   UNL     1      -4.225  -0.183  23.581  0.00  0.00    -0.253 OA
ATOM      5  N   UNL     1      -3.901  -0.956  25.747  0.00  0.00    -0.297 N 
ATOM      6  N   UNL     1      -4.794   1.142  25.399  0.00  0.00    -0.297 N 
ATOM     15  C   UNL     1      -4.301  -0.012  24.797  0.00  0.00    +0.300 C 
ATOM     25  H   UNL     1      -3.988  -0.717  26.730  0.00  0.00    +0.150 HD
ATOM     26  H   UNL     1      -4.887   1.158  26.409  0.00  0.00    +0.150 HD
BRANCH   6  16
ATOM     16  C   UNL     1      -5.275   2.274  24.642  0.00  0.00    +0.068 C 
ATOM     18  C   UNL     1      -5.623   3.429  25.572  0.00  0.00    +0.027 C 
ATOM     19  C   UNL     1      -4.243   2.693  23.603  0.00  0.00    +0.027 C 
ENDBRANCH   6  16
ENDBRANCH  12   5
ENDBRANCH  10  12
TORSDOF 7
ENDMDL
MODEL 7
REMARK VINA RESULT:      -4.0      1.525      4.836
REMARK  Name = 75536728
REMARK  9 active torsions:
REMARK  status: ('A' for Active; 'I' for Inactive)
REMARK    1  A    between atoms: O_2  and  C_9
REMARK    2  A    between atoms: N_4  and  C_8
REMARK    3  A    between atoms: N_4  and  C_13
REMARK    4  A    between atoms: N_5  and  C_12
REMARK    5  A    between atoms: N_6  and  C_16
REMARK    6  A    between atoms: C_10  and  C_12
REMARK    7  A    between atoms: C_13  and  C_14
REMARK    8  A    between atoms: C_16  and  C_18
REMARK    9  A    between atoms: C_16  and  C_19
REMARK                            x       y       z     vdW  Elec       q    Type
REMARK                         _______ _______ _______ _____ _____    ______ ____
ROOT
ATOM      1  O   UNL     1      -0.880  -0.457  26.079  0.00  0.00    -0.371 OA
ATOM      8  C   UNL     1      -2.479  -2.091  25.437  0.00  0.00    +0.111 C 
ATOM      9  C   UNL     1      -1.615  -1.748  24.239  0.00  0.00    +0.164 C 
ATOM     10  C   UNL     1      -0.390  -1.153  24.922  0.00  0.00    +0.165 C 
ATOM     11  C   UNL     1      -2.223  -0.900  26.345  0.00  0.00    +0.181 C 
ENDROOT
BRANCH   9   2
ATOM      2  O   UNL     1      -1.286  -2.882  23.460  0.00  0.00    -0.388 OA
ATOM     24  H   UNL     1      -0.710  -2.595  22.730  0.00  0.00    +0.210 HD
ENDBRANCH   9   2
BRANCH   8   4
ATOM      4  N   UNL     1      -3.886  -2.263  25.112  0.00  0.00    -0.303 NA
ATOM     23  H   UNL     1      -4.452  -1.922  25.890  0.00  0.00    +0.123 HD
BRANCH   4  13
ATOM     13  C   UNL     1      -4.243  -1.522  23.908  0.00  0.00    +0.137 C 
BRANCH  13  14
ATOM      7  N   UNL     1      -3.626   0.786  23.449  0.00  0.00    -0.259 NA
ATOM     14  C   UNL     1      -4.396  -0.050  24.181  0.00  0.00    +0.055 A 
ATOM     17  C   UNL     1      -5.298   0.371  25.145  0.00  0.00    +0.024 A 
ATOM     20  C   UNL     1      -5.417   1.738  25.372  0.00  0.00    +0.003 A 
ATOM     21  C   UNL     1      -3.769   2.107  23.697  0.00  0.00    +0.111 A 
ATOM     22  C   UNL     1      -4.641   2.629  24.638  0.00  0.00    +0.020 A 
ENDBRANCH  13  14
ENDBRANCH   4  13
ENDBRANCH   8   4
BRANCH  10  12
ATOM     12  C   UNL     1       0.384  -0.194  24.036  0.00  0.00    +0.140 C 
BRANCH  12   5
ATOM      3  O   UNL     1       0.588   2.094  25.783  0.00  0.00    -0.253 OA
ATOM      5  N   UNL     1      -0.300   1.060  23.902  0.00  0.00    -0.297 N 
ATOM      6  N   UNL     1      -0.925   3.218  24.430  0.00  0.00    -0.297 N 
ATOM     15  C   UNL     1      -0.146   2.124  24.795  0.00  0.00    +0.300 C 
ATOM     25  H   UNL     1      -0.941   1.175  23.123  0.00  0.00    +0.150 HD
ATOM     26  H   UNL     1      -1.440   3.173  23.556  0.00  0.00    +0.150 HD
BRANCH   6  16
ATOM     16  C   UNL     1      -0.950   4.448  25.185  0.00  0.00    +0.068 C 
ATOM     18  C   UNL     1      -0.690   5.641  24.274  0.00  0.00    +0.027 C 
ATOM     19  C   UNL     1      -2.277   4.592  25.918  0.00  0.00    +0.027 C 
ENDBRANCH   6  16
ENDBRANCH  12   5
ENDBRANCH  10  12
TORSDOF 7
ENDMDL
MODEL 8
REMARK VINA RESULT:      -3.6      2.121      5.432
REMARK  Name = 75536728
REMARK  9 active torsions:
REMARK  status: ('A' for Active; 'I' for Inactive)
REMARK    1  A    between atoms: O_2  and  C_9
REMARK    2  A    between atoms: N_4  and  C_8
REMARK    3  A    between atoms: N_4  and  C_13
REMARK    4  A    between atoms: N_5  and  C_12
REMARK    5  A    between atoms: N_6  and  C_16
REMARK    6  A    between atoms: C_10  and  C_12
REMARK    7  A    between atoms: C_13  and  C_14
REMARK    8  A    between atoms: C_16  and  C_18
REMARK    9  A    between atoms: C_16  and  C_19
REMARK                            x       y       z     vdW  Elec       q    Type
REMARK                         _______ _______ _______ _____ _____    ______ ____
ROOT
ATOM      1  O   UNL     1      -2.758  -2.916  23.845  0.00  0.00    -0.371 OA
ATOM      8  C   UNL     1      -1.070  -1.920  25.186  0.00  0.00    +0.111 C 
ATOM      9  C   UNL     1      -2.320  -1.062  25.246  0.00  0.00    +0.164 C 
ATOM     10  C   UNL     1      -3.384  -2.064  24.818  0.00  0.00    +0.165 C 
ATOM     11  C   UNL     1      -1.332  -2.748  23.940  0.00  0.00    +0.181 C 
ENDROOT
BRANCH   9   2
ATOM      2  O   UNL     1      -2.569  -0.549  26.540  0.00  0.00    -0.388 OA
ATOM     24  H   UNL     1      -1.803  -0.013  26.809  0.00  0.00    +0.210 HD
ENDBRANCH   9   2
BRANCH   8   4
ATOM      4  N   UNL     1       0.162  -1.152  25.108  0.00  0.00    -0.303 NA
ATOM     23  H   UNL     1       0.948  -1.793  24.995  0.00  0.00    +0.123 HD
BRANCH   4  13
ATOM     13  C   UNL     1       0.137  -0.232  23.978  0.00  0.00    +0.137 C 
BRANCH  13  14
ATOM      7  N   UNL     1      -0.799   1.958  23.482  0.00  0.00    -0.259 NA
ATOM     14  C   UNL     1      -0.200   1.172  24.405  0.00  0.00    +0.055 A 
ATOM     17  C   UNL     1       0.110   1.583  25.691  0.00  0.00    +0.024 A 
ATOM     20  C   UNL     1      -0.216   2.885  26.054  0.00  0.00    +0.003 A 
ATOM     21  C   UNL     1      -1.102   3.217  23.872  0.00  0.00    +0.111 A 
ATOM     22  C   UNL     1      -0.834   3.724  25.132  0.00  0.00    +0.020 A 
ENDBRANCH  13  14
ENDBRANCH   4  13
ENDBRANCH   8   4
BRANCH  10  12
ATOM     12  C   UNL     1      -4.614  -1.411  24.212  0.00  0.00    +0.140 C 
BRANCH  12   5
ATOM      3  O   UNL     1      -5.377   0.865  25.812  0.00  0.00    -0.253 OA
ATOM      5  N   UNL     1      -4.377  -0.027  23.915  0.00  0.00    -0.297 N 
ATOM      6  N   UNL     1      -4.425   2.259  24.220  0.00  0.00    -0.297 N 
ATOM     15  C   UNL     1      -4.781   1.021  24.747  0.00  0.00    +0.300 C 
ATOM     25  H   UNL     1      -3.904   0.202  23.047  0.00  0.00    +0.150 HD
ATOM     26  H   UNL     1      -3.869   2.281  23.372  0.00  0.00    +0.150 HD
BRANCH   6  16
ATOM     16  C   UNL     1      -4.725   3.506  24.883  0.00  0.00    +0.068 C 
ATOM     18  C   UNL     1      -4.041   3.568  26.242  0.00  0.00    +0.027 C 
ATOM     19  C   UNL     1      -4.317   4.683  24.005  0.00  0.00    +0.027 C 
ENDBRANCH   6  16
ENDBRANCH  12   5
ENDBRANCH  10  12
TORSDOF 7
ENDMDL
MODEL 9
REMARK VINA RESULT:      -3.4     15.244     17.970
REMARK  Name = 75536728
REMARK  9 active torsions:
REMARK  status: ('A' for Active; 'I' for Inactive)
REMARK    1  A    between atoms: O_2  and  C_9
REMARK    2  A    between atoms: N_4  and  C_8
REMARK    3  A    between atoms: N_4  and  C_13
REMARK    4  A    between atoms: N_5  and  C_12
REMARK    5  A    between atoms: N_6  and  C_16
REMARK    6  A    between atoms: C_10  and  C_12
REMARK    7  A    between atoms: C_13  and  C_14
REMARK    8  A    between atoms: C_16  and  C_18
REMARK    9  A    between atoms: C_16  and  C_19
REMARK                            x       y       z     vdW  Elec       q    Type
REMARK                         _______ _______ _______ _____ _____    ______ ____
ROOT
ATOM      1  O   UNL     1      -3.397  -8.950  10.639  0.00  0.00    -0.371 OA
ATOM      8  C   UNL     1      -5.543  -8.740   9.644  0.00  0.00    +0.111 C 
ATOM      9  C   UNL     1      -5.561  -9.904  10.616  0.00  0.00    +0.164 C 
ATOM     10  C   UNL     1      -4.368  -9.565  11.501  0.00  0.00    +0.165 C 
ATOM     11  C   UNL     1      -4.052  -8.557   9.419  0.00  0.00    +0.181 C 
ENDROOT
BRANCH   9   2
ATOM      2  O   UNL     1      -6.763  -9.979  11.357  0.00  0.00    -0.388 OA
ATOM     24  H   UNL     1      -6.635  -9.505  12.197  0.00  0.00    +0.210 HD
ENDBRANCH   9   2
BRANCH   8   4
ATOM      4  N   UNL     1      -6.274  -8.996   8.413  0.00  0.00    -0.303 NA
ATOM     23  H   UNL     1      -5.920  -9.854   7.987  0.00  0.00    +0.123 HD
BRANCH   4  13
ATOM     13  C   UNL     1      -7.700  -9.152   8.671  0.00  0.00    +0.137 C 
BRANCH  13  14
ATOM      7  N   UNL     1      -7.700  -6.753   8.265  0.00  0.00    -0.259 NA
ATOM     14  C   UNL     1      -8.422  -7.831   8.645  0.00  0.00    +0.055 A 
ATOM     17  C   UNL     1      -9.760  -7.782   9.001  0.00  0.00    +0.024 A 
ATOM     20  C   UNL     1     -10.398  -6.547   8.965  0.00  0.00    +0.003 A 
ATOM     21  C   UNL     1      -8.353  -5.570   8.241  0.00  0.00    +0.111 A 
ATOM     22  C   UNL     1      -9.687  -5.415   8.579  0.00  0.00    +0.020 A 
ENDBRANCH  13  14
ENDBRANCH   4  13
ENDBRANCH   8   4
BRANCH  10  12
ATOM     12  C   UNL     1      -3.757 -10.780  12.176  0.00  0.00    +0.140 C 
BRANCH  12   5
ATOM      3  O   UNL     1      -6.094 -10.780  13.869  0.00  0.00    -0.253 OA
ATOM      5  N   UNL     1      -3.790 -10.654  13.605  0.00  0.00    -0.297 N 
ATOM      6  N   UNL     1      -4.712 -10.525  15.716  0.00  0.00    -0.297 N 
ATOM     15  C   UNL     1      -4.969 -10.663  14.355  0.00  0.00    +0.300 C 
ATOM     25  H   UNL     1      -2.908 -10.538  14.096  0.00  0.00    +0.150 HD
ATOM     26  H   UNL     1      -3.746 -10.511  16.026  0.00  0.00    +0.150 HD
BRANCH   6  16
ATOM     16  C   UNL     1      -5.758 -10.503  16.711  0.00  0.00    +0.068 C 
ATOM     18  C   UNL     1      -5.162 -10.499  18.113  0.00  0.00    +0.027 C 
ATOM     19  C   UNL     1      -6.669  -9.302  16.495  0.00  0.00    +0.027 C 
ENDBRANCH   6  16
ENDBRANCH  12   5
ENDBRANCH  10  12
TORSDOF 7
ENDMDL
MODEL 10
REMARK VINA RESULT:      -3.3      2.664      4.937
REMARK  Name = 75536728
REMARK  9 active torsions:
REMARK  status: ('A' for Active; 'I' for Inactive)
REMARK    1  A    between atoms: O_2  and  C_9
REMARK    2  A    between atoms: N_4  and  C_8
REMARK    3  A    between atoms: N_4  and  C_13
REMARK    4  A    between atoms: N_5  and  C_12
REMARK    5  A    between atoms: N_6  and  C_16
REMARK    6  A    between atoms: C_10  and  C_12
REMARK    7  A    between atoms: C_13  and  C_14
REMARK    8  A    between atoms: C_16  and  C_18
REMARK    9  A    between atoms: C_16  and  C_19
REMARK                            x       y       z     vdW  Elec       q    Type
REMARK                         _______ _______ _______ _____ _____    ______ ____
ROOT
ATOM      1  O   UNL     1      -0.290   0.633  25.124  0.00  0.00    -0.371 OA
ATOM      8  C   UNL     1      -2.071  -0.859  25.619  0.00  0.00    +0.111 C 
ATOM      9  C   UNL     1      -1.576  -1.130  24.211  0.00  0.00    +0.164 C 
ATOM     10  C   UNL     1      -0.183  -0.516  24.266  0.00  0.00    +0.165 C 
ATOM     11  C   UNL     1      -1.516   0.533  25.871  0.00  0.00    +0.181 C 
ENDROOT
BRANCH   9   2
ATOM      2  O   UNL     1      -1.531  -2.510  23.904  0.00  0.00    -0.388 OA
ATOM     24  H   UNL     1      -2.441  -2.855  23.915  0.00  0.00    +0.210 HD
ENDBRANCH   9   2
BRANCH   8   4
ATOM      4  N   UNL     1      -3.517  -0.924  25.752  0.00  0.00    -0.303 NA
ATOM     23  H   UNL     1      -3.800  -0.399  26.580  0.00  0.00    +0.123 HD
BRANCH   4  13
ATOM     13  C   UNL     1      -4.179  -0.357  24.584  0.00  0.00    +0.137 C 
BRANCH  13  14
ATOM      7  N   UNL     1      -5.368   1.473  25.658  0.00  0.00    -0.259 NA
ATOM     14  C   UNL     1      -4.436   1.117  24.745  0.00  0.00    +0.055 A 
ATOM     17  C   UNL     1      -3.724   2.019  23.971  0.00  0.00    +0.024 A 
ATOM     20  C   UNL     1      -3.984   3.373  24.146  0.00  0.00    +0.003 A 
ATOM     21  C   UNL     1      -5.594   2.798  25.800  0.00  0.00    +0.111 A 
ATOM     22  C   UNL     1      -4.936   3.779  25.077  0.00  0.00    +0.020 A 
ENDBRANCH  13  14
ENDBRANCH   4  13
ENDBRANCH   8   4
BRANCH  10  12
ATOM     12  C   UNL     1       0.341  -0.092  22.905  0.00  0.00    +0.140 C 
BRANCH  12   5
ATOM      3  O   UNL     1       2.896  -1.408  23.163  0.00  0.00    -0.253 OA
ATOM      5  N   UNL     1       1.628   0.532  23.013  0.00  0.00    -0.297 N 
ATOM      6  N   UNL     1       3.922   0.672  23.222  0.00  0.00    -0.297 N 
ATOM     15  C   UNL     1       2.824  -0.180  23.136  0.00  0.00    +0.300 C 
ATOM     25  H   UNL     1       1.670   1.547  23.015  0.00  0.00    +0.150 HD
ATOM     26  H   UNL     1       3.768   1.670  23.114  0.00  0.00    +0.150 HD
BRANCH   6  16
ATOM     16  C   UNL     1       5.277   0.192  23.355  0.00  0.00    +0.068 C 
ATOM     18  C   UNL     1       6.112   1.167  24.175  0.00  0.00    +0.027 C 
ATOM     19  C   UNL     1       5.286  -1.200  23.974  0.00  0.00    +0.027 C 
ENDBRANCH   6  16
ENDBRANCH  12   5
ENDBRANCH  10  12
TORSDOF 7
ENDMDL
