MODEL 1
REMARK VINA RESULT:       0.5      0.000      0.000
REMARK  Name = 45361535
REMARK  14 active torsions:
REMARK  status: ('A' for Active; 'I' for Inactive)
REMARK    1  A    between atoms: O_1  and  C_11
REMARK    2  A    between atoms: O_4  and  C_24
REMARK    3  A    between atoms: O_4  and  C_27
REMARK    4  A    between atoms: O_5  and  C_26
REMARK    5  A    between atoms: O_5  and  C_30
REMARK    6  A    between atoms: N_6  and  C_15
REMARK    7  A    between atoms: N_7  and  C_25
REMARK    8  A    between atoms: C_8  and  C_18
REMARK    9  A    between atoms: C_10  and  C_20
REMARK   10  A    between atoms: C_14  and  C_19
REMARK   11  A    between atoms: C_19  and  C_21
REMARK   12  A    between atoms: C_19  and  C_22
REMARK   13  A    between atoms: C_23  and  C_24
REMARK   14  A    between atoms: C_25  and  C_26
REMARK                            x       y       z     vdW  Elec       q    Type
REMARK                         _______ _______ _______ _____ _____    ______ ____
ROOT
ATOM      8  C   UNL     1      -2.265  -0.743  25.300  0.00  0.00    -0.027 C 
ATOM      9  C   UNL     1      -2.504   0.288  24.148  0.00  0.00    +0.028 C 
ATOM     10  C   UNL     1      -1.138   0.817  23.580  0.00  0.00    +0.012 C 
ATOM     11  C   UNL     1      -3.520   1.386  24.577  0.00  0.00    +0.122 C 
ATOM     12  C   UNL     1      -3.623  -1.328  25.758  0.00  0.00    +0.007 C 
ATOM     13  C   UNL     1      -1.409  -1.913  24.760  0.00  0.00    +0.009 C 
ATOM     14  C   UNL     1      -4.836   0.795  25.131  0.00  0.00    +0.029 C 
ATOM     15  C   UNL     1      -0.254  -0.372  23.110  0.00  0.00    +0.076 C 
ATOM     16  C   UNL     1      -4.606  -0.258  26.215  0.00  0.00    +0.007 C 
ATOM     17  C   UNL     1      -0.081  -1.458  24.172  0.00  0.00    +0.023 C 
ATOM     18  C   UNL     1      -1.556  -0.114  26.525  0.00  0.00    +0.011 C 
ATOM     20  C   UNL     1      -1.298   1.817  22.423  0.00  0.00    +0.010 C 
ENDROOT
BRANCH  15   6
ATOM      3  O   UNL     1       1.030  -0.887  20.569  0.00  0.00    -0.272 OA
ATOM      6  N   UNL     1       1.058   0.070  22.688  0.00  0.00    -0.309 N 
ATOM     23  C   UNL     1       1.587  -0.231  21.444  0.00  0.00    +0.251 C 
ATOM     34  H   UNL     1       1.634   0.568  23.361  0.00  0.00    +0.149 HD
BRANCH  23  24
ATOM     24  C   UNL     1       2.971   0.357  21.270  0.00  0.00    +0.324 C 
BRANCH  24   4
ATOM      4  O   UNL     1       3.435   0.908  22.483  0.00  0.00    -0.483 OA
BRANCH   4  27
ATOM     27  C   UNL     1       4.355   0.175  23.195  0.00  0.00    +0.121 A 
ATOM     28  C   UNL     1       5.549   0.765  23.609  0.00  0.00    +0.045 A 
ATOM     29  C   UNL     1       4.093  -1.160  23.504  0.00  0.00    +0.045 A 
ATOM     31  C   UNL     1       6.482   0.021  24.332  0.00  0.00    +0.004 A 
ATOM     32  C   UNL     1       5.026  -1.905  24.226  0.00  0.00    +0.004 A 
ATOM     33  C   UNL     1       6.220  -1.314  24.640  0.00  0.00    +0.000 A 
ENDBRANCH   4  27
ENDBRANCH  24   4
ENDBRANCH  23  24
ENDBRANCH  15   6
BRANCH  11   1
ATOM      1  O   UNL     1      -3.874   2.177  23.440  0.00  0.00    -0.391 OA
ATOM     35  H   UNL     1      -4.381   2.945  23.753  0.00  0.00    +0.210 HD
ENDBRANCH  11   1
BRANCH  14  19
ATOM     19  C   UNL     1      -5.769   1.887  25.668  0.00  0.00    +0.077 C 
ATOM     21  C   UNL     1      -7.037   1.957  24.827  0.00  0.00    +0.017 C 
BRANCH  19  22
ATOM      2  O   UNL     1      -5.546   4.266  25.264  0.00  0.00    -0.276 OA
ATOM      7  N   UNL     1      -3.768   3.133  26.233  0.00  0.00    -0.313 N 
ATOM     22  C   UNL     1      -5.041   3.228  25.690  0.00  0.00    +0.216 C 
ATOM     36  H   UNL     1      -3.445   2.250  26.614  0.00  0.00    +0.149 HD
BRANCH   7  25
ATOM     25  C   UNL     1      -2.885   4.270  26.357  0.00  0.00    +0.132 C 
BRANCH  25  26
ATOM     26  C   UNL     1      -2.124   4.528  25.070  0.00  0.00    +0.178 C 
BRANCH  26   5
ATOM      5  O   UNL     1      -0.727   4.484  25.330  0.00  0.00    -0.381 OA
ATOM     30  C   UNL     1      -0.322   3.203  25.790  0.00  0.00    +0.194 C 
ENDBRANCH  26   5
ENDBRANCH  25  26
ENDBRANCH   7  25
ENDBRANCH  19  22
ENDBRANCH  14  19
TORSDOF 10
ENDMDL
MODEL 2
REMARK VINA RESULT:       3.6      1.875      3.772
REMARK  Name = 45361535
REMARK  14 active torsions:
REMARK  status: ('A' for Active; 'I' for Inactive)
REMARK    1  A    between atoms: O_1  and  C_11
REMARK    2  A    between atoms: O_4  and  C_24
REMARK    3  A    between atoms: O_4  and  C_27
REMARK    4  A    between atoms: O_5  and  C_26
REMARK    5  A    between atoms: O_5  and  C_30
REMARK    6  A    between atoms: N_6  and  C_15
REMARK    7  A    between atoms: N_7  and  C_25
REMARK    8  A    between atoms: C_8  and  C_18
REMARK    9  A    between atoms: C_10  and  C_20
REMARK   10  A    between atoms: C_14  and  C_19
REMARK   11  A    between atoms: C_19  and  C_21
REMARK   12  A    between atoms: C_19  and  C_22
REMARK   13  A    between atoms: C_23  and  C_24
REMARK   14  A    between atoms: C_25  and  C_26
REMARK                            x       y       z     vdW  Elec       q    Type
REMARK                         _______ _______ _______ _____ _____    ______ ____
ROOT
ATOM      8  C   UNL     1      -2.315   3.749  24.670  0.00  0.00    -0.027 C 
ATOM      9  C   UNL     1      -2.346   2.330  25.328  0.00  0.00    +0.028 C 
ATOM     10  C   UNL     1      -1.326   1.365  24.624  0.00  0.00    +0.012 C 
ATOM     11  C   UNL     1      -3.803   1.794  25.443  0.00  0.00    +0.122 C 
ATOM     12  C   UNL     1      -3.245   4.703  25.458  0.00  0.00    +0.007 C 
ATOM     13  C   UNL     1      -0.878   4.315  24.759  0.00  0.00    +0.009 C 
ATOM     14  C   UNL     1      -4.752   2.796  26.139  0.00  0.00    +0.029 C 
ATOM     15  C   UNL     1       0.102   1.978  24.652  0.00  0.00    +0.076 C 
ATOM     16  C   UNL     1      -4.681   4.200  25.539  0.00  0.00    +0.007 C 
ATOM     17  C   UNL     1       0.160   3.408  24.115  0.00  0.00    +0.023 C 
ATOM     18  C   UNL     1      -2.765   3.728  23.188  0.00  0.00    +0.011 C 
ATOM     20  C   UNL     1      -1.284  -0.043  25.240  0.00  0.00    +0.010 C 
ENDROOT
BRANCH  15   6
ATOM      3  O   UNL     1      -0.448   0.321  22.345  0.00  0.00    -0.272 OA
ATOM      6  N   UNL     1       1.047   1.171  23.910  0.00  0.00    -0.309 N 
ATOM     23  C   UNL     1       0.684   0.408  22.814  0.00  0.00    +0.251 C 
ATOM     34  H   UNL     1       2.002   1.119  24.252  0.00  0.00    +0.149 HD
BRANCH  23  24
ATOM     24  C   UNL     1       1.869  -0.332  22.232  0.00  0.00    +0.324 C 
BRANCH  24   4
ATOM      4  O   UNL     1       3.020   0.485  22.239  0.00  0.00    -0.483 OA
BRANCH   4  27
ATOM     27  C   UNL     1       4.087   0.060  22.995  0.00  0.00    +0.121 A 
ATOM     28  C   UNL     1       4.136  -1.256  23.454  0.00  0.00    +0.045 A 
ATOM     29  C   UNL     1       5.121   0.944  23.301  0.00  0.00    +0.045 A 
ATOM     31  C   UNL     1       5.219  -1.688  24.221  0.00  0.00    +0.004 A 
ATOM     32  C   UNL     1       6.204   0.514  24.068  0.00  0.00    +0.004 A 
ATOM     33  C   UNL     1       6.252  -0.803  24.528  0.00  0.00    +0.000 A 
ENDBRANCH   4  27
ENDBRANCH  24   4
ENDBRANCH  23  24
ENDBRANCH  15   6
BRANCH  11   1
ATOM      1  O   UNL     1      -3.812   0.605  26.235  0.00  0.00    -0.391 OA
ATOM     35  H   UNL     1      -4.601   0.626  26.802  0.00  0.00    +0.210 HD
ENDBRANCH  11   1
BRANCH  14  19
ATOM     19  C   UNL     1      -6.205   2.307  26.125  0.00  0.00    +0.077 C 
ATOM     21  C   UNL     1      -6.530   1.586  27.428  0.00  0.00    +0.017 C 
BRANCH  19  22
ATOM      2  O   UNL     1      -7.310   1.629  24.079  0.00  0.00    -0.276 OA
ATOM      7  N   UNL     1      -5.568   0.325  24.883  0.00  0.00    -0.313 N 
ATOM     22  C   UNL     1      -6.438   1.405  24.917  0.00  0.00    +0.216 C 
ATOM     36  H   UNL     1      -4.838   0.241  25.583  0.00  0.00    +0.149 HD
BRANCH   7  25
ATOM     25  C   UNL     1      -5.597  -0.669  23.836  0.00  0.00    +0.132 C 
BRANCH  25  26
ATOM     26  C   UNL     1      -4.280  -1.416  23.739  0.00  0.00    +0.178 C 
BRANCH  26   5
ATOM      5  O   UNL     1      -3.954  -1.968  25.008  0.00  0.00    -0.381 OA
ATOM     30  C   UNL     1      -3.203  -3.166  24.879  0.00  0.00    +0.194 C 
ENDBRANCH  26   5
ENDBRANCH  25  26
ENDBRANCH   7  25
ENDBRANCH  19  22
ENDBRANCH  14  19
TORSDOF 10
ENDMDL
