MODEL 1
REMARK VINA RESULT:       1.2      0.000      0.000
REMARK  Name = 40777256
REMARK  7 active torsions:
REMARK  status: ('A' for Active; 'I' for Inactive)
REMARK    1  A    between atoms: S_3  and  N_7
REMARK    2  A    between atoms: S_3  and  C_22
REMARK    3  A    between atoms: N_7  and  C_17
REMARK    4  A    between atoms: C_11  and  C_18
REMARK    5  A    between atoms: C_12  and  C_17
REMARK    6  A    between atoms: C_20  and  C_23
REMARK    7  A    between atoms: C_21  and  C_24
REMARK                            x       y       z     vdW  Elec       q    Type
REMARK                         _______ _______ _______ _____ _____    ______ ____
ROOT
ATOM      6  N   UNL     1      -1.979  -2.231  23.765  0.00  0.00    -0.297 NA
ATOM     10  C   UNL     1      -3.713  -1.889  25.677  0.00  0.00    +0.002 C 
ATOM     11  C   UNL     1      -3.942  -0.852  24.543  0.00  0.00    +0.055 C 
ATOM     12  C   UNL     1      -1.283  -2.172  25.079  0.00  0.00    +0.072 C 
ATOM     13  C   UNL     1      -2.266  -1.764  26.196  0.00  0.00    +0.024 C 
ATOM     14  C   UNL     1      -3.847  -3.287  25.036  0.00  0.00    +0.019 C 
ATOM     15  C   UNL     1      -2.756  -0.987  23.545  0.00  0.00    +0.094 C 
ATOM     16  C   UNL     1      -2.927  -3.369  23.805  0.00  0.00    +0.085 C 
ENDROOT
BRANCH  11  18
ATOM      8  N   UNL     1      -5.416   0.869  25.463  0.00  0.00    -0.237 NA
ATOM      9  N   UNL     1      -4.737   3.174  25.653  0.00  0.00    -0.232 NA
ATOM     18  C   UNL     1      -4.206   0.595  24.934  0.00  0.00    +0.050 A 
ATOM     19  C   UNL     1      -3.223   1.544  24.735  0.00  0.00    +0.052 A 
ATOM     20  C   UNL     1      -3.548   2.829  25.118  0.00  0.00    +0.076 A 
ATOM     21  C   UNL     1      -5.612   2.159  25.796  0.00  0.00    +0.127 A 
ATOM     24  C   UNL     1      -6.940   2.502  26.383  0.00  0.00    +0.088 C 
BRANCH  20  23
ATOM      1 BR   UNL     1      -0.578   2.210  26.128  0.00  0.00    -0.050 Br
ATOM     23  C   UNL     1      -2.609   3.914  24.962  0.00  0.00    +0.014 A 
ATOM     27  C   UNL     1      -1.275   3.800  25.353  0.00  0.00    +0.027 A 
ATOM     28  C   UNL     1      -3.071   5.104  24.398  0.00  0.00    +0.011 A 
ATOM     31  C   UNL     1      -0.404   4.876  25.182  0.00  0.00    +0.016 A 
ATOM     32  C   UNL     1      -2.199   6.179  24.226  0.00  0.00    +0.001 A 
ATOM     34  C   UNL     1      -0.866   6.065  24.619  0.00  0.00    +0.001 A 
ENDBRANCH  20  23
ENDBRANCH  11  18
BRANCH  12  17
ATOM     17  C   UNL     1      -0.049  -1.267  25.044  0.00  0.00    +0.124 C 
BRANCH  17   7
ATOM      7  N   UNL     1       0.659  -1.465  23.770  0.00  0.00    -0.188 NA
ATOM     35  H   UNL     1       1.232  -2.315  23.698  0.00  0.00    +0.148 HD
BRANCH   7   3
ATOM      3  S   UNL     1       1.131  -0.122  22.835  0.00  0.00    +0.058 S 
ATOM      4  O   UNL     1       0.590   1.087  23.426  0.00  0.00    -0.153 OA
ATOM      5  O   UNL     1       0.900  -0.415  21.433  0.00  0.00    -0.153 OA
BRANCH   3  22
ATOM      2 CL   UNL     1       7.350  -0.084  23.696  0.00  0.00    -0.084 Cl
ATOM     22  C   UNL     1       2.882  -0.111  23.078  0.00  0.00    +0.105 A 
ATOM     25  C   UNL     1       3.627   1.016  22.732  0.00  0.00    +0.030 A 
ATOM     26  C   UNL     1       3.518  -1.230  23.613  0.00  0.00    +0.030 A 
ATOM     29  C   UNL     1       5.009   1.025  22.923  0.00  0.00    +0.022 A 
ATOM     30  C   UNL     1       4.900  -1.222  23.805  0.00  0.00    +0.022 A 
ATOM     33  C   UNL     1       5.645  -0.094  23.460  0.00  0.00    +0.041 A 
ENDBRANCH   3  22
ENDBRANCH   7   3
ENDBRANCH  17   7
ENDBRANCH  12  17
TORSDOF 6
ENDMDL
MODEL 2
REMARK VINA RESULT:       1.7      1.463      4.982
REMARK  Name = 40777256
REMARK  7 active torsions:
REMARK  status: ('A' for Active; 'I' for Inactive)
REMARK    1  A    between atoms: S_3  and  N_7
REMARK    2  A    between atoms: S_3  and  C_22
REMARK    3  A    between atoms: N_7  and  C_17
REMARK    4  A    between atoms: C_11  and  C_18
REMARK    5  A    between atoms: C_12  and  C_17
REMARK    6  A    between atoms: C_20  and  C_23
REMARK    7  A    between atoms: C_21  and  C_24
REMARK                            x       y       z     vdW  Elec       q    Type
REMARK                         _______ _______ _______ _____ _____    ______ ____
ROOT
ATOM      6  N   UNL     1      -0.256   4.137  25.378  0.00  0.00    -0.297 NA
ATOM     10  C   UNL     1      -2.400   4.302  23.908  0.00  0.00    +0.002 C 
ATOM     11  C   UNL     1      -2.748   3.747  25.317  0.00  0.00    +0.055 C 
ATOM     12  C   UNL     1      -0.018   3.495  24.057  0.00  0.00    +0.072 C 
ATOM     13  C   UNL     1      -1.333   3.398  23.255  0.00  0.00    +0.024 C 
ATOM     14  C   UNL     1      -1.752   5.687  24.121  0.00  0.00    +0.019 C 
ATOM     15  C   UNL     1      -1.404   3.489  26.059  0.00  0.00    +0.094 C 
ATOM     16  C   UNL     1      -0.602   5.558  25.135  0.00  0.00    +0.085 C 
ENDROOT
BRANCH  11  18
ATOM      8  N   UNL     1      -4.925   2.804  25.907  0.00  0.00    -0.237 NA
ATOM      9  N   UNL     1      -5.439   0.469  25.599  0.00  0.00    -0.232 NA
ATOM     18  C   UNL     1      -3.696   2.560  25.409  0.00  0.00    +0.050 A 
ATOM     19  C   UNL     1      -3.270   1.316  24.991  0.00  0.00    +0.052 A 
ATOM     20  C   UNL     1      -4.194   0.298  25.110  0.00  0.00    +0.076 A 
ATOM     21  C   UNL     1      -5.734   1.730  25.973  0.00  0.00    +0.127 A 
ATOM     24  C   UNL     1      -7.103   1.958  26.521  0.00  0.00    +0.088 C 
BRANCH  20  23
ATOM      1 BR   UNL     1      -1.470  -0.866  26.317  0.00  0.00    -0.050 Br
ATOM     23  C   UNL     1      -3.872  -1.051  24.710  0.00  0.00    +0.014 A 
ATOM     27  C   UNL     1      -2.720  -1.700  25.151  0.00  0.00    +0.027 A 
ATOM     28  C   UNL     1      -4.758  -1.708  23.854  0.00  0.00    +0.011 A 
ATOM     31  C   UNL     1      -2.451  -3.005  24.737  0.00  0.00    +0.016 A 
ATOM     32  C   UNL     1      -4.489  -3.013  23.441  0.00  0.00    +0.001 A 
ATOM     34  C   UNL     1      -3.336  -3.661  23.882  0.00  0.00    +0.001 A 
ENDBRANCH  20  23
ENDBRANCH  11  18
BRANCH  12  17
ATOM     17  C   UNL     1       0.673   2.135  24.187  0.00  0.00    +0.124 C 
BRANCH  17   7
ATOM      7  N   UNL     1       0.679   1.469  22.875  0.00  0.00    -0.188 NA
ATOM     35  H   UNL     1       0.046   1.860  22.166  0.00  0.00    +0.148 HD
BRANCH   7   3
ATOM      3  S   UNL     1       1.058  -0.187  22.757  0.00  0.00    +0.058 S 
ATOM      4  O   UNL     1       0.832  -0.635  21.397  0.00  0.00    -0.153 OA
ATOM      5  O   UNL     1       0.450  -0.893  23.869  0.00  0.00    -0.153 OA
BRANCH   3  22
ATOM      2 CL   UNL     1       7.253  -0.154  23.779  0.00  0.00    -0.084 Cl
ATOM     22  C   UNL     1       2.803  -0.178  23.045  0.00  0.00    +0.105 A 
ATOM     25  C   UNL     1       3.421  -1.289  23.618  0.00  0.00    +0.030 A 
ATOM     26  C   UNL     1       3.560   0.941  22.699  0.00  0.00    +0.030 A 
ATOM     29  C   UNL     1       4.797  -1.282  23.845  0.00  0.00    +0.022 A 
ATOM     30  C   UNL     1       4.937   0.949  22.927  0.00  0.00    +0.022 A 
ATOM     33  C   UNL     1       5.555  -0.163  23.499  0.00  0.00    +0.041 A 
ENDBRANCH   3  22
ENDBRANCH   7   3
ENDBRANCH  17   7
ENDBRANCH  12  17
TORSDOF 6
ENDMDL
