MODEL 1
REMARK VINA RESULT:      -5.7      0.000      0.000
REMARK  Name = 75536669
REMARK  8 active torsions:
REMARK  status: ('A' for Active; 'I' for Inactive)
REMARK    1  A    between atoms: S_1  and  N_7
REMARK    2  A    between atoms: S_1  and  C_17
REMARK    3  A    between atoms: O_3  and  C_11
REMARK    4  A    between atoms: N_6  and  C_10
REMARK    5  A    between atoms: N_6  and  C_15
REMARK    6  A    between atoms: N_7  and  C_14
REMARK    7  A    between atoms: C_12  and  C_14
REMARK    8  A    between atoms: C_15  and  C_16
REMARK                            x       y       z     vdW  Elec       q    Type
REMARK                         _______ _______ _______ _____ _____    ______ ____
ROOT
ATOM      2  O   UNL     1      -0.946   0.912  23.463  0.00  0.00    -0.371 OA
ATOM     10  C   UNL     1      -1.069   2.915  24.736  0.00  0.00    +0.111 C 
ATOM     11  C   UNL     1      -0.904   1.737  25.680  0.00  0.00    +0.164 C 
ATOM     12  C   UNL     1      -0.327   0.687  24.740  0.00  0.00    +0.164 C 
ATOM     13  C   UNL     1      -1.544   2.221  23.471  0.00  0.00    +0.181 C 
ENDROOT
BRANCH  11   3
ATOM      3  O   UNL     1      -0.032   2.018  26.756  0.00  0.00    -0.388 OA
ATOM     21  H   UNL     1       0.167   2.969  26.750  0.00  0.00    +0.210 HD
ENDBRANCH  11   3
BRANCH  10   6
ATOM      6  N   UNL     1      -2.002   3.920  25.216  0.00  0.00    -0.302 NA
ATOM     20  H   UNL     1      -1.541   4.830  25.219  0.00  0.00    +0.123 HD
BRANCH   6  15
ATOM     15  C   UNL     1      -3.181   3.991  24.361  0.00  0.00    +0.156 C 
BRANCH  15  16
ATOM      8  N   UNL     1      -4.959   2.225  24.302  0.00  0.00    -0.347 N 
ATOM      9  N   UNL     1      -4.919   3.496  26.122  0.00  0.00    -0.240 NA
ATOM     16  C   UNL     1      -4.353   3.259  24.960  0.00  0.00    +0.121 A 
ATOM     18  C   UNL     1      -5.976   1.774  25.095  0.00  0.00    +0.104 A 
ATOM     19  C   UNL     1      -5.932   2.574  26.212  0.00  0.00    +0.130 A 
ATOM     23  H   UNL     1      -4.702   1.859  23.394  0.00  0.00    +0.167 HD
ENDBRANCH  15  16
ENDBRANCH   6  15
ENDBRANCH  10   6
BRANCH  12  14
ATOM     14  C   UNL     1      -0.593  -0.737  25.196  0.00  0.00    +0.139 C 
BRANCH  14   7
ATOM      7  N   UNL     1      -1.572  -1.371  24.290  0.00  0.00    -0.192 NA
ATOM     22  H   UNL     1      -1.336  -1.264  23.295  0.00  0.00    +0.148 HD
BRANCH   7   1
ATOM      1  S   UNL     1      -3.230  -1.316  24.690  0.00  0.00    +0.027 S 
ATOM      4  O   UNL     1      -3.940  -0.492  23.730  0.00  0.00    -0.158 OA
ATOM      5  O   UNL     1      -3.350  -1.067  26.113  0.00  0.00    -0.158 OA
ATOM     17  C   UNL     1      -3.691  -3.010  24.405  0.00  0.00    +0.214 C 
ENDBRANCH   7   1
ENDBRANCH  14   7
ENDBRANCH  12  14
TORSDOF 7
ENDMDL
MODEL 2
REMARK VINA RESULT:      -5.6      2.207      4.471
REMARK  Name = 75536669
REMARK  8 active torsions:
REMARK  status: ('A' for Active; 'I' for Inactive)
REMARK    1  A    between atoms: S_1  and  N_7
REMARK    2  A    between atoms: S_1  and  C_17
REMARK    3  A    between atoms: O_3  and  C_11
REMARK    4  A    between atoms: N_6  and  C_10
REMARK    5  A    between atoms: N_6  and  C_15
REMARK    6  A    between atoms: N_7  and  C_14
REMARK    7  A    between atoms: C_12  and  C_14
REMARK    8  A    between atoms: C_15  and  C_16
REMARK                            x       y       z     vdW  Elec       q    Type
REMARK                         _______ _______ _______ _____ _____    ______ ____
ROOT
ATOM      2  O   UNL     1      -0.365   3.443  25.879  0.00  0.00    -0.371 OA
ATOM     10  C   UNL     1      -0.250   1.561  24.434  0.00  0.00    +0.111 C 
ATOM     11  C   UNL     1      -1.645   2.155  24.363  0.00  0.00    +0.164 C 
ATOM     12  C   UNL     1      -1.390   3.565  24.879  0.00  0.00    +0.164 C 
ATOM     13  C   UNL     1       0.265   2.158  25.733  0.00  0.00    +0.181 C 
ENDROOT
BRANCH  11   3
ATOM      3  O   UNL     1      -2.170   2.161  23.051  0.00  0.00    -0.388 OA
ATOM     21  H   UNL     1      -1.500   2.533  22.454  0.00  0.00    +0.210 HD
ENDBRANCH  11   3
BRANCH  10   6
ATOM      6  N   UNL     1      -0.235   0.108  24.433  0.00  0.00    -0.302 NA
ATOM     20  H   UNL     1       0.718  -0.217  24.592  0.00  0.00    +0.123 HD
BRANCH   6  15
ATOM     15  C   UNL     1      -1.096  -0.426  25.481  0.00  0.00    +0.156 C 
BRANCH  15  16
ATOM      8  N   UNL     1      -3.402  -0.469  24.499  0.00  0.00    -0.347 N 
ATOM      9  N   UNL     1      -2.420  -2.445  24.747  0.00  0.00    -0.240 NA
ATOM     16  C   UNL     1      -2.290  -1.148  24.913  0.00  0.00    +0.121 A 
ATOM     18  C   UNL     1      -4.298  -1.392  24.039  0.00  0.00    +0.104 A 
ATOM     19  C   UNL     1      -3.670  -2.605  24.202  0.00  0.00    +0.130 A 
ATOM     23  H   UNL     1      -3.538   0.533  24.526  0.00  0.00    +0.167 HD
ENDBRANCH  15  16
ENDBRANCH   6  15
ENDBRANCH  10   6
BRANCH  12  14
ATOM     14  C   UNL     1      -2.622   4.215  25.483  0.00  0.00    +0.139 C 
BRANCH  14   7
ATOM      7  N   UNL     1      -3.550   3.170  25.958  0.00  0.00    -0.192 NA
ATOM     22  H   UNL     1      -3.081   2.288  26.204  0.00  0.00    +0.148 HD
BRANCH   7   1
ATOM      1  S   UNL     1      -5.090   3.037  25.235  0.00  0.00    +0.027 S 
ATOM      4  O   UNL     1      -4.971   2.406  23.935  0.00  0.00    -0.158 OA
ATOM      5  O   UNL     1      -5.778   4.305  25.385  0.00  0.00    -0.158 OA
ATOM     17  C   UNL     1      -5.868   1.878  26.337  0.00  0.00    +0.214 C 
ENDBRANCH   7   1
ENDBRANCH  14   7
ENDBRANCH  12  14
TORSDOF 7
ENDMDL
MODEL 3
REMARK VINA RESULT:      -5.1      3.783      6.451
REMARK  Name = 75536669
REMARK  8 active torsions:
REMARK  status: ('A' for Active; 'I' for Inactive)
REMARK    1  A    between atoms: S_1  and  N_7
REMARK    2  A    between atoms: S_1  and  C_17
REMARK    3  A    between atoms: O_3  and  C_11
REMARK    4  A    between atoms: N_6  and  C_10
REMARK    5  A    between atoms: N_6  and  C_15
REMARK    6  A    between atoms: N_7  and  C_14
REMARK    7  A    between atoms: C_12  and  C_14
REMARK    8  A    between atoms: C_15  and  C_16
REMARK                            x       y       z     vdW  Elec       q    Type
REMARK                         _______ _______ _______ _____ _____    ______ ____
ROOT
ATOM      2  O   UNL     1      -1.446  -0.809  24.302  0.00  0.00    -0.371 OA
ATOM     10  C   UNL     1       0.390   0.697  24.227  0.00  0.00    +0.111 C 
ATOM     11  C   UNL     1      -0.903   1.491  24.175  0.00  0.00    +0.164 C 
ATOM     12  C   UNL     1      -1.888   0.482  24.753  0.00  0.00    +0.164 C 
ATOM     13  C   UNL     1      -0.092  -0.688  23.831  0.00  0.00    +0.181 C 
ENDROOT
BRANCH  11   3
ATOM      3  O   UNL     1      -0.848   2.674  24.946  0.00  0.00    -0.388 OA
ATOM     21  H   UNL     1      -0.793   2.427  25.884  0.00  0.00    +0.210 HD
ENDBRANCH  11   3
BRANCH  10   6
ATOM      6  N   UNL     1       1.424   1.211  23.344  0.00  0.00    -0.302 NA
ATOM     20  H   UNL     1       2.118   1.712  23.898  0.00  0.00    +0.123 HD
BRANCH   6  15
ATOM     15  C   UNL     1       2.085   0.129  22.625  0.00  0.00    +0.156 C 
BRANCH  15  16
ATOM      8  N   UNL     1       3.905  -1.219  23.699  0.00  0.00    -0.347 N 
ATOM      9  N   UNL     1       4.495   0.793  22.966  0.00  0.00    -0.240 NA
ATOM     16  C   UNL     1       3.506  -0.065  23.084  0.00  0.00    +0.121 A 
ATOM     18  C   UNL     1       5.234  -1.090  23.991  0.00  0.00    +0.104 A 
ATOM     19  C   UNL     1       5.575   0.160  23.530  0.00  0.00    +0.130 A 
ATOM     23  H   UNL     1       3.325  -2.023  23.900  0.00  0.00    +0.167 HD
ENDBRANCH  15  16
ENDBRANCH   6  15
ENDBRANCH  10   6
BRANCH  12  14
ATOM     14  C   UNL     1      -3.320   0.719  24.306  0.00  0.00    +0.139 C 
BRANCH  14   7
ATOM      7  N   UNL     1      -4.060   1.426  25.370  0.00  0.00    -0.192 NA
ATOM     22  H   UNL     1      -4.846   0.884  25.751  0.00  0.00    +0.148 HD
BRANCH   7   1
ATOM      1  S   UNL     1      -4.290   3.112  25.242  0.00  0.00    +0.027 S 
ATOM      4  O   UNL     1      -3.257   3.808  25.983  0.00  0.00    -0.158 OA
ATOM      5  O   UNL     1      -5.692   3.402  25.474  0.00  0.00    -0.158 OA
ATOM     17  C   UNL     1      -3.978   3.354  23.508  0.00  0.00    +0.214 C 
ENDBRANCH   7   1
ENDBRANCH  14   7
ENDBRANCH  12  14
TORSDOF 7
ENDMDL
MODEL 4
REMARK VINA RESULT:      -5.1      3.172      5.971
REMARK  Name = 75536669
REMARK  8 active torsions:
REMARK  status: ('A' for Active; 'I' for Inactive)
REMARK    1  A    between atoms: S_1  and  N_7
REMARK    2  A    between atoms: S_1  and  C_17
REMARK    3  A    between atoms: O_3  and  C_11
REMARK    4  A    between atoms: N_6  and  C_10
REMARK    5  A    between atoms: N_6  and  C_15
REMARK    6  A    between atoms: N_7  and  C_14
REMARK    7  A    between atoms: C_12  and  C_14
REMARK    8  A    between atoms: C_15  and  C_16
REMARK                            x       y       z     vdW  Elec       q    Type
REMARK                         _______ _______ _______ _____ _____    ______ ____
ROOT
ATOM      2  O   UNL     1      -3.424  -1.540  24.793  0.00  0.00    -0.371 OA
ATOM     10  C   UNL     1      -1.148  -0.944  25.123  0.00  0.00    +0.111 C 
ATOM     11  C   UNL     1      -1.963   0.317  24.904  0.00  0.00    +0.164 C 
ATOM     12  C   UNL     1      -3.364  -0.176  25.242  0.00  0.00    +0.164 C 
ATOM     13  C   UNL     1      -2.082  -2.006  24.567  0.00  0.00    +0.181 C 
ENDROOT
BRANCH  11   3
ATOM      3  O   UNL     1      -1.561   1.380  25.745  0.00  0.00    -0.388 OA
ATOM     21  H   UNL     1      -1.459   2.180  25.202  0.00  0.00    +0.210 HD
ENDBRANCH  11   3
BRANCH  10   6
ATOM      6  N   UNL     1       0.146  -0.925  24.462  0.00  0.00    -0.302 NA
ATOM     20  H   UNL     1       0.325  -1.840  24.050  0.00  0.00    +0.123 HD
BRANCH   6  15
ATOM     15  C   UNL     1       0.180   0.082  23.408  0.00  0.00    +0.156 C 
BRANCH  15  16
ATOM      8  N   UNL     1       2.428   1.192  23.432  0.00  0.00    -0.347 N 
ATOM      9  N   UNL     1       2.124  -0.341  21.855  0.00  0.00    -0.240 NA
ATOM     16  C   UNL     1       1.573   0.285  22.871  0.00  0.00    +0.121 A 
ATOM     18  C   UNL     1       3.599   1.141  22.730  0.00  0.00    +0.104 A 
ATOM     19  C   UNL     1       3.387   0.189  21.761  0.00  0.00    +0.130 A 
ATOM     23  H   UNL     1       2.231   1.791  24.224  0.00  0.00    +0.167 HD
ENDBRANCH  15  16
ENDBRANCH   6  15
ENDBRANCH  10   6
BRANCH  12  14
ATOM     14  C   UNL     1      -4.462   0.633  24.576  0.00  0.00    +0.139 C 
BRANCH  14   7
ATOM      7  N   UNL     1      -4.980   1.640  25.524  0.00  0.00    -0.192 NA
ATOM     22  H   UNL     1      -5.954   1.470  25.809  0.00  0.00    +0.148 HD
BRANCH   7   1
ATOM      1  S   UNL     1      -4.515   3.271  25.339  0.00  0.00    +0.027 S 
ATOM      4  O   UNL     1      -3.356   3.549  26.165  0.00  0.00    -0.158 OA
ATOM      5  O   UNL     1      -5.703   4.099  25.425  0.00  0.00    -0.158 OA
ATOM     17  C   UNL     1      -3.990   3.271  23.640  0.00  0.00    +0.214 C 
ENDBRANCH   7   1
ENDBRANCH  14   7
ENDBRANCH  12  14
TORSDOF 7
ENDMDL
MODEL 5
REMARK VINA RESULT:      -5.0      2.308      4.848
REMARK  Name = 75536669
REMARK  8 active torsions:
REMARK  status: ('A' for Active; 'I' for Inactive)
REMARK    1  A    between atoms: S_1  and  N_7
REMARK    2  A    between atoms: S_1  and  C_17
REMARK    3  A    between atoms: O_3  and  C_11
REMARK    4  A    between atoms: N_6  and  C_10
REMARK    5  A    between atoms: N_6  and  C_15
REMARK    6  A    between atoms: N_7  and  C_14
REMARK    7  A    between atoms: C_12  and  C_14
REMARK    8  A    between atoms: C_15  and  C_16
REMARK                            x       y       z     vdW  Elec       q    Type
REMARK                         _______ _______ _______ _____ _____    ______ ____
ROOT
ATOM      2  O   UNL     1      -2.604   3.148  23.616  0.00  0.00    -0.371 OA
ATOM     10  C   UNL     1      -4.605   2.015  24.213  0.00  0.00    +0.111 C 
ATOM     11  C   UNL     1      -4.084   2.769  25.423  0.00  0.00    +0.164 C 
ATOM     12  C   UNL     1      -3.183   3.802  24.758  0.00  0.00    +0.164 C 
ATOM     13  C   UNL     1      -3.365   1.960  23.336  0.00  0.00    +0.181 C 
ENDROOT
BRANCH  11   3
ATOM      3  O   UNL     1      -5.117   3.377  26.173  0.00  0.00    -0.388 OA
ATOM     21  H   UNL     1      -5.382   2.766  26.881  0.00  0.00    +0.210 HD
ENDBRANCH  11   3
BRANCH  10   6
ATOM      6  N   UNL     1      -5.134   0.699  24.530  0.00  0.00    -0.302 NA
ATOM     20  H   UNL     1      -5.092   0.112  23.698  0.00  0.00    +0.123 HD
BRANCH   6  15
ATOM     15  C   UNL     1      -4.363   0.067  25.594  0.00  0.00    +0.156 C 
BRANCH  15  16
ATOM      8  N   UNL     1      -2.143  -1.032  25.210  0.00  0.00    -0.347 N 
ATOM      9  N   UNL     1      -3.914  -2.140  24.456  0.00  0.00    -0.240 NA
ATOM     16  C   UNL     1      -3.503  -1.055  25.073  0.00  0.00    +0.121 A 
ATOM     18  C   UNL     1      -1.655  -2.176  24.644  0.00  0.00    +0.104 A 
ATOM     19  C   UNL     1      -2.766  -2.843  24.185  0.00  0.00    +0.130 A 
ATOM     23  H   UNL     1      -1.597  -0.303  25.650  0.00  0.00    +0.167 HD
ENDBRANCH  15  16
ENDBRANCH   6  15
ENDBRANCH  10   6
BRANCH  12  14
ATOM     14  C   UNL     1      -2.081   4.312  25.670  0.00  0.00    +0.139 C 
BRANCH  14   7
ATOM      7  N   UNL     1      -0.769   3.872  25.156  0.00  0.00    -0.192 NA
ATOM     22  H   UNL     1      -0.625   4.092  24.162  0.00  0.00    +0.148 HD
BRANCH   7   1
ATOM      1  S   UNL     1      -0.112   2.398  25.711  0.00  0.00    +0.027 S 
ATOM      4  O   UNL     1      -1.181   1.475  26.039  0.00  0.00    -0.158 OA
ATOM      5  O   UNL     1       0.933   2.695  26.672  0.00  0.00    -0.158 OA
ATOM     17  C   UNL     1       0.680   1.815  24.229  0.00  0.00    +0.214 C 
ENDBRANCH   7   1
ENDBRANCH  14   7
ENDBRANCH  12  14
TORSDOF 7
ENDMDL
MODEL 6
REMARK VINA RESULT:      -4.6      2.393      4.530
REMARK  Name = 75536669
REMARK  8 active torsions:
REMARK  status: ('A' for Active; 'I' for Inactive)
REMARK    1  A    between atoms: S_1  and  N_7
REMARK    2  A    between atoms: S_1  and  C_17
REMARK    3  A    between atoms: O_3  and  C_11
REMARK    4  A    between atoms: N_6  and  C_10
REMARK    5  A    between atoms: N_6  and  C_15
REMARK    6  A    between atoms: N_7  and  C_14
REMARK    7  A    between atoms: C_12  and  C_14
REMARK    8  A    between atoms: C_15  and  C_16
REMARK                            x       y       z     vdW  Elec       q    Type
REMARK                         _______ _______ _______ _____ _____    ______ ____
ROOT
ATOM      2  O   UNL     1      -3.052  -1.959  24.254  0.00  0.00    -0.371 OA
ATOM     10  C   UNL     1      -0.810  -1.632  24.970  0.00  0.00    +0.111 C 
ATOM     11  C   UNL     1      -1.686  -0.551  25.577  0.00  0.00    +0.164 C 
ATOM     12  C   UNL     1      -3.062  -1.195  25.472  0.00  0.00    +0.164 C 
ATOM     13  C   UNL     1      -1.687  -2.125  23.831  0.00  0.00    +0.181 C 
ENDROOT
BRANCH  11   3
ATOM      3  O   UNL     1      -1.342  -0.258  26.916  0.00  0.00    -0.388 OA
ATOM     21  H   UNL     1      -1.353  -1.086  27.424  0.00  0.00    +0.210 HD
ENDBRANCH  11   3
BRANCH  10   6
ATOM      6  N   UNL     1       0.485  -1.149  24.521  0.00  0.00    -0.302 NA
ATOM     20  H   UNL     1       1.013  -1.926  24.125  0.00  0.00    +0.123 HD
BRANCH   6  15
ATOM     15  C   UNL     1       0.334  -0.114  23.504  0.00  0.00    +0.156 C 
BRANCH  15  16
ATOM      8  N   UNL     1       0.601   1.685  25.228  0.00  0.00    -0.347 N 
ATOM      9  N   UNL     1      -0.938   2.058  23.671  0.00  0.00    -0.240 NA
ATOM     16  C   UNL     1      -0.028   1.217  24.108  0.00  0.00    +0.121 A 
ATOM     18  C   UNL     1       0.057   2.904  25.525  0.00  0.00    +0.104 A 
ATOM     19  C   UNL     1      -0.891   3.112  24.551  0.00  0.00    +0.130 A 
ATOM     23  H   UNL     1       1.335   1.218  25.744  0.00  0.00    +0.167 HD
ENDBRANCH  15  16
ENDBRANCH   6  15
ENDBRANCH  10   6
BRANCH  12  14
ATOM     14  C   UNL     1      -4.196  -0.186  25.436  0.00  0.00    +0.139 C 
BRANCH  14   7
ATOM      7  N   UNL     1      -3.640   1.181  25.408  0.00  0.00    -0.192 NA
ATOM     22  H   UNL     1      -3.000   1.379  26.189  0.00  0.00    +0.148 HD
BRANCH   7   1
ATOM      1  S   UNL     1      -4.632   2.470  24.892  0.00  0.00    +0.027 S 
ATOM      4  O   UNL     1      -4.352   2.783  23.504  0.00  0.00    -0.158 OA
ATOM      5  O   UNL     1      -4.600   3.507  25.906  0.00  0.00    -0.158 OA
ATOM     17  C   UNL     1      -6.234   1.701  24.969  0.00  0.00    +0.214 C 
ENDBRANCH   7   1
ENDBRANCH  14   7
ENDBRANCH  12  14
TORSDOF 7
ENDMDL
MODEL 7
REMARK VINA RESULT:      -4.6      2.369      3.821
REMARK  Name = 75536669
REMARK  8 active torsions:
REMARK  status: ('A' for Active; 'I' for Inactive)
REMARK    1  A    between atoms: S_1  and  N_7
REMARK    2  A    between atoms: S_1  and  C_17
REMARK    3  A    between atoms: O_3  and  C_11
REMARK    4  A    between atoms: N_6  and  C_10
REMARK    5  A    between atoms: N_6  and  C_15
REMARK    6  A    between atoms: N_7  and  C_14
REMARK    7  A    between atoms: C_12  and  C_14
REMARK    8  A    between atoms: C_15  and  C_16
REMARK                            x       y       z     vdW  Elec       q    Type
REMARK                         _______ _______ _______ _____ _____    ______ ____
ROOT
ATOM      2  O   UNL     1      -2.456   0.676  23.224  0.00  0.00    -0.371 OA
ATOM     10  C   UNL     1      -0.398   0.684  24.410  0.00  0.00    +0.111 C 
ATOM     11  C   UNL     1      -1.509   0.251  25.349  0.00  0.00    +0.164 C 
ATOM     12  C   UNL     1      -2.572  -0.200  24.357  0.00  0.00    +0.164 C 
ATOM     13  C   UNL     1      -1.188   1.352  23.298  0.00  0.00    +0.181 C 
ENDROOT
BRANCH  11   3
ATOM      3  O   UNL     1      -1.116  -0.797  26.213  0.00  0.00    -0.388 OA
ATOM     21  H   UNL     1      -0.375  -1.273  25.801  0.00  0.00    +0.210 HD
ENDBRANCH  11   3
BRANCH  10   6
ATOM      6  N   UNL     1       0.574   1.572  25.027  0.00  0.00    -0.302 NA
ATOM     20  H   UNL     1       0.851   2.284  24.353  0.00  0.00    +0.123 HD
BRANCH   6  15
ATOM     15  C   UNL     1       0.012   2.228  26.202  0.00  0.00    +0.156 C 
BRANCH  15  16
ATOM      8  N   UNL     1      -0.366   4.400  25.011  0.00  0.00    -0.347 N 
ATOM      9  N   UNL     1      -2.073   3.649  26.216  0.00  0.00    -0.240 NA
ATOM     16  C   UNL     1      -0.839   3.414  25.830  0.00  0.00    +0.121 A 
ATOM     18  C   UNL     1      -1.362   5.324  24.865  0.00  0.00    +0.104 A 
ATOM     19  C   UNL     1      -2.405   4.839  25.618  0.00  0.00    +0.130 A 
ATOM     23  H   UNL     1       0.553   4.441  24.589  0.00  0.00    +0.167 HD
ENDBRANCH  15  16
ENDBRANCH   6  15
ENDBRANCH  10   6
BRANCH  12  14
ATOM     14  C   UNL     1      -3.982  -0.132  24.916  0.00  0.00    +0.139 C 
BRANCH  14   7
ATOM      7  N   UNL     1      -4.155   1.124  25.672  0.00  0.00    -0.192 NA
ATOM     22  H   UNL     1      -4.028   1.012  26.687  0.00  0.00    +0.148 HD
BRANCH   7   1
ATOM      1  S   UNL     1      -5.349   2.236  25.173  0.00  0.00    +0.027 S 
ATOM      4  O   UNL     1      -5.529   3.254  26.190  0.00  0.00    -0.158 OA
ATOM      5  O   UNL     1      -6.483   1.491  24.660  0.00  0.00    -0.158 OA
ATOM     17  C   UNL     1      -4.535   2.988  23.782  0.00  0.00    +0.214 C 
ENDBRANCH   7   1
ENDBRANCH  14   7
ENDBRANCH  12  14
TORSDOF 7
ENDMDL
MODEL 8
REMARK VINA RESULT:      -4.5      3.519      6.496
REMARK  Name = 75536669
REMARK  8 active torsions:
REMARK  status: ('A' for Active; 'I' for Inactive)
REMARK    1  A    between atoms: S_1  and  N_7
REMARK    2  A    between atoms: S_1  and  C_17
REMARK    3  A    between atoms: O_3  and  C_11
REMARK    4  A    between atoms: N_6  and  C_10
REMARK    5  A    between atoms: N_6  and  C_15
REMARK    6  A    between atoms: N_7  and  C_14
REMARK    7  A    between atoms: C_12  and  C_14
REMARK    8  A    between atoms: C_15  and  C_16
REMARK                            x       y       z     vdW  Elec       q    Type
REMARK                         _______ _______ _______ _____ _____    ______ ____
ROOT
ATOM      2  O   UNL     1      -0.070   3.061  24.382  0.00  0.00    -0.371 OA
ATOM     10  C   UNL     1       0.126   0.839  23.562  0.00  0.00    +0.111 C 
ATOM     11  C   UNL     1      -0.921   0.871  24.661  0.00  0.00    +0.164 C 
ATOM     12  C   UNL     1      -1.284   2.351  24.677  0.00  0.00    +0.164 C 
ATOM     13  C   UNL     1       0.879   2.132  23.828  0.00  0.00    +0.181 C 
ENDROOT
BRANCH  11   3
ATOM      3  O   UNL     1      -2.040   0.057  24.372  0.00  0.00    -0.388 OA
ATOM     21  H   UNL     1      -1.874  -0.831  24.728  0.00  0.00    +0.210 HD
ENDBRANCH  11   3
BRANCH  10   6
ATOM      6  N   UNL     1       0.982  -0.335  23.607  0.00  0.00    -0.302 NA
ATOM     20  H   UNL     1       0.405  -1.172  23.531  0.00  0.00    +0.123 HD
BRANCH   6  15
ATOM     15  C   UNL     1       1.945  -0.324  22.512  0.00  0.00    +0.156 C 
BRANCH  15  16
ATOM      8  N   UNL     1       3.975  -1.227  23.671  0.00  0.00    -0.347 N 
ATOM      9  N   UNL     1       4.149   0.844  22.890  0.00  0.00    -0.240 NA
ATOM     16  C   UNL     1       3.361  -0.200  23.011  0.00  0.00    +0.121 A 
ATOM     18  C   UNL     1       5.237  -0.812  23.991  0.00  0.00    +0.104 A 
ATOM     19  C   UNL     1       5.321   0.469  23.499  0.00  0.00    +0.130 A 
ATOM     23  H   UNL     1       3.572  -2.130  23.884  0.00  0.00    +0.167 HD
ENDBRANCH  15  16
ENDBRANCH   6  15
ENDBRANCH  10   6
BRANCH  12  14
ATOM     14  C   UNL     1      -1.840   2.817  26.010  0.00  0.00    +0.139 C 
BRANCH  14   7
ATOM      7  N   UNL     1      -3.085   3.579  25.787  0.00  0.00    -0.192 NA
ATOM     22  H   UNL     1      -3.365   4.151  26.596  0.00  0.00    +0.148 HD
BRANCH   7   1
ATOM      1  S   UNL     1      -4.347   2.862  24.890  0.00  0.00    +0.027 S 
ATOM      4  O   UNL     1      -4.471   1.462  25.245  0.00  0.00    -0.158 OA
ATOM      5  O   UNL     1      -4.211   3.267  23.504  0.00  0.00    -0.158 OA
ATOM     17  C   UNL     1      -5.753   3.723  25.558  0.00  0.00    +0.214 C 
ENDBRANCH   7   1
ENDBRANCH  14   7
ENDBRANCH  12  14
TORSDOF 7
ENDMDL
MODEL 9
REMARK VINA RESULT:      -4.2      2.992      4.481
REMARK  Name = 75536669
REMARK  8 active torsions:
REMARK  status: ('A' for Active; 'I' for Inactive)
REMARK    1  A    between atoms: S_1  and  N_7
REMARK    2  A    between atoms: S_1  and  C_17
REMARK    3  A    between atoms: O_3  and  C_11
REMARK    4  A    between atoms: N_6  and  C_10
REMARK    5  A    between atoms: N_6  and  C_15
REMARK    6  A    between atoms: N_7  and  C_14
REMARK    7  A    between atoms: C_12  and  C_14
REMARK    8  A    between atoms: C_15  and  C_16
REMARK                            x       y       z     vdW  Elec       q    Type
REMARK                         _______ _______ _______ _____ _____    ______ ____
ROOT
ATOM      2  O   UNL     1      -0.360   0.537  25.254  0.00  0.00    -0.371 OA
ATOM     10  C   UNL     1      -2.298  -0.778  25.649  0.00  0.00    +0.111 C 
ATOM     11  C   UNL     1      -1.670  -1.206  24.336  0.00  0.00    +0.164 C 
ATOM     12  C   UNL     1      -0.248  -0.687  24.508  0.00  0.00    +0.164 C 
ATOM     13  C   UNL     1      -1.666   0.588  25.854  0.00  0.00    +0.181 C 
ENDROOT
BRANCH  11   3
ATOM      3  O   UNL     1      -1.700  -2.607  24.146  0.00  0.00    -0.388 OA
ATOM     21  H   UNL     1      -2.238  -3.000  24.854  0.00  0.00    +0.210 HD
ENDBRANCH  11   3
BRANCH  10   6
ATOM      6  N   UNL     1      -3.750  -0.731  25.613  0.00  0.00    -0.302 NA
ATOM     20  H   UNL     1      -4.091  -0.247  26.443  0.00  0.00    +0.123 HD
BRANCH   6  15
ATOM     15  C   UNL     1      -4.222  -0.025  24.428  0.00  0.00    +0.156 C 
BRANCH  15  16
ATOM      8  N   UNL     1      -3.945   2.433  24.019  0.00  0.00    -0.347 N 
ATOM      9  N   UNL     1      -5.361   1.875  25.637  0.00  0.00    -0.240 NA
ATOM     16  C   UNL     1      -4.534   1.419  24.723  0.00  0.00    +0.121 A 
ATOM     18  C   UNL     1      -4.428   3.611  24.516  0.00  0.00    +0.104 A 
ATOM     19  C   UNL     1      -5.299   3.241  25.513  0.00  0.00    +0.130 A 
ATOM     23  H   UNL     1      -3.275   2.331  23.268  0.00  0.00    +0.167 HD
ENDBRANCH  15  16
ENDBRANCH   6  15
ENDBRANCH  10   6
BRANCH  12  14
ATOM     14  C   UNL     1       0.458  -0.422  23.190  0.00  0.00    +0.139 C 
BRANCH  14   7
ATOM      7  N   UNL     1       1.522   0.580  23.391  0.00  0.00    -0.192 NA
ATOM     22  H   UNL     1       1.170   1.546  23.443  0.00  0.00    +0.148 HD
BRANCH   7   1
ATOM      1  S   UNL     1       3.027   0.361  22.618  0.00  0.00    +0.027 S 
ATOM      4  O   UNL     1       3.903   1.476  22.920  0.00  0.00    -0.158 OA
ATOM      5  O   UNL     1       2.783  -0.041  21.246  0.00  0.00    -0.158 OA
ATOM     17  C   UNL     1       3.636  -1.066  23.488  0.00  0.00    +0.214 C 
ENDBRANCH   7   1
ENDBRANCH  14   7
ENDBRANCH  12  14
TORSDOF 7
ENDMDL
MODEL 10
REMARK VINA RESULT:      -4.1      3.722      5.256
REMARK  Name = 75536669
REMARK  8 active torsions:
REMARK  status: ('A' for Active; 'I' for Inactive)
REMARK    1  A    between atoms: S_1  and  N_7
REMARK    2  A    between atoms: S_1  and  C_17
REMARK    3  A    between atoms: O_3  and  C_11
REMARK    4  A    between atoms: N_6  and  C_10
REMARK    5  A    between atoms: N_6  and  C_15
REMARK    6  A    between atoms: N_7  and  C_14
REMARK    7  A    between atoms: C_12  and  C_14
REMARK    8  A    between atoms: C_15  and  C_16
REMARK                            x       y       z     vdW  Elec       q    Type
REMARK                         _______ _______ _______ _____ _____    ______ ____
ROOT
ATOM      2  O   UNL     1       1.155   2.042  24.070  0.00  0.00    -0.371 OA
ATOM     10  C   UNL     1      -1.088   1.302  24.323  0.00  0.00    +0.111 C 
ATOM     11  C   UNL     1      -0.322   0.285  23.497  0.00  0.00    +0.164 C 
ATOM     12  C   UNL     1       1.114   0.618  23.882  0.00  0.00    +0.164 C 
ATOM     13  C   UNL     1      -0.194   2.525  24.199  0.00  0.00    +0.181 C 
ENDROOT
BRANCH  11   3
ATOM      3  O   UNL     1      -0.659  -1.048  23.824  0.00  0.00    -0.388 OA
ATOM     21  H   UNL     1      -1.357  -1.346  23.217  0.00  0.00    +0.210 HD
ENDBRANCH  11   3
BRANCH  10   6
ATOM      6  N   UNL     1      -2.441   1.539  23.846  0.00  0.00    -0.302 NA
ATOM     20  H   UNL     1      -2.578   1.040  22.967  0.00  0.00    +0.123 HD
BRANCH   6  15
ATOM     15  C   UNL     1      -3.427   1.071  24.813  0.00  0.00    +0.156 C 
BRANCH  15  16
ATOM      8  N   UNL     1      -4.022  -1.122  23.754  0.00  0.00    -0.347 N 
ATOM      9  N   UNL     1      -3.182  -1.236  25.807  0.00  0.00    -0.240 NA
ATOM     16  C   UNL     1      -3.529  -0.432  24.827  0.00  0.00    +0.121 A 
ATOM     18  C   UNL     1      -3.987  -2.451  24.070  0.00  0.00    +0.104 A 
ATOM     19  C   UNL     1      -3.466  -2.496  25.342  0.00  0.00    +0.130 A 
ATOM     23  H   UNL     1      -4.353  -0.723  22.885  0.00  0.00    +0.167 HD
ENDBRANCH  15  16
ENDBRANCH   6  15
ENDBRANCH  10   6
BRANCH  12  14
ATOM     14  C   UNL     1       2.128   0.211  22.827  0.00  0.00    +0.139 C 
BRANCH  14   7
ATOM      7  N   UNL     1       3.377   0.972  23.021  0.00  0.00    -0.192 NA
ATOM     22  H   UNL     1       3.502   1.733  22.340  0.00  0.00    +0.148 HD
BRANCH   7   1
ATOM      1  S   UNL     1       4.789   0.143  23.502  0.00  0.00    +0.027 S 
ATOM      4  O   UNL     1       5.266   0.675  24.763  0.00  0.00    -0.158 OA
ATOM      5  O   UNL     1       5.673   0.043  22.357  0.00  0.00    -0.158 OA
ATOM     17  C   UNL     1       4.127  -1.479  23.805  0.00  0.00    +0.214 C 
ENDBRANCH   7   1
ENDBRANCH  14   7
ENDBRANCH  12  14
TORSDOF 7
ENDMDL
