MODEL 1
REMARK VINA RESULT:      -5.0      0.000      0.000
REMARK  Name = 75536808
REMARK  11 active torsions:
REMARK  status: ('A' for Active; 'I' for Inactive)
REMARK    1  A    between atoms: O_2  and  C_9
REMARK    2  A    between atoms: N_4  and  C_7
REMARK    3  A    between atoms: N_4  and  C_8
REMARK    4  A    between atoms: N_5  and  C_17
REMARK    5  A    between atoms: N_6  and  C_16
REMARK    6  A    between atoms: C_10  and  C_16
REMARK    7  A    between atoms: C_18  and  C_19
REMARK    8  A    between atoms: C_18  and  C_21
REMARK    9  A    between atoms: C_18  and  C_22
REMARK   10  A    between atoms: C_18  and  C_23
REMARK   11  A    between atoms: C_19  and  C_20
REMARK                            x       y       z     vdW  Elec       q    Type
REMARK                         _______ _______ _______ _____ _____    ______ ____
ROOT
ATOM      1  O   UNL     1      -0.069   2.422  23.243  0.00  0.00    -0.371 OA
ATOM      7  C   UNL     1      -0.678   3.554  25.240  0.00  0.00    +0.111 C 
ATOM      9  C   UNL     1      -0.014   2.238  25.600  0.00  0.00    +0.164 C 
ATOM     10  C   UNL     1       0.750   1.935  24.318  0.00  0.00    +0.165 C 
ATOM     13  C   UNL     1      -1.059   3.312  23.788  0.00  0.00    +0.181 C 
ENDROOT
BRANCH   9   2
ATOM      2  O   UNL     1       0.849   2.350  26.715  0.00  0.00    -0.388 OA
ATOM     25  H   UNL     1       1.576   2.952  26.480  0.00  0.00    +0.210 HD
ENDBRANCH   9   2
BRANCH   7   4
ATOM      4  N   UNL     1      -1.822   3.880  26.077  0.00  0.00    -0.306 NA
ATOM     24  H   UNL     1      -1.790   4.863  26.347  0.00  0.00    +0.123 HD
BRANCH   4   8
ATOM      5  N   UNL     1      -5.613   2.136  25.270  0.00  0.00    -0.305 NA
ATOM      8  C   UNL     1      -3.077   3.593  25.387  0.00  0.00    +0.056 C 
ATOM     11  C   UNL     1      -4.267   3.951  26.282  0.00  0.00    +0.034 C 
ATOM     12  C   UNL     1      -3.154   2.118  24.981  0.00  0.00    +0.034 C 
ATOM     14  C   UNL     1      -5.591   3.565  25.614  0.00  0.00    +0.085 C 
ATOM     15  C   UNL     1      -4.514   1.791  24.357  0.00  0.00    +0.085 C 
ATOM     17  C   UNL     1      -6.900   1.772  24.681  0.00  0.00    +0.104 C 
ENDBRANCH   4   8
ENDBRANCH   7   4
BRANCH  10  16
ATOM     16  C   UNL     1       1.030   0.456  24.122  0.00  0.00    +0.138 C 
BRANCH  16   6
ATOM      3  O   UNL     1      -0.209  -1.769  25.500  0.00  0.00    -0.276 OA
ATOM      6  N   UNL     1      -0.161  -0.261  23.731  0.00  0.00    -0.313 N 
ATOM     20  C   UNL     1      -0.682  -1.319  24.458  0.00  0.00    +0.214 C 
ATOM     26  H   UNL     1      -0.635   0.042  22.886  0.00  0.00    +0.149 HD
BRANCH  20  19
ATOM     19  C   UNL     1      -1.936  -1.909  23.834  0.00  0.00    +0.102 C 
BRANCH  19  18
ATOM     18  C   UNL     1      -3.181  -1.905  24.753  0.00  0.00    -0.029 C 
ATOM     21  C   UNL     1      -4.425  -1.409  23.998  0.00  0.00    +0.011 C 
ATOM     22  C   UNL     1      -3.436  -3.352  25.218  0.00  0.00    +0.011 C 
ATOM     23  C   UNL     1      -2.959  -1.028  25.997  0.00  0.00    +0.011 C 
ENDBRANCH  19  18
ENDBRANCH  20  19
ENDBRANCH  16   6
ENDBRANCH  10  16
TORSDOF 7
ENDMDL
MODEL 2
REMARK VINA RESULT:      -4.8      1.939      4.425
REMARK  Name = 75536808
REMARK  11 active torsions:
REMARK  status: ('A' for Active; 'I' for Inactive)
REMARK    1  A    between atoms: O_2  and  C_9
REMARK    2  A    between atoms: N_4  and  C_7
REMARK    3  A    between atoms: N_4  and  C_8
REMARK    4  A    between atoms: N_5  and  C_17
REMARK    5  A    between atoms: N_6  and  C_16
REMARK    6  A    between atoms: C_10  and  C_16
REMARK    7  A    between atoms: C_18  and  C_19
REMARK    8  A    between atoms: C_18  and  C_21
REMARK    9  A    between atoms: C_18  and  C_22
REMARK   10  A    between atoms: C_18  and  C_23
REMARK   11  A    between atoms: C_19  and  C_20
REMARK                            x       y       z     vdW  Elec       q    Type
REMARK                         _______ _______ _______ _____ _____    ______ ____
ROOT
ATOM      1  O   UNL     1      -3.170   4.005  23.649  0.00  0.00    -0.371 OA
ATOM      7  C   UNL     1      -4.777   2.950  25.044  0.00  0.00    +0.111 C 
ATOM      9  C   UNL     1      -3.620   3.432  25.899  0.00  0.00    +0.164 C 
ATOM     10  C   UNL     1      -3.005   4.489  24.991  0.00  0.00    +0.165 C 
ATOM     13  C   UNL     1      -4.149   2.951  23.659  0.00  0.00    +0.181 C 
ENDROOT
BRANCH   9   2
ATOM      2  O   UNL     1      -4.043   3.977  27.132  0.00  0.00    -0.388 OA
ATOM     25  H   UNL     1      -4.611   3.324  27.577  0.00  0.00    +0.210 HD
ENDBRANCH   9   2
BRANCH   7   4
ATOM      4  N   UNL     1      -5.286   1.644  25.432  0.00  0.00    -0.306 NA
ATOM     24  H   UNL     1      -6.192   1.476  24.994  0.00  0.00    +0.123 HD
BRANCH   4   8
ATOM      5  N   UNL     1      -3.726  -2.268  24.864  0.00  0.00    -0.305 NA
ATOM      8  C   UNL     1      -4.351   0.584  25.064  0.00  0.00    +0.056 C 
ATOM     11  C   UNL     1      -4.963  -0.313  23.985  0.00  0.00    +0.034 C 
ATOM     12  C   UNL     1      -3.969  -0.257  26.286  0.00  0.00    +0.034 C 
ATOM     14  C   UNL     1      -4.037  -1.488  23.658  0.00  0.00    +0.085 C 
ATOM     15  C   UNL     1      -3.076  -1.434  25.885  0.00  0.00    +0.085 C 
ATOM     17  C   UNL     1      -2.883  -3.415  24.528  0.00  0.00    +0.104 C 
ENDBRANCH   4   8
ENDBRANCH   7   4
BRANCH  10  16
ATOM     16  C   UNL     1      -1.534   4.739  25.270  0.00  0.00    +0.138 C 
BRANCH  16   6
ATOM      3  O   UNL     1      -0.313   2.407  26.478  0.00  0.00    -0.276 OA
ATOM      6  N   UNL     1      -0.698   3.754  24.623  0.00  0.00    -0.313 N 
ATOM     20  C   UNL     1      -0.156   2.665  25.287  0.00  0.00    +0.214 C 
ATOM     26  H   UNL     1      -0.515   3.873  23.632  0.00  0.00    +0.149 HD
BRANCH  20  19
ATOM     19  C   UNL     1       0.693   1.782  24.386  0.00  0.00    +0.102 C 
BRANCH  19  18
ATOM     18  C   UNL     1      -0.050   0.563  23.789  0.00  0.00    -0.029 C 
ATOM     21  C   UNL     1      -1.356   0.993  23.102  0.00  0.00    +0.011 C 
ATOM     22  C   UNL     1       0.867  -0.084  22.733  0.00  0.00    +0.011 C 
ATOM     23  C   UNL     1      -0.366  -0.487  24.867  0.00  0.00    +0.011 C 
ENDBRANCH  19  18
ENDBRANCH  20  19
ENDBRANCH  16   6
ENDBRANCH  10  16
TORSDOF 7
ENDMDL
MODEL 3
REMARK VINA RESULT:      -4.6      1.799      4.902
REMARK  Name = 75536808
REMARK  11 active torsions:
REMARK  status: ('A' for Active; 'I' for Inactive)
REMARK    1  A    between atoms: O_2  and  C_9
REMARK    2  A    between atoms: N_4  and  C_7
REMARK    3  A    between atoms: N_4  and  C_8
REMARK    4  A    between atoms: N_5  and  C_17
REMARK    5  A    between atoms: N_6  and  C_16
REMARK    6  A    between atoms: C_10  and  C_16
REMARK    7  A    between atoms: C_18  and  C_19
REMARK    8  A    between atoms: C_18  and  C_21
REMARK    9  A    between atoms: C_18  and  C_22
REMARK   10  A    between atoms: C_18  and  C_23
REMARK   11  A    between atoms: C_19  and  C_20
REMARK                            x       y       z     vdW  Elec       q    Type
REMARK                         _______ _______ _______ _____ _____    ______ ____
ROOT
ATOM      1  O   UNL     1      -1.064   3.294  26.513  0.00  0.00    -0.371 OA
ATOM      7  C   UNL     1       0.237   2.006  25.001  0.00  0.00    +0.111 C 
ATOM      9  C   UNL     1      -0.434   3.133  24.239  0.00  0.00    +0.164 C 
ATOM     10  C   UNL     1      -0.748   4.104  25.369  0.00  0.00    +0.165 C 
ATOM     13  C   UNL     1      -0.604   1.954  26.266  0.00  0.00    +0.181 C 
ENDROOT
BRANCH   9   2
ATOM      2  O   UNL     1       0.411   3.712  23.265  0.00  0.00    -0.388 OA
ATOM     25  H   UNL     1       0.553   4.645  23.498  0.00  0.00    +0.210 HD
ENDBRANCH   9   2
BRANCH   7   4
ATOM      4  N   UNL     1       0.253   0.742  24.281  0.00  0.00    -0.306 NA
ATOM     24  H   UNL     1       1.132   0.253  24.451  0.00  0.00    +0.123 HD
BRANCH   4   8
ATOM      5  N   UNL     1      -2.650  -2.357  24.110  0.00  0.00    -0.305 NA
ATOM      8  C   UNL     1      -0.872  -0.102  24.675  0.00  0.00    +0.056 C 
ATOM     11  C   UNL     1      -0.418  -1.557  24.820  0.00  0.00    +0.034 C 
ATOM     12  C   UNL     1      -2.009  -0.011  23.654  0.00  0.00    +0.034 C 
ATOM     14  C   UNL     1      -1.604  -2.473  25.136  0.00  0.00    +0.085 C 
ATOM     15  C   UNL     1      -3.143  -0.977  24.006  0.00  0.00    +0.085 C 
ATOM     17  C   UNL     1      -3.752  -3.274  24.399  0.00  0.00    +0.104 C 
ENDBRANCH   4   8
ENDBRANCH   7   4
BRANCH  10  16
ATOM     16  C   UNL     1      -1.910   5.031  25.059  0.00  0.00    +0.138 C 
BRANCH  16   6
ATOM      3  O   UNL     1      -4.006   3.529  23.741  0.00  0.00    -0.276 OA
ATOM      6  N   UNL     1      -3.141   4.550  25.642  0.00  0.00    -0.313 N 
ATOM     20  C   UNL     1      -4.090   3.836  24.929  0.00  0.00    +0.214 C 
ATOM     26  H   UNL     1      -3.301   4.744  26.626  0.00  0.00    +0.149 HD
BRANCH  20  19
ATOM     19  C   UNL     1      -5.299   3.451  25.767  0.00  0.00    +0.102 C 
BRANCH  19  18
ATOM     18  C   UNL     1      -5.714   1.965  25.659  0.00  0.00    -0.029 C 
ATOM     21  C   UNL     1      -4.482   1.053  25.537  0.00  0.00    +0.011 C 
ATOM     22  C   UNL     1      -6.475   1.588  26.946  0.00  0.00    +0.011 C 
ATOM     23  C   UNL     1      -6.644   1.725  24.458  0.00  0.00    +0.011 C 
ENDBRANCH  19  18
ENDBRANCH  20  19
ENDBRANCH  16   6
ENDBRANCH  10  16
TORSDOF 7
ENDMDL
MODEL 4
REMARK VINA RESULT:      -4.3      1.865      4.664
REMARK  Name = 75536808
REMARK  11 active torsions:
REMARK  status: ('A' for Active; 'I' for Inactive)
REMARK    1  A    between atoms: O_2  and  C_9
REMARK    2  A    between atoms: N_4  and  C_7
REMARK    3  A    between atoms: N_4  and  C_8
REMARK    4  A    between atoms: N_5  and  C_17
REMARK    5  A    between atoms: N_6  and  C_16
REMARK    6  A    between atoms: C_10  and  C_16
REMARK    7  A    between atoms: C_18  and  C_19
REMARK    8  A    between atoms: C_18  and  C_21
REMARK    9  A    between atoms: C_18  and  C_22
REMARK   10  A    between atoms: C_18  and  C_23
REMARK   11  A    between atoms: C_19  and  C_20
REMARK                            x       y       z     vdW  Elec       q    Type
REMARK                         _______ _______ _______ _____ _____    ______ ____
ROOT
ATOM      1  O   UNL     1      -1.658  -2.321  23.610  0.00  0.00    -0.371 OA
ATOM      7  C   UNL     1      -0.009  -0.925  24.594  0.00  0.00    +0.111 C 
ATOM      9  C   UNL     1      -1.229  -0.961  25.495  0.00  0.00    +0.164 C 
ATOM     10  C   UNL     1      -1.906  -2.240  25.022  0.00  0.00    +0.165 C 
ATOM     13  C   UNL     1      -0.592  -1.415  23.278  0.00  0.00    +0.181 C 
ENDROOT
BRANCH   9   2
ATOM      2  O   UNL     1      -0.893  -1.018  26.867  0.00  0.00    -0.388 OA
ATOM     25  H   UNL     1      -0.694  -1.942  27.096  0.00  0.00    +0.210 HD
ENDBRANCH   9   2
BRANCH   7   4
ATOM      4  N   UNL     1       0.600   0.391  24.487  0.00  0.00    -0.306 NA
ATOM     24  H   UNL     1       1.042   0.500  23.575  0.00  0.00    +0.123 HD
BRANCH   4   8
ATOM      5  N   UNL     1      -1.006   4.283  25.068  0.00  0.00    -0.305 NA
ATOM      8  C   UNL     1      -0.389   1.446  24.692  0.00  0.00    +0.056 C 
ATOM     11  C   UNL     1      -0.333   2.455  23.541  0.00  0.00    +0.034 C 
ATOM     12  C   UNL     1      -0.155   2.164  26.025  0.00  0.00    +0.034 C 
ATOM     14  C   UNL     1      -1.294   3.622  23.787  0.00  0.00    +0.085 C 
ATOM     15  C   UNL     1      -1.121   3.341  26.191  0.00  0.00    +0.085 C 
ATOM     17  C   UNL     1      -1.897   5.425  25.265  0.00  0.00    +0.104 C 
ENDBRANCH   4   8
ENDBRANCH   7   4
BRANCH  10  16
ATOM     16  C   UNL     1      -3.401  -2.261  25.284  0.00  0.00    +0.138 C 
BRANCH  16   6
ATOM      3  O   UNL     1      -3.837   0.176  23.782  0.00  0.00    -0.276 OA
ATOM      6  N   UNL     1      -3.868  -0.992  25.792  0.00  0.00    -0.313 N 
ATOM     20  C   UNL     1      -4.047   0.125  24.992  0.00  0.00    +0.214 C 
ATOM     26  H   UNL     1      -4.080  -0.933  26.783  0.00  0.00    +0.149 HD
BRANCH  20  19
ATOM     19  C   UNL     1      -4.539   1.338  25.766  0.00  0.00    +0.102 C 
BRANCH  19  18
ATOM     18  C   UNL     1      -5.236   2.417  24.904  0.00  0.00    -0.029 C 
ATOM     21  C   UNL     1      -4.450   2.685  23.610  0.00  0.00    +0.011 C 
ATOM     22  C   UNL     1      -6.636   1.894  24.525  0.00  0.00    +0.011 C 
ATOM     23  C   UNL     1      -5.404   3.735  25.679  0.00  0.00    +0.011 C 
ENDBRANCH  19  18
ENDBRANCH  20  19
ENDBRANCH  16   6
ENDBRANCH  10  16
TORSDOF 7
ENDMDL
MODEL 5
REMARK VINA RESULT:      -3.7      2.570      6.606
REMARK  Name = 75536808
REMARK  11 active torsions:
REMARK  status: ('A' for Active; 'I' for Inactive)
REMARK    1  A    between atoms: O_2  and  C_9
REMARK    2  A    between atoms: N_4  and  C_7
REMARK    3  A    between atoms: N_4  and  C_8
REMARK    4  A    between atoms: N_5  and  C_17
REMARK    5  A    between atoms: N_6  and  C_16
REMARK    6  A    between atoms: C_10  and  C_16
REMARK    7  A    between atoms: C_18  and  C_19
REMARK    8  A    between atoms: C_18  and  C_21
REMARK    9  A    between atoms: C_18  and  C_22
REMARK   10  A    between atoms: C_18  and  C_23
REMARK   11  A    between atoms: C_19  and  C_20
REMARK                            x       y       z     vdW  Elec       q    Type
REMARK                         _______ _______ _______ _____ _____    ______ ____
ROOT
ATOM      1  O   UNL     1      -1.612  -2.414  24.544  0.00  0.00    -0.371 OA
ATOM      7  C   UNL     1       0.051  -0.767  24.142  0.00  0.00    +0.111 C 
ATOM      9  C   UNL     1      -1.002  -0.191  25.070  0.00  0.00    +0.164 C 
ATOM     10  C   UNL     1      -1.637  -1.461  25.619  0.00  0.00    +0.165 C 
ATOM     13  C   UNL     1      -0.692  -1.950  23.540  0.00  0.00    +0.181 C 
ENDROOT
BRANCH   9   2
ATOM      2  O   UNL     1      -0.447   0.608  26.096  0.00  0.00    -0.388 OA
ATOM     25  H   UNL     1      -1.170   1.083  26.539  0.00  0.00    +0.210 HD
ENDBRANCH   9   2
BRANCH   7   4
ATOM      4  N   UNL     1       0.524   0.173  23.138  0.00  0.00    -0.306 NA
ATOM     24  H   UNL     1       0.396   1.130  23.466  0.00  0.00    +0.123 HD
BRANCH   4   8
ATOM      5  N   UNL     1       4.743   0.017  23.624  0.00  0.00    -0.305 NA
ATOM      8  C   UNL     1       1.930  -0.061  22.820  0.00  0.00    +0.056 C 
ATOM     11  C   UNL     1       2.531  -1.080  23.791  0.00  0.00    +0.034 C 
ATOM     12  C   UNL     1       2.729   1.245  22.875  0.00  0.00    +0.034 C 
ATOM     14  C   UNL     1       4.030  -1.265  23.535  0.00  0.00    +0.085 C 
ATOM     15  C   UNL     1       4.221   0.986  22.650  0.00  0.00    +0.085 C 
ATOM     17  C   UNL     1       6.178  -0.182  23.428  0.00  0.00    +0.104 C 
ENDBRANCH   4   8
ENDBRANCH   7   4
BRANCH  10  16
ATOM     16  C   UNL     1      -3.064  -1.262  26.096  0.00  0.00    +0.138 C 
BRANCH  16   6
ATOM      3  O   UNL     1      -4.741  -0.475  23.870  0.00  0.00    -0.276 OA
ATOM      6  N   UNL     1      -3.545   0.065  25.789  0.00  0.00    -0.313 N 
ATOM     20  C   UNL     1      -4.347   0.346  24.695  0.00  0.00    +0.214 C 
ATOM     26  H   UNL     1      -3.282   0.816  26.419  0.00  0.00    +0.149 HD
BRANCH  20  19
ATOM     19  C   UNL     1      -4.712   1.818  24.589  0.00  0.00    +0.102 C 
BRANCH  19  18
ATOM     18  C   UNL     1      -3.590   2.724  24.028  0.00  0.00    -0.029 C 
ATOM     21  C   UNL     1      -4.167   4.023  23.442  0.00  0.00    +0.011 C 
ATOM     22  C   UNL     1      -2.647   3.091  25.191  0.00  0.00    +0.011 C 
ATOM     23  C   UNL     1      -2.769   2.000  22.947  0.00  0.00    +0.011 C 
ENDBRANCH  19  18
ENDBRANCH  20  19
ENDBRANCH  16   6
ENDBRANCH  10  16
TORSDOF 7
ENDMDL
MODEL 6
REMARK VINA RESULT:      -3.5     16.213     19.137
REMARK  Name = 75536808
REMARK  11 active torsions:
REMARK  status: ('A' for Active; 'I' for Inactive)
REMARK    1  A    between atoms: O_2  and  C_9
REMARK    2  A    between atoms: N_4  and  C_7
REMARK    3  A    between atoms: N_4  and  C_8
REMARK    4  A    between atoms: N_5  and  C_17
REMARK    5  A    between atoms: N_6  and  C_16
REMARK    6  A    between atoms: C_10  and  C_16
REMARK    7  A    between atoms: C_18  and  C_19
REMARK    8  A    between atoms: C_18  and  C_21
REMARK    9  A    between atoms: C_18  and  C_22
REMARK   10  A    between atoms: C_18  and  C_23
REMARK   11  A    between atoms: C_19  and  C_20
REMARK                            x       y       z     vdW  Elec       q    Type
REMARK                         _______ _______ _______ _____ _____    ______ ____
ROOT
ATOM      1  O   UNL     1      12.739  -5.761  30.948  0.00  0.00    -0.371 OA
ATOM      7  C   UNL     1      14.157  -7.596  30.433  0.00  0.00    +0.111 C 
ATOM      9  C   UNL     1      13.314  -7.947  31.644  0.00  0.00    +0.164 C 
ATOM     10  C   UNL     1      12.165  -6.958  31.499  0.00  0.00    +0.165 C 
ATOM     13  C   UNL     1      14.035  -6.080  30.410  0.00  0.00    +0.181 C 
ENDROOT
BRANCH   9   2
ATOM      2  O   UNL     1      12.861  -9.287  31.624  0.00  0.00    -0.388 OA
ATOM     25  H   UNL     1      13.535  -9.830  31.180  0.00  0.00    +0.210 HD
ENDBRANCH   9   2
BRANCH   7   4
ATOM      4  N   UNL     1      15.535  -8.050  30.529  0.00  0.00    -0.306 NA
ATOM     24  H   UNL     1      15.652  -8.648  31.346  0.00  0.00    +0.123 HD
BRANCH   4   8
ATOM      5  N   UNL     1      15.512  -9.376  26.491  0.00  0.00    -0.305 NA
ATOM      8  C   UNL     1      15.937  -8.769  29.323  0.00  0.00    +0.056 C 
ATOM     11  C   UNL     1      16.299  -7.780  28.212  0.00  0.00    +0.034 C 
ATOM     12  C   UNL     1      14.821  -9.703  28.845  0.00  0.00    +0.034 C 
ATOM     14  C   UNL     1      16.628  -8.514  26.909  0.00  0.00    +0.085 C 
ATOM     15  C   UNL     1      15.197 -10.375  27.522  0.00  0.00    +0.085 C 
ATOM     17  C   UNL     1      15.820 -10.031  25.221  0.00  0.00    +0.104 C 
ENDBRANCH   4   8
ENDBRANCH   7   4
BRANCH  10  16
ATOM     16  C   UNL     1      11.477  -6.639  32.814  0.00  0.00    +0.138 C 
BRANCH  16   6
ATOM      3  O   UNL     1      10.370  -9.314  32.873  0.00  0.00    -0.276 OA
ATOM      6  N   UNL     1      10.081  -7.009  32.785  0.00  0.00    -0.313 N 
ATOM     20  C   UNL     1       9.644  -8.324  32.817  0.00  0.00    +0.214 C 
ATOM     26  H   UNL     1       9.398  -6.259  32.748  0.00  0.00    +0.149 HD
BRANCH  20  19
ATOM     19  C   UNL     1       8.130  -8.448  32.768  0.00  0.00    +0.102 C 
BRANCH  19  18
ATOM     18  C   UNL     1       7.602  -9.551  31.820  0.00  0.00    -0.029 C 
ATOM     21  C   UNL     1       8.734 -10.494  31.383  0.00  0.00    +0.011 C 
ATOM     22  C   UNL     1       6.548 -10.374  32.586  0.00  0.00    +0.011 C 
ATOM     23  C   UNL     1       6.933  -8.948  30.573  0.00  0.00    +0.011 C 
ENDBRANCH  19  18
ENDBRANCH  20  19
ENDBRANCH  16   6
ENDBRANCH  10  16
TORSDOF 7
ENDMDL
MODEL 7
REMARK VINA RESULT:      -3.3      1.800      4.516
REMARK  Name = 75536808
REMARK  11 active torsions:
REMARK  status: ('A' for Active; 'I' for Inactive)
REMARK    1  A    between atoms: O_2  and  C_9
REMARK    2  A    between atoms: N_4  and  C_7
REMARK    3  A    between atoms: N_4  and  C_8
REMARK    4  A    between atoms: N_5  and  C_17
REMARK    5  A    between atoms: N_6  and  C_16
REMARK    6  A    between atoms: C_10  and  C_16
REMARK    7  A    between atoms: C_18  and  C_19
REMARK    8  A    between atoms: C_18  and  C_21
REMARK    9  A    between atoms: C_18  and  C_22
REMARK   10  A    between atoms: C_18  and  C_23
REMARK   11  A    between atoms: C_19  and  C_20
REMARK                            x       y       z     vdW  Elec       q    Type
REMARK                         _______ _______ _______ _____ _____    ______ ____
ROOT
ATOM      1  O   UNL     1      -0.594   3.526  25.760  0.00  0.00    -0.371 OA
ATOM      7  C   UNL     1      -0.095   1.224  26.065  0.00  0.00    +0.111 C 
ATOM      9  C   UNL     1      -0.247   1.505  24.581  0.00  0.00    +0.164 C 
ATOM     10  C   UNL     1      -0.026   3.011  24.544  0.00  0.00    +0.165 C 
ATOM     13  C   UNL     1      -0.790   2.432  26.673  0.00  0.00    +0.181 C 
ENDROOT
BRANCH   9   2
ATOM      2  O   UNL     1       0.703   0.813  23.795  0.00  0.00    -0.388 OA
ATOM     25  H   UNL     1       0.274   0.537  22.968  0.00  0.00    +0.210 HD
ENDBRANCH   9   2
BRANCH   7   4
ATOM      4  N   UNL     1      -0.685  -0.037  26.484  0.00  0.00    -0.306 NA
ATOM     24  H   UNL     1      -1.219   0.093  27.343  0.00  0.00    +0.123 HD
BRANCH   4   8
ATOM      5  N   UNL     1      -3.459  -2.622  24.564  0.00  0.00    -0.305 NA
ATOM      8  C   UNL     1      -1.547  -0.587  25.440  0.00  0.00    +0.056 C 
ATOM     11  C   UNL     1      -3.006  -0.592  25.905  0.00  0.00    +0.034 C 
ATOM     12  C   UNL     1      -1.115  -2.009  25.066  0.00  0.00    +0.034 C 
ATOM     14  C   UNL     1      -3.911  -1.256  24.863  0.00  0.00    +0.085 C 
ATOM     15  C   UNL     1      -2.081  -2.628  24.053  0.00  0.00    +0.085 C 
ATOM     17  C   UNL     1      -4.362  -3.261  23.607  0.00  0.00    +0.104 C 
ENDBRANCH   4   8
ENDBRANCH   7   4
BRANCH  10  16
ATOM     16  C   UNL     1      -0.675   3.684  23.349  0.00  0.00    +0.138 C 
BRANCH  16   6
ATOM      3  O   UNL     1      -2.858   1.817  22.981  0.00  0.00    -0.276 OA
ATOM      6  N   UNL     1      -2.081   3.926  23.576  0.00  0.00    -0.313 N 
ATOM     20  C   UNL     1      -3.059   2.965  23.371  0.00  0.00    +0.214 C 
ATOM     26  H   UNL     1      -2.351   4.846  23.911  0.00  0.00    +0.149 HD
BRANCH  20  19
ATOM     19  C   UNL     1      -4.460   3.470  23.674  0.00  0.00    +0.102 C 
BRANCH  19  18
ATOM     18  C   UNL     1      -4.951   3.191  25.115  0.00  0.00    -0.029 C 
ATOM     21  C   UNL     1      -5.911   4.292  25.595  0.00  0.00    +0.011 C 
ATOM     22  C   UNL     1      -5.711   1.850  25.109  0.00  0.00    +0.011 C 
ATOM     23  C   UNL     1      -3.775   3.078  26.099  0.00  0.00    +0.011 C 
ENDBRANCH  19  18
ENDBRANCH  20  19
ENDBRANCH  16   6
ENDBRANCH  10  16
TORSDOF 7
ENDMDL
MODEL 8
REMARK VINA RESULT:      -3.1      1.770      2.904
REMARK  Name = 75536808
REMARK  11 active torsions:
REMARK  status: ('A' for Active; 'I' for Inactive)
REMARK    1  A    between atoms: O_2  and  C_9
REMARK    2  A    between atoms: N_4  and  C_7
REMARK    3  A    between atoms: N_4  and  C_8
REMARK    4  A    between atoms: N_5  and  C_17
REMARK    5  A    between atoms: N_6  and  C_16
REMARK    6  A    between atoms: C_10  and  C_16
REMARK    7  A    between atoms: C_18  and  C_19
REMARK    8  A    between atoms: C_18  and  C_21
REMARK    9  A    between atoms: C_18  and  C_22
REMARK   10  A    between atoms: C_18  and  C_23
REMARK   11  A    between atoms: C_19  and  C_20
REMARK                            x       y       z     vdW  Elec       q    Type
REMARK                         _______ _______ _______ _____ _____    ______ ____
ROOT
ATOM      1  O   UNL     1       0.686  -0.635  23.255  0.00  0.00    -0.371 OA
ATOM      7  C   UNL     1       0.402   1.408  24.432  0.00  0.00    +0.111 C 
ATOM      9  C   UNL     1      -0.575   0.383  24.977  0.00  0.00    +0.164 C 
ATOM     10  C   UNL     1       0.081  -0.915  24.527  0.00  0.00    +0.165 C 
ATOM     13  C   UNL     1       0.768   0.792  23.091  0.00  0.00    +0.181 C 
ENDROOT
BRANCH   9   2
ATOM      2  O   UNL     1      -0.706   0.449  26.383  0.00  0.00    -0.388 OA
ATOM     25  H   UNL     1      -1.616   0.722  26.593  0.00  0.00    +0.210 HD
ENDBRANCH   9   2
BRANCH   7   4
ATOM      4  N   UNL     1      -0.162   2.743  24.305  0.00  0.00    -0.306 NA
ATOM     24  H   UNL     1      -0.055   3.079  23.348  0.00  0.00    +0.123 HD
BRANCH   4   8
ATOM      5  N   UNL     1      -4.051   4.250  25.120  0.00  0.00    -0.305 NA
ATOM      8  C   UNL     1      -1.573   2.756  24.682  0.00  0.00    +0.056 C 
ATOM     11  C   UNL     1      -2.427   3.279  23.524  0.00  0.00    +0.034 C 
ATOM     12  C   UNL     1      -1.799   3.618  25.928  0.00  0.00    +0.034 C 
ATOM     14  C   UNL     1      -3.898   3.394  23.935  0.00  0.00    +0.085 C 
ATOM     15  C   UNL     1      -3.290   3.722  26.261  0.00  0.00    +0.085 C 
ATOM     17  C   UNL     1      -5.464   4.391  25.469  0.00  0.00    +0.104 C 
ENDBRANCH   4   8
ENDBRANCH   7   4
BRANCH  10  16
ATOM     16  C   UNL     1      -0.897  -2.067  24.388  0.00  0.00    +0.138 C 
BRANCH  16   6
ATOM      3  O   UNL     1      -3.350  -3.549  24.808  0.00  0.00    -0.276 OA
ATOM      6  N   UNL     1      -2.250  -1.593  24.203  0.00  0.00    -0.313 N 
ATOM     20  C   UNL     1      -3.367  -2.380  24.431  0.00  0.00    +0.214 C 
ATOM     26  H   UNL     1      -2.372  -0.631  23.900  0.00  0.00    +0.149 HD
BRANCH  20  19
ATOM     19  C   UNL     1      -4.673  -1.651  24.156  0.00  0.00    +0.102 C 
BRANCH  19  18
ATOM     18  C   UNL     1      -4.645  -0.135  24.465  0.00  0.00    -0.029 C 
ATOM     21  C   UNL     1      -3.994   0.140  25.830  0.00  0.00    +0.011 C 
ATOM     22  C   UNL     1      -3.806   0.559  23.374  0.00  0.00    +0.011 C 
ATOM     23  C   UNL     1      -6.060   0.469  24.447  0.00  0.00    +0.011 C 
ENDBRANCH  19  18
ENDBRANCH  20  19
ENDBRANCH  16   6
ENDBRANCH  10  16
TORSDOF 7
ENDMDL
MODEL 9
REMARK VINA RESULT:      -3.0     18.726     20.437
REMARK  Name = 75536808
REMARK  11 active torsions:
REMARK  status: ('A' for Active; 'I' for Inactive)
REMARK    1  A    between atoms: O_2  and  C_9
REMARK    2  A    between atoms: N_4  and  C_7
REMARK    3  A    between atoms: N_4  and  C_8
REMARK    4  A    between atoms: N_5  and  C_17
REMARK    5  A    between atoms: N_6  and  C_16
REMARK    6  A    between atoms: C_10  and  C_16
REMARK    7  A    between atoms: C_18  and  C_19
REMARK    8  A    between atoms: C_18  and  C_21
REMARK    9  A    between atoms: C_18  and  C_22
REMARK   10  A    between atoms: C_18  and  C_23
REMARK   11  A    between atoms: C_19  and  C_20
REMARK                            x       y       z     vdW  Elec       q    Type
REMARK                         _______ _______ _______ _____ _____    ______ ____
ROOT
ATOM      1  O   UNL     1      16.214  -4.868  31.512  0.00  0.00    -0.371 OA
ATOM      7  C   UNL     1      16.386  -5.719  29.302  0.00  0.00    +0.111 C 
ATOM      9  C   UNL     1      15.958  -6.839  30.231  0.00  0.00    +0.164 C 
ATOM     10  C   UNL     1      15.402  -6.048  31.407  0.00  0.00    +0.165 C 
ATOM     13  C   UNL     1      16.951  -4.709  30.287  0.00  0.00    +0.181 C 
ENDROOT
BRANCH   9   2
ATOM      2  O   UNL     1      14.982  -7.684  29.655  0.00  0.00    -0.388 OA
ATOM     25  H   UNL     1      14.668  -7.272  28.832  0.00  0.00    +0.210 HD
ENDBRANCH   9   2
BRANCH   7   4
ATOM      4  N   UNL     1      17.353  -6.130  28.297  0.00  0.00    -0.306 NA
ATOM     24  H   UNL     1      17.564  -7.123  28.398  0.00  0.00    +0.123 HD
BRANCH   4   8
ATOM      5  N   UNL     1      17.405  -5.301  24.129  0.00  0.00    -0.305 NA
ATOM      8  C   UNL     1      16.858  -5.861  26.949  0.00  0.00    +0.056 C 
ATOM     11  C   UNL     1      17.343  -6.943  25.980  0.00  0.00    +0.034 C 
ATOM     12  C   UNL     1      17.317  -4.482  26.463  0.00  0.00    +0.034 C 
ATOM     14  C   UNL     1      16.917  -6.624  24.544  0.00  0.00    +0.085 C 
ATOM     15  C   UNL     1      16.893  -4.243  25.011  0.00  0.00    +0.085 C 
ATOM     17  C   UNL     1      17.035  -5.032  22.740  0.00  0.00    +0.104 C 
ENDBRANCH   4   8
ENDBRANCH   7   4
BRANCH  10  16
ATOM     16  C   UNL     1      15.437  -6.814  32.717  0.00  0.00    +0.138 C 
BRANCH  16   6
ATOM      3  O   UNL     1      15.270  -9.643  32.117  0.00  0.00    -0.276 OA
ATOM      6  N   UNL     1      14.284  -7.673  32.860  0.00  0.00    -0.313 N 
ATOM     20  C   UNL     1      14.299  -9.022  32.546  0.00  0.00    +0.214 C 
ATOM     26  H   UNL     1      13.431  -7.256  33.218  0.00  0.00    +0.149 HD
BRANCH  20  19
ATOM     19  C   UNL     1      12.959  -9.701  32.777  0.00  0.00    +0.102 C 
BRANCH  19  18
ATOM     18  C   UNL     1      11.973  -9.608  31.588  0.00  0.00    -0.029 C 
ATOM     21  C   UNL     1      11.744  -8.145  31.173  0.00  0.00    +0.011 C 
ATOM     22  C   UNL     1      12.590 -10.363  30.395  0.00  0.00    +0.011 C 
ATOM     23  C   UNL     1      10.620 -10.257  31.926  0.00  0.00    +0.011 C 
ENDBRANCH  19  18
ENDBRANCH  20  19
ENDBRANCH  16   6
ENDBRANCH  10  16
TORSDOF 7
ENDMDL
MODEL 10
REMARK VINA RESULT:      -3.0      2.455      6.155
REMARK  Name = 75536808
REMARK  11 active torsions:
REMARK  status: ('A' for Active; 'I' for Inactive)
REMARK    1  A    between atoms: O_2  and  C_9
REMARK    2  A    between atoms: N_4  and  C_7
REMARK    3  A    between atoms: N_4  and  C_8
REMARK    4  A    between atoms: N_5  and  C_17
REMARK    5  A    between atoms: N_6  and  C_16
REMARK    6  A    between atoms: C_10  and  C_16
REMARK    7  A    between atoms: C_18  and  C_19
REMARK    8  A    between atoms: C_18  and  C_21
REMARK    9  A    between atoms: C_18  and  C_22
REMARK   10  A    between atoms: C_18  and  C_23
REMARK   11  A    between atoms: C_19  and  C_20
REMARK                            x       y       z     vdW  Elec       q    Type
REMARK                         _______ _______ _______ _____ _____    ______ ____
ROOT
ATOM      1  O   UNL     1      -4.802   2.528  23.745  0.00  0.00    -0.371 OA
ATOM      7  C   UNL     1      -5.329   0.554  24.955  0.00  0.00    +0.111 C 
ATOM      9  C   UNL     1      -5.525   1.756  25.860  0.00  0.00    +0.164 C 
ATOM     10  C   UNL     1      -5.671   2.874  24.836  0.00  0.00    +0.165 C 
ATOM     13  C   UNL     1      -4.448   1.139  23.863  0.00  0.00    +0.181 C 
ENDROOT
BRANCH   9   2
ATOM      2  O   UNL     1      -6.670   1.640  26.681  0.00  0.00    -0.388 OA
ATOM     25  H   UNL     1      -7.459   1.714  26.118  0.00  0.00    +0.210 HD
ENDBRANCH   9   2
BRANCH   7   4
ATOM      4  N   UNL     1      -4.721  -0.586  25.622  0.00  0.00    -0.306 NA
ATOM     24  H   UNL     1      -5.292  -1.420  25.481  0.00  0.00    +0.123 HD
BRANCH   4   8
ATOM      5  N   UNL     1      -0.753  -2.100  25.456  0.00  0.00    -0.305 NA
ATOM      8  C   UNL     1      -3.366  -0.821  25.130  0.00  0.00    +0.056 C 
ATOM     11  C   UNL     1      -3.148  -2.314  24.867  0.00  0.00    +0.034 C 
ATOM     12  C   UNL     1      -2.325  -0.311  26.132  0.00  0.00    +0.034 C 
ATOM     14  C   UNL     1      -1.702  -2.591  24.446  0.00  0.00    +0.085 C 
ATOM     15  C   UNL     1      -0.905  -0.654  25.671  0.00  0.00    +0.085 C 
ATOM     17  C   UNL     1       0.620  -2.417  25.065  0.00  0.00    +0.104 C 
ENDBRANCH   4   8
ENDBRANCH   7   4
BRANCH  10  16
ATOM     16  C   UNL     1      -5.294   4.240  25.380  0.00  0.00    +0.138 C 
BRANCH  16   6
ATOM      3  O   UNL     1      -2.948   3.746  27.005  0.00  0.00    -0.276 OA
ATOM      6  N   UNL     1      -3.925   4.576  25.066  0.00  0.00    -0.313 N 
ATOM     20  C   UNL     1      -2.863   4.298  25.910  0.00  0.00    +0.214 C 
ATOM     26  H   UNL     1      -3.746   5.029  24.175  0.00  0.00    +0.149 HD
BRANCH  20  19
ATOM     19  C   UNL     1      -1.525   4.759  25.354  0.00  0.00    +0.102 C 
BRANCH  19  18
ATOM     18  C   UNL     1      -0.645   3.630  24.765  0.00  0.00    -0.029 C 
ATOM     21  C   UNL     1      -1.498   2.609  23.996  0.00  0.00    +0.011 C 
ATOM     22  C   UNL     1       0.356   4.269  23.782  0.00  0.00    +0.011 C 
ATOM     23  C   UNL     1       0.149   2.904  25.864  0.00  0.00    +0.011 C 
ENDBRANCH  19  18
ENDBRANCH  20  19
ENDBRANCH  16   6
ENDBRANCH  10  16
TORSDOF 7
ENDMDL
