MODEL 1
REMARK VINA RESULT:      -2.5      0.000      0.000
REMARK  Name = 7134512
REMARK  13 active torsions:
REMARK  status: ('A' for Active; 'I' for Inactive)
REMARK    1  A    between atoms: O_2  and  C_12
REMARK    2  A    between atoms: O_3  and  C_15
REMARK    3  A    between atoms: O_4  and  C_17
REMARK    4  A    between atoms: O_8  and  C_32
REMARK    5  A    between atoms: O_8  and  C_34
REMARK    6  A    between atoms: N_9  and  C_13
REMARK    7  A    between atoms: N_10  and  C_20
REMARK    8  A    between atoms: C_12  and  C_18
REMARK    9  A    between atoms: C_19  and  C_22
REMARK   10  A    between atoms: C_20  and  C_21
REMARK   11  A    between atoms: C_20  and  C_23
REMARK   12  A    between atoms: C_21  and  C_24
REMARK   13  A    between atoms: C_22  and  C_25
REMARK                            x       y       z     vdW  Elec       q    Type
REMARK                         _______ _______ _______ _____ _____    ______ ____
ROOT
ATOM     12  C   UNL     1      -1.868   3.399  24.930  0.00  0.00    +0.146 C 
ATOM     13  C   UNL     1       0.490   2.564  24.480  0.00  0.00    +0.107 C 
ATOM     14  C   UNL     1      -0.963   2.596  23.993  0.00  0.00    +0.069 C 
ATOM     15  C   UNL     1       0.596   2.077  25.931  0.00  0.00    +0.163 C 
ATOM     16  C   UNL     1      -1.768   2.891  26.367  0.00  0.00    +0.078 C 
ATOM     17  C   UNL     1      -0.323   2.863  26.869  0.00  0.00    +0.148 C 
ENDROOT
BRANCH  12  18
ATOM      5  O   UNL     1      -3.745   4.174  23.673  0.00  0.00    -0.273 OA
ATOM     10  N   UNL     1      -3.995   2.301  25.033  0.00  0.00    -0.301 N 
ATOM     18  C   UNL     1      -3.292   3.347  24.461  0.00  0.00    +0.246 C 
ATOM     39  H   UNL     1      -3.545   1.694  25.710  0.00  0.00    +0.150 HD
BRANCH  10  20
ATOM     20  C   UNL     1      -5.392   2.046  24.764  0.00  0.00    +0.163 C 
BRANCH  20  23
ATOM      7  O   UNL     1      -6.697   2.117  26.813  0.00  0.00    -0.274 OA
ATOM     11  N   UNL     1      -6.246   4.092  25.728  0.00  0.00    -0.328 N 
ATOM     23  C   UNL     1      -6.191   2.721  25.870  0.00  0.00    +0.231 C 
ATOM     40  H   UNL     1      -5.822   4.578  24.944  0.00  0.00    +0.145 HD
ATOM     41  H   UNL     1      -6.736   4.665  26.407  0.00  0.00    +0.145 HD
ENDBRANCH  20  23
BRANCH  20  21
ATOM     21  C   UNL     1      -5.710   0.547  24.711  0.00  0.00    +0.067 C 
BRANCH  21  24
ATOM     24  C   UNL     1      -4.483  -0.317  24.780  0.00  0.00    -0.045 A 
ATOM     26  C   UNL     1      -4.321  -1.353  23.868  0.00  0.00    +0.007 A 
ATOM     27  C   UNL     1      -3.524  -0.073  25.756  0.00  0.00    +0.007 A 
ATOM     29  C   UNL     1      -3.182  -2.156  23.933  0.00  0.00    +0.046 A 
ATOM     30  C   UNL     1      -2.386  -0.875  25.821  0.00  0.00    +0.046 A 
ATOM     32  C   UNL     1      -2.215  -1.917  24.910  0.00  0.00    +0.120 A 
BRANCH  32   8
ATOM      8  O   UNL     1      -1.103  -2.701  24.972  0.00  0.00    -0.495 OA
ATOM     34  C   UNL     1       0.031  -2.165  25.652  0.00  0.00    +0.277 C 
ENDBRANCH  32   8
ENDBRANCH  21  24
ENDBRANCH  20  21
ENDBRANCH  10  20
ENDBRANCH  12  18
BRANCH  13   9
ATOM      6  O   UNL     1      -0.248  -0.008  23.423  0.00  0.00    -0.275 OA
ATOM      9  N   UNL     1       1.281   1.729  23.603  0.00  0.00    -0.310 N 
ATOM     19  C   UNL     1       0.836   0.501  23.147  0.00  0.00    +0.218 C 
ATOM     35  H   UNL     1       2.222   2.034  23.370  0.00  0.00    +0.149 HD
BRANCH  19  22
ATOM     22  C   UNL     1       1.830  -0.182  22.227  0.00  0.00    +0.138 C 
BRANCH  22  25
ATOM      1  S   UNL     1       3.803  -1.409  23.717  0.00  0.00    -0.101 S 
ATOM     25  C   UNL     1       3.204  -0.087  22.830  0.00  0.00    -0.001 A 
ATOM     28  C   UNL     1       4.074   0.960  22.760  0.00  0.00    +0.011 A 
ATOM     31  C   UNL     1       5.282   0.675  23.459  0.00  0.00    +0.008 A 
ATOM     33  C   UNL     1       5.269  -0.579  24.027  0.00  0.00    +0.045 A 
ENDBRANCH  22  25
ENDBRANCH  19  22
ENDBRANCH  13   9
BRANCH  12   2
ATOM      2  O   UNL     1      -1.519   4.778  24.899  0.00  0.00    -0.379 OA
ATOM     36  H   UNL     1      -0.807   4.926  25.546  0.00  0.00    +0.211 HD
ENDBRANCH  12   2
BRANCH  15   3
ATOM      3  O   UNL     1       1.939   2.261  26.388  0.00  0.00    -0.387 OA
ATOM     37  H   UNL     1       2.274   3.084  25.995  0.00  0.00    +0.210 HD
ENDBRANCH  15   3
BRANCH  17   4
ATOM      4  O   UNL     1      -0.294   2.243  28.154  0.00  0.00    -0.389 OA
ATOM     38  H   UNL     1      -1.141   2.431  28.593  0.00  0.00    +0.210 HD
ENDBRANCH  17   4
TORSDOF 12
ENDMDL
MODEL 2
REMARK VINA RESULT:       0.7      1.727      4.519
REMARK  Name = 7134512
REMARK  13 active torsions:
REMARK  status: ('A' for Active; 'I' for Inactive)
REMARK    1  A    between atoms: O_2  and  C_12
REMARK    2  A    between atoms: O_3  and  C_15
REMARK    3  A    between atoms: O_4  and  C_17
REMARK    4  A    between atoms: O_8  and  C_32
REMARK    5  A    between atoms: O_8  and  C_34
REMARK    6  A    between atoms: N_9  and  C_13
REMARK    7  A    between atoms: N_10  and  C_20
REMARK    8  A    between atoms: C_12  and  C_18
REMARK    9  A    between atoms: C_19  and  C_22
REMARK   10  A    between atoms: C_20  and  C_21
REMARK   11  A    between atoms: C_20  and  C_23
REMARK   12  A    between atoms: C_21  and  C_24
REMARK   13  A    between atoms: C_22  and  C_25
REMARK                            x       y       z     vdW  Elec       q    Type
REMARK                         _______ _______ _______ _____ _____    ______ ____
ROOT
ATOM     12  C   UNL     1      -3.130  -0.251  24.933  0.00  0.00    +0.146 C 
ATOM     13  C   UNL     1      -1.050  -1.439  24.084  0.00  0.00    +0.107 C 
ATOM     14  C   UNL     1      -1.879  -0.150  24.057  0.00  0.00    +0.069 C 
ATOM     15  C   UNL     1      -1.896  -2.670  23.731  0.00  0.00    +0.163 C 
ATOM     16  C   UNL     1      -3.972  -1.469  24.559  0.00  0.00    +0.078 C 
ATOM     17  C   UNL     1      -3.159  -2.764  24.591  0.00  0.00    +0.148 C 
ENDROOT
BRANCH  12  18
ATOM      5  O   UNL     1      -4.957   1.175  25.512  0.00  0.00    -0.273 OA
ATOM     10  N   UNL     1      -3.456   1.874  23.875  0.00  0.00    -0.301 N 
ATOM     18  C   UNL     1      -3.953   1.000  24.826  0.00  0.00    +0.246 C 
ATOM     39  H   UNL     1      -2.641   1.622  23.326  0.00  0.00    +0.150 HD
BRANCH  10  20
ATOM     20  C   UNL     1      -4.079   3.141  23.563  0.00  0.00    +0.163 C 
BRANCH  20  23
ATOM      7  O   UNL     1      -4.508   4.221  21.429  0.00  0.00    -0.274 OA
ATOM     11  N   UNL     1      -2.901   2.582  21.528  0.00  0.00    -0.328 N 
ATOM     23  C   UNL     1      -3.886   3.379  22.072  0.00  0.00    +0.231 C 
ATOM     40  H   UNL     1      -2.393   1.890  22.071  0.00  0.00    +0.145 HD
ATOM     41  H   UNL     1      -2.662   2.650  20.544  0.00  0.00    +0.145 HD
ENDBRANCH  20  23
BRANCH  20  21
ATOM     21  C   UNL     1      -3.481   4.298  24.373  0.00  0.00    +0.067 C 
BRANCH  21  24
ATOM     24  C   UNL     1      -2.226   3.917  25.105  0.00  0.00    -0.045 A 
ATOM     26  C   UNL     1      -1.001   4.003  24.456  0.00  0.00    +0.007 A 
ATOM     27  C   UNL     1      -2.303   3.481  26.422  0.00  0.00    +0.007 A 
ATOM     29  C   UNL     1       0.166   3.648  25.135  0.00  0.00    +0.046 A 
ATOM     30  C   UNL     1      -1.138   3.127  27.101  0.00  0.00    +0.046 A 
ATOM     32  C   UNL     1       0.096   3.210  26.457  0.00  0.00    +0.120 A 
BRANCH  32   8
ATOM      8  O   UNL     1       1.234   2.865  27.119  0.00  0.00    -0.495 OA
ATOM     34  C   UNL     1       1.103   2.515  28.497  0.00  0.00    +0.277 C 
ENDBRANCH  32   8
ENDBRANCH  21  24
ENDBRANCH  20  21
ENDBRANCH  10  20
ENDBRANCH  12  18
BRANCH  13   9
ATOM      6  O   UNL     1       0.707   0.824  23.817  0.00  0.00    -0.275 OA
ATOM      9  N   UNL     1       0.072  -1.316  23.180  0.00  0.00    -0.310 N 
ATOM     19  C   UNL     1       0.862  -0.180  23.126  0.00  0.00    +0.218 C 
ATOM     35  H   UNL     1       0.241  -2.069  22.520  0.00  0.00    +0.149 HD
BRANCH  19  22
ATOM     22  C   UNL     1       1.987  -0.291  22.115  0.00  0.00    +0.138 C 
BRANCH  22  25
ATOM      1  S   UNL     1       3.884  -1.469  23.738  0.00  0.00    -0.101 S 
ATOM     25  C   UNL     1       3.303  -0.154  22.827  0.00  0.00    -0.001 A 
ATOM     28  C   UNL     1       4.133   0.928  22.844  0.00  0.00    +0.011 A 
ATOM     31  C   UNL     1       5.292   0.677  23.633  0.00  0.00    +0.008 A 
ATOM     33  C   UNL     1       5.285  -0.588  24.177  0.00  0.00    +0.045 A 
ENDBRANCH  22  25
ENDBRANCH  19  22
ENDBRANCH  13   9
BRANCH  12   2
ATOM      2  O   UNL     1      -2.770  -0.339  26.307  0.00  0.00    -0.379 OA
ATOM     36  H   UNL     1      -2.789   0.557  26.685  0.00  0.00    +0.211 HD
ENDBRANCH  12   2
BRANCH  15   3
ATOM      3  O   UNL     1      -1.123  -3.850  23.969  0.00  0.00    -0.387 OA
ATOM     37  H   UNL     1      -1.129  -4.375  23.151  0.00  0.00    +0.210 HD
ENDBRANCH  15   3
BRANCH  17   4
ATOM      4  O   UNL     1      -3.967  -3.828  24.090  0.00  0.00    -0.389 OA
ATOM     38  H   UNL     1      -4.408  -3.511  23.284  0.00  0.00    +0.210 HD
ENDBRANCH  17   4
TORSDOF 12
ENDMDL
MODEL 3
REMARK VINA RESULT:       1.3      1.583      2.027
REMARK  Name = 7134512
REMARK  13 active torsions:
REMARK  status: ('A' for Active; 'I' for Inactive)
REMARK    1  A    between atoms: O_2  and  C_12
REMARK    2  A    between atoms: O_3  and  C_15
REMARK    3  A    between atoms: O_4  and  C_17
REMARK    4  A    between atoms: O_8  and  C_32
REMARK    5  A    between atoms: O_8  and  C_34
REMARK    6  A    between atoms: N_9  and  C_13
REMARK    7  A    between atoms: N_10  and  C_20
REMARK    8  A    between atoms: C_12  and  C_18
REMARK    9  A    between atoms: C_19  and  C_22
REMARK   10  A    between atoms: C_20  and  C_21
REMARK   11  A    between atoms: C_20  and  C_23
REMARK   12  A    between atoms: C_21  and  C_24
REMARK   13  A    between atoms: C_22  and  C_25
REMARK                            x       y       z     vdW  Elec       q    Type
REMARK                         _______ _______ _______ _____ _____    ______ ____
ROOT
ATOM     12  C   UNL     1      -2.338   2.797  24.245  0.00  0.00    +0.146 C 
ATOM     13  C   UNL     1      -0.087   1.768  23.670  0.00  0.00    +0.107 C 
ATOM     14  C   UNL     1      -1.425   1.578  24.392  0.00  0.00    +0.069 C 
ATOM     15  C   UNL     1       0.616   3.061  24.102  0.00  0.00    +0.163 C 
ATOM     16  C   UNL     1      -1.633   4.075  24.696  0.00  0.00    +0.078 C 
ATOM     17  C   UNL     1      -0.299   4.282  23.977  0.00  0.00    +0.148 C 
ENDROOT
BRANCH  12  18
ATOM      5  O   UNL     1      -3.666   2.818  26.230  0.00  0.00    -0.273 OA
ATOM     10  N   UNL     1      -4.646   2.153  24.226  0.00  0.00    -0.301 N 
ATOM     18  C   UNL     1      -3.607   2.605  25.022  0.00  0.00    +0.246 C 
ATOM     39  H   UNL     1      -4.490   1.965  23.241  0.00  0.00    +0.150 HD
BRANCH  10  20
ATOM     20  C   UNL     1      -5.968   1.868  24.737  0.00  0.00    +0.163 C 
BRANCH  20  23
ATOM      7  O   UNL     1      -6.280   4.072  25.711  0.00  0.00    -0.274 OA
ATOM     11  N   UNL     1      -6.467   2.232  27.074  0.00  0.00    -0.328 N 
ATOM     23  C   UNL     1      -6.233   2.854  25.865  0.00  0.00    +0.231 C 
ATOM     40  H   UNL     1      -6.426   1.224  27.187  0.00  0.00    +0.145 HD
ATOM     41  H   UNL     1      -6.671   2.774  27.907  0.00  0.00    +0.145 HD
ENDBRANCH  20  23
BRANCH  20  21
ATOM     21  C   UNL     1      -6.097   0.426  25.243  0.00  0.00    +0.067 C 
BRANCH  21  24
ATOM     24  C   UNL     1      -4.838  -0.375  25.064  0.00  0.00    -0.045 A 
ATOM     26  C   UNL     1      -3.956  -0.513  26.128  0.00  0.00    +0.007 A 
ATOM     27  C   UNL     1      -4.569  -0.967  23.836  0.00  0.00    +0.007 A 
ATOM     29  C   UNL     1      -2.787  -1.256  25.962  0.00  0.00    +0.046 A 
ATOM     30  C   UNL     1      -3.401  -1.709  23.669  0.00  0.00    +0.046 A 
ATOM     32  C   UNL     1      -2.509  -1.854  24.732  0.00  0.00    +0.120 A 
BRANCH  32   8
ATOM      8  O   UNL     1      -1.369  -2.579  24.571  0.00  0.00    -0.495 OA
ATOM     34  C   UNL     1      -0.297  -2.312  25.474  0.00  0.00    +0.277 C 
ENDBRANCH  32   8
ENDBRANCH  21  24
ENDBRANCH  20  21
ENDBRANCH  10  20
ENDBRANCH  12  18
BRANCH  13   9
ATOM      6  O   UNL     1       1.071   0.038  21.683  0.00  0.00    -0.275 OA
ATOM      9  N   UNL     1       0.763   0.622  23.909  0.00  0.00    -0.310 N 
ATOM     19  C   UNL     1       1.273  -0.152  22.881  0.00  0.00    +0.218 C 
ATOM     35  H   UNL     1       0.934   0.343  24.871  0.00  0.00    +0.149 HD
BRANCH  19  22
ATOM     22  C   UNL     1       2.150  -1.286  23.375  0.00  0.00    +0.138 C 
BRANCH  22  25
ATOM      1  S   UNL     1       3.961   0.728  22.845  0.00  0.00    -0.101 S 
ATOM     25  C   UNL     1       3.569  -0.801  23.481  0.00  0.00    -0.001 A 
ATOM     28  C   UNL     1       4.630  -1.447  24.041  0.00  0.00    +0.011 A 
ATOM     31  C   UNL     1       5.817  -0.664  23.949  0.00  0.00    +0.008 A 
ATOM     33  C   UNL     1       5.596   0.542  23.322  0.00  0.00    +0.045 A 
ENDBRANCH  22  25
ENDBRANCH  19  22
ENDBRANCH  13   9
BRANCH  12   2
ATOM      2  O   UNL     1      -2.753   2.949  22.892  0.00  0.00    -0.379 OA
ATOM     36  H   UNL     1      -3.519   3.548  22.874  0.00  0.00    +0.211 HD
ENDBRANCH  12   2
BRANCH  15   3
ATOM      3  O   UNL     1       1.748   3.282  23.256  0.00  0.00    -0.387 OA
ATOM     37  H   UNL     1       1.612   4.128  22.797  0.00  0.00    +0.210 HD
ENDBRANCH  15   3
BRANCH  17   4
ATOM      4  O   UNL     1       0.365   5.406  24.553  0.00  0.00    -0.389 OA
ATOM     38  H   UNL     1       1.270   5.428  24.199  0.00  0.00    +0.210 HD
ENDBRANCH  17   4
TORSDOF 12
ENDMDL
