MODEL 1
REMARK VINA RESULT:      -2.9      0.000      0.000
REMARK  Name = 75367637
REMARK  3 active torsions:
REMARK  status: ('A' for Active; 'I' for Inactive)
REMARK    1  A    between atoms: O_2  and  C_9
REMARK    2  A    between atoms: O_2  and  C_18
REMARK    3  A    between atoms: C_20  and  C_23
REMARK                            x       y       z     vdW  Elec       q    Type
REMARK                         _______ _______ _______ _____ _____    ______ ____
ROOT
ATOM      1  O   UNL     1      -0.146  -1.507  25.306  0.00  0.00    -0.375 OA
ATOM      3  O   UNL     1      -5.706   2.951  25.470  0.00  0.00    -0.377 OA
ATOM      4  O   UNL     1      -1.063   3.483  23.747  0.00  0.00    -0.252 OA
ATOM      5  N   UNL     1      -1.062   1.313  24.555  0.00  0.00    -0.280 N 
ATOM      6  N   UNL     1      -3.035   2.669  24.616  0.00  0.00    -0.281 N 
ATOM      8  C   UNL     1       0.261   1.037  23.979  0.00  0.00    +0.156 C 
ATOM      9  C   UNL     1       0.250  -0.261  23.172  0.00  0.00    +0.218 C 
ATOM     10  C   UNL     1      -1.481   0.459  25.678  0.00  0.00    +0.137 C 
ATOM     11  C   UNL     1      -1.680   2.546  24.272  0.00  0.00    +0.305 C 
ATOM     12  C   UNL     1       0.451  -1.520  24.017  0.00  0.00    +0.206 C 
ATOM     13  C   UNL     1      -3.563   3.981  24.985  0.00  0.00    +0.137 C 
ATOM     14  C   UNL     1      -4.066   1.718  24.188  0.00  0.00    +0.137 C 
ATOM     15  C   UNL     1      -1.485  -1.029  25.348  0.00  0.00    +0.179 C 
ATOM     16  C   UNL     1      -4.700   3.826  25.987  0.00  0.00    +0.179 C 
ATOM     17  C   UNL     1      -5.177   1.643  25.224  0.00  0.00    +0.179 C 
ENDROOT
BRANCH   9   2
ATOM      2  O   UNL     1       1.284  -0.230  22.189  0.00  0.00    -0.469 OA
BRANCH   2  18
ATOM      7  N   UNL     1       3.225  -1.048  23.158  0.00  0.00    -0.218 NA
ATOM     18  C   UNL     1       2.552   0.006  22.644  0.00  0.00    +0.215 A 
ATOM     19  C   UNL     1       3.067   1.289  22.561  0.00  0.00    +0.067 A 
ATOM     20  C   UNL     1       4.476  -0.800  23.606  0.00  0.00    +0.042 A 
ATOM     21  C   UNL     1       4.357   1.505  23.032  0.00  0.00    +0.007 A 
ATOM     22  C   UNL     1       5.082   0.445  23.566  0.00  0.00    +0.023 A 
ATOM     23  C   UNL     1       5.223  -1.960  24.176  0.00  0.00    +0.066 C 
ENDBRANCH   2  18
ENDBRANCH   9   2
TORSDOF 2
ENDMDL
MODEL 2
REMARK VINA RESULT:      -1.5      0.794      1.377
REMARK  Name = 75367637
REMARK  3 active torsions:
REMARK  status: ('A' for Active; 'I' for Inactive)
REMARK    1  A    between atoms: O_2  and  C_9
REMARK    2  A    between atoms: O_2  and  C_18
REMARK    3  A    between atoms: C_20  and  C_23
REMARK                            x       y       z     vdW  Elec       q    Type
REMARK                         _______ _______ _______ _____ _____    ______ ____
ROOT
ATOM      1  O   UNL     1      -0.155  -1.388  25.038  0.00  0.00    -0.375 OA
ATOM      3  O   UNL     1      -5.631   3.169  25.269  0.00  0.00    -0.377 OA
ATOM      4  O   UNL     1      -0.783   3.836  24.341  0.00  0.00    -0.252 OA
ATOM      5  N   UNL     1      -0.922   1.556  24.715  0.00  0.00    -0.280 N 
ATOM      6  N   UNL     1      -2.868   2.951  24.756  0.00  0.00    -0.281 N 
ATOM      8  C   UNL     1       0.467   1.341  24.287  0.00  0.00    +0.156 C 
ATOM      9  C   UNL     1       0.558   0.217  23.255  0.00  0.00    +0.218 C 
ATOM     10  C   UNL     1      -1.507   0.524  25.586  0.00  0.00    +0.137 C 
ATOM     11  C   UNL     1      -1.479   2.842  24.587  0.00  0.00    +0.305 C 
ATOM     12  C   UNL     1       0.622  -1.183  23.866  0.00  0.00    +0.206 C 
ATOM     13  C   UNL     1      -3.429   4.190  25.291  0.00  0.00    +0.137 C 
ATOM     14  C   UNL     1      -3.838   2.135  24.017  0.00  0.00    +0.137 C 
ATOM     15  C   UNL     1      -1.480  -0.875  24.983  0.00  0.00    +0.179 C 
ATOM     16  C   UNL     1      -4.700   3.895  26.077  0.00  0.00    +0.179 C 
ATOM     17  C   UNL     1      -5.087   1.911  24.856  0.00  0.00    +0.179 C 
ENDROOT
BRANCH   9   2
ATOM      2  O   UNL     1       1.723   0.391  22.449  0.00  0.00    -0.469 OA
BRANCH   2  18
ATOM      7  N   UNL     1       3.844   0.913  23.226  0.00  0.00    -0.218 NA
ATOM     18  C   UNL     1       2.906  -0.032  22.988  0.00  0.00    +0.215 A 
ATOM     19  C   UNL     1       3.079  -1.381  23.254  0.00  0.00    +0.067 A 
ATOM     20  C   UNL     1       5.009   0.480  23.758  0.00  0.00    +0.042 A 
ATOM     21  C   UNL     1       4.291  -1.787  23.800  0.00  0.00    +0.007 A 
ATOM     22  C   UNL     1       5.280  -0.845  24.060  0.00  0.00    +0.023 A 
ATOM     23  C   UNL     1       6.049   1.518  24.021  0.00  0.00    +0.066 C 
ENDBRANCH   2  18
ENDBRANCH   9   2
TORSDOF 2
ENDMDL
MODEL 3
REMARK VINA RESULT:      -1.2      1.560      7.768
REMARK  Name = 75367637
REMARK  3 active torsions:
REMARK  status: ('A' for Active; 'I' for Inactive)
REMARK    1  A    between atoms: O_2  and  C_9
REMARK    2  A    between atoms: O_2  and  C_18
REMARK    3  A    between atoms: C_20  and  C_23
REMARK                            x       y       z     vdW  Elec       q    Type
REMARK                         _______ _______ _______ _____ _____    ______ ____
ROOT
ATOM      1  O   UNL     1      -0.849   3.611  24.980  0.00  0.00    -0.375 OA
ATOM      3  O   UNL     1       4.882  -0.020  22.794  0.00  0.00    -0.377 OA
ATOM      4  O   UNL     1       0.177  -1.421  23.641  0.00  0.00    -0.252 OA
ATOM      5  N   UNL     1       0.134   0.839  24.140  0.00  0.00    -0.280 N 
ATOM      6  N   UNL     1       2.125  -0.229  23.345  0.00  0.00    -0.281 N 
ATOM      8  C   UNL     1      -1.329   0.844  24.268  0.00  0.00    +0.156 C 
ATOM      9  C   UNL     1      -1.951   1.971  23.445  0.00  0.00    +0.218 C 
ATOM     10  C   UNL     1       0.857   1.922  24.826  0.00  0.00    +0.137 C 
ATOM     11  C   UNL     1       0.773  -0.337  23.704  0.00  0.00    +0.305 C 
ATOM     12  C   UNL     1      -1.972   3.323  24.159  0.00  0.00    +0.206 C 
ATOM     13  C   UNL     1       3.009  -1.379  23.525  0.00  0.00    +0.137 C 
ATOM     14  C   UNL     1       2.628   0.755  22.379  0.00  0.00    +0.137 C 
ATOM     15  C   UNL     1       0.416   3.318  24.401  0.00  0.00    +0.179 C 
ATOM     16  C   UNL     1       4.428  -0.911  23.817  0.00  0.00    +0.179 C 
ATOM     17  C   UNL     1       4.057   1.148  22.721  0.00  0.00    +0.179 C 
ENDROOT
BRANCH   9   2
ATOM      2  O   UNL     1      -3.298   1.639  23.106  0.00  0.00    -0.469 OA
BRANCH   2  18
ATOM      7  N   UNL     1      -4.616   3.078  24.358  0.00  0.00    -0.218 NA
ATOM     18  C   UNL     1      -4.233   1.810  24.089  0.00  0.00    +0.215 A 
ATOM     19  C   UNL     1      -4.725   0.695  24.748  0.00  0.00    +0.067 A 
ATOM     20  C   UNL     1      -5.539   3.233  25.333  0.00  0.00    +0.042 A 
ATOM     21  C   UNL     1      -5.674   0.894  25.745  0.00  0.00    +0.007 A 
ATOM     22  C   UNL     1      -6.094   2.184  26.049  0.00  0.00    +0.023 A 
ATOM     23  C   UNL     1      -5.965   4.631  25.635  0.00  0.00    +0.066 C 
ENDBRANCH   2  18
ENDBRANCH   9   2
TORSDOF 2
ENDMDL
MODEL 4
REMARK VINA RESULT:       0.2      1.778      7.281
REMARK  Name = 75367637
REMARK  3 active torsions:
REMARK  status: ('A' for Active; 'I' for Inactive)
REMARK    1  A    between atoms: O_2  and  C_9
REMARK    2  A    between atoms: O_2  and  C_18
REMARK    3  A    between atoms: C_20  and  C_23
REMARK                            x       y       z     vdW  Elec       q    Type
REMARK                         _______ _______ _______ _____ _____    ______ ____
ROOT
ATOM      1  O   UNL     1      -0.613   3.761  25.384  0.00  0.00    -0.375 OA
ATOM      3  O   UNL     1       4.969   0.050  22.959  0.00  0.00    -0.377 OA
ATOM      4  O   UNL     1       0.103  -0.998  23.146  0.00  0.00    -0.252 OA
ATOM      5  N   UNL     1       0.205   1.117  24.083  0.00  0.00    -0.280 N 
ATOM      6  N   UNL     1       2.164   0.023  23.245  0.00  0.00    -0.281 N 
ATOM      8  C   UNL     1      -1.258   1.246  24.097  0.00  0.00    +0.156 C 
ATOM      9  C   UNL     1      -1.700   2.568  23.471  0.00  0.00    +0.218 C 
ATOM     10  C   UNL     1       0.949   1.968  25.025  0.00  0.00    +0.137 C 
ATOM     11  C   UNL     1       0.780  -0.013  23.470  0.00  0.00    +0.305 C 
ATOM     12  C   UNL     1      -1.673   3.753  24.438  0.00  0.00    +0.206 C 
ATOM     13  C   UNL     1       2.925  -1.225  23.258  0.00  0.00    +0.137 C 
ATOM     14  C   UNL     1       2.839   1.117  22.536  0.00  0.00    +0.137 C 
ATOM     15  C   UNL     1       0.672   3.457  24.856  0.00  0.00    +0.179 C 
ATOM     16  C   UNL     1       4.345  -0.969  23.746  0.00  0.00    +0.179 C 
ATOM     17  C   UNL     1       4.257   1.289  23.059  0.00  0.00    +0.179 C 
ENDROOT
BRANCH   9   2
ATOM      2  O   UNL     1      -3.032   2.448  22.971  0.00  0.00    -0.469 OA
BRANCH   2  18
ATOM      7  N   UNL     1      -3.687   0.304  23.562  0.00  0.00    -0.218 NA
ATOM     18  C   UNL     1      -3.877   1.637  23.677  0.00  0.00    +0.215 A 
ATOM     19  C   UNL     1      -4.867   2.215  24.455  0.00  0.00    +0.067 A 
ATOM     20  C   UNL     1      -4.530  -0.485  24.264  0.00  0.00    +0.042 A 
ATOM     21  C   UNL     1      -5.715   1.371  25.163  0.00  0.00    +0.007 A 
ATOM     22  C   UNL     1      -5.550  -0.006  25.071  0.00  0.00    +0.023 A 
ATOM     23  C   UNL     1      -4.326  -1.959  24.139  0.00  0.00    +0.066 C 
ENDBRANCH   2  18
ENDBRANCH   9   2
TORSDOF 2
ENDMDL
MODEL 5
REMARK VINA RESULT:       0.4      2.074      7.021
REMARK  Name = 75367637
REMARK  3 active torsions:
REMARK  status: ('A' for Active; 'I' for Inactive)
REMARK    1  A    between atoms: O_2  and  C_9
REMARK    2  A    between atoms: O_2  and  C_18
REMARK    3  A    between atoms: C_20  and  C_23
REMARK                            x       y       z     vdW  Elec       q    Type
REMARK                         _______ _______ _______ _____ _____    ______ ____
ROOT
ATOM      1  O   UNL     1      -1.031   3.636  24.569  0.00  0.00    -0.375 OA
ATOM      3  O   UNL     1       4.853   0.199  22.476  0.00  0.00    -0.377 OA
ATOM      4  O   UNL     1       0.473  -1.440  24.193  0.00  0.00    -0.252 OA
ATOM      5  N   UNL     1       0.199   0.859  24.209  0.00  0.00    -0.280 N 
ATOM      6  N   UNL     1       2.215  -0.155  23.407  0.00  0.00    -0.281 N 
ATOM      8  C   UNL     1      -1.232   0.746  24.520  0.00  0.00    +0.156 C 
ATOM      9  C   UNL     1      -2.072   1.593  23.565  0.00  0.00    +0.218 C 
ATOM     10  C   UNL     1       0.847   2.134  24.554  0.00  0.00    +0.137 C 
ATOM     11  C   UNL     1       0.931  -0.316  23.951  0.00  0.00    +0.305 C 
ATOM     12  C   UNL     1      -2.188   3.062  23.976  0.00  0.00    +0.206 C 
ATOM     13  C   UNL     1       3.250  -1.142  23.710  0.00  0.00    +0.137 C 
ATOM     14  C   UNL     1       2.488   0.633  22.200  0.00  0.00    +0.137 C 
ATOM     15  C   UNL     1       0.194   3.349  23.906  0.00  0.00    +0.179 C 
ATOM     16  C   UNL     1       4.622  -0.482  23.713  0.00  0.00    +0.179 C 
ATOM     17  C   UNL     1       3.884   1.233  22.266  0.00  0.00    +0.179 C 
ENDROOT
BRANCH   9   2
ATOM      2  O   UNL     1      -3.394   1.062  23.479  0.00  0.00    -0.469 OA
BRANCH   2  18
ATOM      7  N   UNL     1      -3.280  -0.383  25.288  0.00  0.00    -0.218 NA
ATOM     18  C   UNL     1      -3.580  -0.195  23.983  0.00  0.00    +0.215 A 
ATOM     19  C   UNL     1      -4.053  -1.191  23.145  0.00  0.00    +0.067 A 
ATOM     20  C   UNL     1      -3.466  -1.631  25.773  0.00  0.00    +0.042 A 
ATOM     21  C   UNL     1      -4.232  -2.462  23.680  0.00  0.00    +0.007 A 
ATOM     22  C   UNL     1      -3.936  -2.694  25.019  0.00  0.00    +0.023 A 
ATOM     23  C   UNL     1      -3.135  -1.844  27.213  0.00  0.00    +0.066 C 
ENDBRANCH   2  18
ENDBRANCH   9   2
TORSDOF 2
ENDMDL
MODEL 6
REMARK VINA RESULT:       0.9      1.732      2.652
REMARK  Name = 75367637
REMARK  3 active torsions:
REMARK  status: ('A' for Active; 'I' for Inactive)
REMARK    1  A    between atoms: O_2  and  C_9
REMARK    2  A    between atoms: O_2  and  C_18
REMARK    3  A    between atoms: C_20  and  C_23
REMARK                            x       y       z     vdW  Elec       q    Type
REMARK                         _______ _______ _______ _____ _____    ______ ____
ROOT
ATOM      1  O   UNL     1      -3.002  -2.821  25.002  0.00  0.00    -0.375 OA
ATOM      3  O   UNL     1      -6.159   3.567  25.233  0.00  0.00    -0.377 OA
ATOM      4  O   UNL     1      -1.412   2.176  25.823  0.00  0.00    -0.252 OA
ATOM      5  N   UNL     1      -2.487   0.164  25.424  0.00  0.00    -0.280 N 
ATOM      6  N   UNL     1      -3.674   2.244  25.399  0.00  0.00    -0.281 N 
ATOM      8  C   UNL     1      -1.215  -0.562  25.318  0.00  0.00    +0.156 C 
ATOM      9  C   UNL     1      -1.168  -1.410  24.048  0.00  0.00    +0.218 C 
ATOM     10  C   UNL     1      -3.676  -0.637  25.752  0.00  0.00    +0.137 C 
ATOM     11  C   UNL     1      -2.457   1.565  25.564  0.00  0.00    +0.305 C 
ATOM     12  C   UNL     1      -1.838  -2.778  24.189  0.00  0.00    +0.206 C 
ATOM     13  C   UNL     1      -3.905   3.489  26.130  0.00  0.00    +0.137 C 
ATOM     14  C   UNL     1      -4.535   2.084  24.222  0.00  0.00    +0.137 C 
ATOM     15  C   UNL     1      -3.939  -1.775  24.773  0.00  0.00    +0.179 C 
ATOM     16  C   UNL     1      -5.388   3.652  26.435  0.00  0.00    +0.179 C 
ATOM     17  C   UNL     1      -5.993   2.292  24.602  0.00  0.00    +0.179 C 
ENDROOT
BRANCH   9   2
ATOM      2  O   UNL     1       0.188  -1.630  23.660  0.00  0.00    -0.469 OA
BRANCH   2  18
ATOM      7  N   UNL     1       0.387   0.678  23.751  0.00  0.00    -0.218 NA
ATOM     18  C   UNL     1       0.953  -0.515  23.459  0.00  0.00    +0.215 A 
ATOM     19  C   UNL     1       2.242  -0.664  22.973  0.00  0.00    +0.067 A 
ATOM     20  C   UNL     1       1.154   1.772  23.546  0.00  0.00    +0.042 A 
ATOM     21  C   UNL     1       3.000   0.485  22.775  0.00  0.00    +0.007 A 
ATOM     22  C   UNL     1       2.452   1.730  23.065  0.00  0.00    +0.023 A 
ATOM     23  C   UNL     1       0.533   3.092  23.865  0.00  0.00    +0.066 C 
ENDBRANCH   2  18
ENDBRANCH   9   2
TORSDOF 2
ENDMDL
