MODEL 1
REMARK VINA RESULT:       6.3      0.000      0.000
REMARK  Name = 40724278
REMARK  3 active torsions:
REMARK  status: ('A' for Active; 'I' for Inactive)
REMARK    1  A    between atoms: C_12  and  C_13
REMARK    2  A    between atoms: C_21  and  C_23
REMARK    3  A    between atoms: C_24  and  C_27
REMARK                            x       y       z     vdW  Elec       q    Type
REMARK                         _______ _______ _______ _____ _____    ______ ____
ROOT
ATOM      1  O   UNL     1      -5.423   0.558  26.173  0.00  0.00    -0.275 OA
ATOM      2  O   UNL     1      -1.507   4.105  27.013  0.00  0.00    -0.267 OA
ATOM      3  N   UNL     1      -4.369   1.109  24.177  0.00  0.00    -0.300 N 
ATOM      4  N   UNL     1      -1.993   3.089  24.970  0.00  0.00    -0.311 N 
ATOM      5  C   UNL     1      -4.159   3.548  23.684  0.00  0.00    +0.027 C 
ATOM      6  C   UNL     1      -2.506   1.971  22.772  0.00  0.00    +0.054 C 
ATOM      7  C   UNL     1      -3.330   3.216  22.449  0.00  0.00    +0.018 C 
ATOM      8  C   UNL     1      -5.090   2.376  24.041  0.00  0.00    +0.113 C 
ATOM      9  C   UNL     1      -3.449   0.790  23.075  0.00  0.00    +0.117 C 
ATOM     10  C   UNL     1      -3.209   3.901  24.835  0.00  0.00    +0.130 C 
ATOM     11  C   UNL     1      -1.592   2.215  23.957  0.00  0.00    +0.027 A 
ATOM     13  C   UNL     1      -4.647   0.271  25.259  0.00  0.00    +0.219 C 
ATOM     16  C   UNL     1      -0.415   1.574  24.048  0.00  0.00    +0.022 A 
ATOM     19  C   UNL     1      -1.204   3.318  26.115  0.00  0.00    +0.259 A 
ATOM     21  C   UNL     1       0.093   2.557  26.205  0.00  0.00    +0.047 A 
ATOM     22  C   UNL     1       0.434   1.746  25.193  0.00  0.00    +0.015 A 
ENDROOT
BRANCH  21  23
ATOM     23  C   UNL     1       0.973   2.686  27.380  0.00  0.00    -0.010 A 
ATOM     24  C   UNL     1       0.835   1.843  28.484  0.00  0.00    -0.043 A 
ATOM     25  C   UNL     1       1.958   3.672  27.373  0.00  0.00    +0.009 A 
ATOM     26  C   UNL     1       1.685   1.989  29.580  0.00  0.00    +0.004 A 
ATOM     27  C   UNL     1      -0.209   0.775  28.525  0.00  0.00    +0.044 C 
ATOM     28  C   UNL     1       2.807   3.818  28.470  0.00  0.00    +0.001 A 
ATOM     29  C   UNL     1       2.670   2.977  29.574  0.00  0.00    +0.000 A 
ENDBRANCH  21  23
BRANCH  13  12
ATOM     12  C   UNL     1      -3.936  -1.047  25.285  0.00  0.00    +0.075 C 
ATOM     14  C   UNL     1      -4.201  -1.807  23.985  0.00  0.00    +0.013 C 
ATOM     15  C   UNL     1      -2.441  -0.809  25.502  0.00  0.00    +0.013 C 
ATOM     17  C   UNL     1      -3.410  -3.112  23.928  0.00  0.00    +0.001 C 
ATOM     18  C   UNL     1      -1.651  -2.114  25.441  0.00  0.00    +0.001 C 
ATOM     20  C   UNL     1      -1.917  -2.874  24.144  0.00  0.00    +0.000 C 
ENDBRANCH  13  12
TORSDOF 2
ENDMDL
MODEL 2
REMARK VINA RESULT:       7.0      2.760      3.861
REMARK  Name = 40724278
REMARK  3 active torsions:
REMARK  status: ('A' for Active; 'I' for Inactive)
REMARK    1  A    between atoms: C_12  and  C_13
REMARK    2  A    between atoms: C_21  and  C_23
REMARK    3  A    between atoms: C_24  and  C_27
REMARK                            x       y       z     vdW  Elec       q    Type
REMARK                         _______ _______ _______ _____ _____    ______ ____
ROOT
ATOM      1  O   UNL     1      -2.962  -0.320  27.081  0.00  0.00    -0.275 OA
ATOM      2  O   UNL     1       1.398   1.947  24.967  0.00  0.00    -0.267 OA
ATOM      3  N   UNL     1      -3.430   0.566  24.985  0.00  0.00    -0.300 N 
ATOM      4  N   UNL     1      -0.654   1.698  23.885  0.00  0.00    -0.311 N 
ATOM      5  C   UNL     1      -2.763   2.946  24.627  0.00  0.00    +0.027 C 
ATOM      6  C   UNL     1      -2.863   1.405  22.713  0.00  0.00    +0.054 C 
ATOM      7  C   UNL     1      -3.176   2.830  23.164  0.00  0.00    +0.018 C 
ATOM      8  C   UNL     1      -3.541   1.937  25.489  0.00  0.00    +0.113 C 
ATOM      9  C   UNL     1      -3.688   0.405  23.547  0.00  0.00    +0.117 C 
ATOM     10  C   UNL     1      -1.246   2.744  24.729  0.00  0.00    +0.130 C 
ATOM     11  C   UNL     1      -1.385   1.098  22.858  0.00  0.00    +0.027 A 
ATOM     13  C   UNL     1      -3.176  -0.477  25.877  0.00  0.00    +0.219 C 
ATOM     16  C   UNL     1      -0.789   0.233  22.022  0.00  0.00    +0.022 A 
ATOM     19  C   UNL     1       0.711   1.415  24.093  0.00  0.00    +0.259 A 
ATOM     21  C   UNL     1       1.343   0.414  23.163  0.00  0.00    +0.047 A 
ATOM     22  C   UNL     1       0.595  -0.116  22.184  0.00  0.00    +0.015 A 
ENDROOT
BRANCH  21  23
ATOM     23  C   UNL     1       2.751   0.009  23.320  0.00  0.00    -0.010 A 
ATOM     24  C   UNL     1       3.795   0.874  22.990  0.00  0.00    -0.043 A 
ATOM     25  C   UNL     1       3.029  -1.266  23.812  0.00  0.00    +0.009 A 
ATOM     26  C   UNL     1       5.117   0.462  23.151  0.00  0.00    +0.004 A 
ATOM     27  C   UNL     1       3.533   2.247  22.461  0.00  0.00    +0.044 C 
ATOM     28  C   UNL     1       4.353  -1.677  23.972  0.00  0.00    +0.001 A 
ATOM     29  C   UNL     1       5.397  -0.814  23.642  0.00  0.00    +0.000 A 
ENDBRANCH  21  23
BRANCH  13  12
ATOM     12  C   UNL     1      -3.164  -1.861  25.304  0.00  0.00    +0.075 C 
ATOM     14  C   UNL     1      -4.261  -1.996  24.247  0.00  0.00    +0.013 C 
ATOM     15  C   UNL     1      -1.781  -2.150  24.718  0.00  0.00    +0.013 C 
ATOM     17  C   UNL     1      -4.215  -3.361  23.564  0.00  0.00    +0.001 C 
ATOM     18  C   UNL     1      -1.738  -3.513  24.031  0.00  0.00    +0.001 C 
ATOM     20  C   UNL     1      -2.835  -3.649  22.979  0.00  0.00    +0.000 C 
ENDBRANCH  13  12
TORSDOF 2
ENDMDL
MODEL 3
REMARK VINA RESULT:       7.3      2.796      5.403
REMARK  Name = 40724278
REMARK  3 active torsions:
REMARK  status: ('A' for Active; 'I' for Inactive)
REMARK    1  A    between atoms: C_12  and  C_13
REMARK    2  A    between atoms: C_21  and  C_23
REMARK    3  A    between atoms: C_24  and  C_27
REMARK                            x       y       z     vdW  Elec       q    Type
REMARK                         _______ _______ _______ _____ _____    ______ ____
ROOT
ATOM      1  O   UNL     1      -4.375   1.754  23.060  0.00  0.00    -0.275 OA
ATOM      2  O   UNL     1      -0.112  -1.366  22.213  0.00  0.00    -0.267 OA
ATOM      3  N   UNL     1      -4.240   0.088  24.675  0.00  0.00    -0.300 N 
ATOM      4  N   UNL     1      -1.549  -1.512  24.045  0.00  0.00    -0.311 N 
ATOM      5  C   UNL     1      -3.992  -2.247  23.825  0.00  0.00    +0.027 C 
ATOM      6  C   UNL     1      -3.089  -1.650  26.033  0.00  0.00    +0.054 C 
ATOM      7  C   UNL     1      -3.827  -2.739  25.257  0.00  0.00    +0.018 C 
ATOM      8  C   UNL     1      -4.801  -0.938  23.794  0.00  0.00    +0.113 C 
ATOM      9  C   UNL     1      -3.933  -0.360  26.041  0.00  0.00    +0.117 C 
ATOM     10  C   UNL     1      -2.603  -2.082  23.196  0.00  0.00    +0.130 C 
ATOM     11  C   UNL     1      -1.730  -1.370  25.423  0.00  0.00    +0.027 A 
ATOM     13  C   UNL     1      -4.112   1.399  24.211  0.00  0.00    +0.219 C 
ATOM     16  C   UNL     1      -0.712  -0.961  26.196  0.00  0.00    +0.022 A 
ATOM     19  C   UNL     1      -0.321  -1.222  23.419  0.00  0.00    +0.259 A 
ATOM     21  C   UNL     1       0.791  -0.731  24.308  0.00  0.00    +0.047 A 
ATOM     22  C   UNL     1       0.564  -0.632  25.626  0.00  0.00    +0.015 A 
ENDROOT
BRANCH  21  23
ATOM     23  C   UNL     1       2.103  -0.355  23.752  0.00  0.00    -0.010 A 
ATOM     24  C   UNL     1       2.348   0.937  23.284  0.00  0.00    -0.043 A 
ATOM     25  C   UNL     1       3.109  -1.319  23.700  0.00  0.00    +0.009 A 
ATOM     26  C   UNL     1       3.601   1.262  22.765  0.00  0.00    +0.004 A 
ATOM     27  C   UNL     1       1.294   1.995  23.325  0.00  0.00    +0.044 C 
ATOM     28  C   UNL     1       4.361  -0.993  23.179  0.00  0.00    +0.001 A 
ATOM     29  C   UNL     1       4.608   0.298  22.712  0.00  0.00    +0.000 A 
ENDBRANCH  21  23
BRANCH  13  12
ATOM     12  C   UNL     1      -3.614   2.412  25.196  0.00  0.00    +0.075 C 
ATOM     14  C   UNL     1      -2.085   2.455  25.170  0.00  0.00    +0.013 C 
ATOM     15  C   UNL     1      -4.219   3.777  24.863  0.00  0.00    +0.013 C 
ATOM     17  C   UNL     1      -1.541   3.550  26.084  0.00  0.00    +0.001 C 
ATOM     18  C   UNL     1      -3.670   4.871  25.775  0.00  0.00    +0.001 C 
ATOM     20  C   UNL     1      -2.145   4.912  25.752  0.00  0.00    +0.000 C 
ENDBRANCH  13  12
TORSDOF 2
ENDMDL
MODEL 4
REMARK VINA RESULT:      10.2      2.504      5.113
REMARK  Name = 40724278
REMARK  3 active torsions:
REMARK  status: ('A' for Active; 'I' for Inactive)
REMARK    1  A    between atoms: C_12  and  C_13
REMARK    2  A    between atoms: C_21  and  C_23
REMARK    3  A    between atoms: C_24  and  C_27
REMARK                            x       y       z     vdW  Elec       q    Type
REMARK                         _______ _______ _______ _____ _____    ______ ____
ROOT
ATOM      1  O   UNL     1       0.165  -1.927  26.244  0.00  0.00    -0.275 OA
ATOM      2  O   UNL     1      -3.319   2.132  26.230  0.00  0.00    -0.267 OA
ATOM      3  N   UNL     1      -1.551  -2.321  24.728  0.00  0.00    -0.300 N 
ATOM      4  N   UNL     1      -3.381   0.296  24.793  0.00  0.00    -0.311 N 
ATOM      5  C   UNL     1      -3.873  -2.080  25.612  0.00  0.00    +0.027 C 
ATOM      6  C   UNL     1      -3.428  -1.677  23.228  0.00  0.00    +0.054 C 
ATOM      7  C   UNL     1      -4.420  -2.301  24.207  0.00  0.00    +0.018 C 
ATOM      8  C   UNL     1      -2.494  -2.743  25.765  0.00  0.00    +0.113 C 
ATOM      9  C   UNL     1      -2.065  -2.385  23.352  0.00  0.00    +0.117 C 
ATOM     10  C   UNL     1      -3.824  -0.573  25.892  0.00  0.00    +0.130 C 
ATOM     11  C   UNL     1      -3.261  -0.193  23.490  0.00  0.00    +0.027 A 
ATOM     13  C   UNL     1      -0.246  -1.975  25.082  0.00  0.00    +0.219 C 
ATOM     16  C   UNL     1      -2.973   0.645  22.481  0.00  0.00    +0.022 A 
ATOM     19  C   UNL     1      -3.191   1.658  25.100  0.00  0.00    +0.259 A 
ATOM     21  C   UNL     1      -2.833   2.565  23.954  0.00  0.00    +0.047 A 
ATOM     22  C   UNL     1      -2.751   2.043  22.722  0.00  0.00    +0.015 A 
ENDROOT
BRANCH  21  23
ATOM     23  C   UNL     1      -2.568   3.999  24.170  0.00  0.00    -0.010 A 
ATOM     24  C   UNL     1      -1.393   4.433  24.786  0.00  0.00    -0.043 A 
ATOM     25  C   UNL     1      -3.517   4.926  23.743  0.00  0.00    +0.009 A 
ATOM     26  C   UNL     1      -1.171   5.797  24.975  0.00  0.00    +0.004 A 
ATOM     27  C   UNL     1      -0.354   3.467  25.254  0.00  0.00    +0.044 C 
ATOM     28  C   UNL     1      -3.294   6.291  23.933  0.00  0.00    +0.001 A 
ATOM     29  C   UNL     1      -2.121   6.726  24.549  0.00  0.00    +0.000 A 
ENDBRANCH  21  23
BRANCH  13  12
ATOM     12  C   UNL     1       0.687  -1.639  23.960  0.00  0.00    +0.075 C 
ATOM     14  C   UNL     1       0.339  -0.264  23.387  0.00  0.00    +0.013 C 
ATOM     15  C   UNL     1       2.128  -1.685  24.472  0.00  0.00    +0.013 C 
ATOM     17  C   UNL     1       1.333   0.162  22.309  0.00  0.00    +0.001 C 
ATOM     18  C   UNL     1       3.120  -1.255  23.394  0.00  0.00    +0.001 C 
ATOM     20  C   UNL     1       2.770   0.116  22.821  0.00  0.00    +0.000 C 
ENDBRANCH  13  12
TORSDOF 2
ENDMDL
