MODEL 1
REMARK VINA RESULT:       6.1      0.000      0.000
REMARK  Name = 7144182
REMARK  4 active torsions:
REMARK  status: ('A' for Active; 'I' for Inactive)
REMARK    1  A    between atoms: O_7  and  C_30
REMARK    2  A    between atoms: O_7  and  C_34
REMARK    3  A    between atoms: C_17  and  C_22
REMARK    4  A    between atoms: C_19  and  C_23
REMARK                            x       y       z     vdW  Elec       q    Type
REMARK                         _______ _______ _______ _____ _____    ______ ____
ROOT
ATOM      5  O   UNL     1      -3.556   4.211  27.709  0.00  0.00    -0.268 OA
ATOM      6  O   UNL     1      -6.019   0.819  24.849  0.00  0.00    -0.270 OA
ATOM      8  N   UNL     1      -4.327   1.709  23.503  0.00  0.00    -0.297 N 
ATOM      9  N   UNL     1      -2.859   3.605  25.556  0.00  0.00    -0.311 N 
ATOM     10  C   UNL     1      -4.250   4.189  23.482  0.00  0.00    +0.027 C 
ATOM     11  C   UNL     1      -2.164   2.907  23.244  0.00  0.00    +0.054 C 
ATOM     12  C   UNL     1      -2.915   4.144  22.753  0.00  0.00    +0.018 C 
ATOM     13  C   UNL     1      -5.073   2.925  23.183  0.00  0.00    +0.113 C 
ATOM     14  C   UNL     1      -3.981   4.359  24.978  0.00  0.00    +0.130 C 
ATOM     15  C   UNL     1      -2.983   1.641  22.911  0.00  0.00    +0.117 C 
ATOM     16  C   UNL     1      -1.892   2.972  24.749  0.00  0.00    +0.034 A 
ATOM     17  C   UNL     1      -0.789   2.422  25.319  0.00  0.00    +0.002 A 
ATOM     18  C   UNL     1      -2.750   3.661  26.957  0.00  0.00    +0.252 A 
ATOM     19  C   UNL     1      -4.894   0.759  24.356  0.00  0.00    +0.247 C 
ATOM     20  C   UNL     1      -0.645   2.457  26.762  0.00  0.00    +0.015 A 
ATOM     21  C   UNL     1      -1.558   3.018  27.555  0.00  0.00    +0.071 A 
ENDROOT
BRANCH  19  23
ATOM      1  F   UNL     1      -1.820  -3.700  25.753  0.00  0.00    -0.205 F 
ATOM     23  C   UNL     1      -4.088  -0.411  24.723  0.00  0.00    +0.037 A 
ATOM     26  C   UNL     1      -4.254  -1.610  24.035  0.00  0.00    +0.016 A 
ATOM     27  C   UNL     1      -3.160  -0.317  25.757  0.00  0.00    +0.016 A 
ATOM     31  C   UNL     1      -3.487  -2.722  24.383  0.00  0.00    +0.039 A 
ATOM     32  C   UNL     1      -2.393  -1.428  26.105  0.00  0.00    +0.039 A 
ATOM     33  C   UNL     1      -2.556  -2.631  25.418  0.00  0.00    +0.123 A 
ENDBRANCH  19  23
BRANCH  17  22
ATOM     22  C   UNL     1       0.264   1.770  24.509  0.00  0.00    -0.016 A 
ATOM     24  C   UNL     1       0.193   0.404  24.255  0.00  0.00    +0.012 A 
ATOM     25  C   UNL     1       1.317   2.528  24.006  0.00  0.00    +0.012 A 
ATOM     28  C   UNL     1       1.185  -0.211  23.492  0.00  0.00    +0.046 A 
ATOM     29  C   UNL     1       2.309   1.914  23.243  0.00  0.00    +0.046 A 
ATOM     30  C   UNL     1       2.243   0.544  22.985  0.00  0.00    +0.130 A 
BRANCH  30   7
ATOM      7  O   UNL     1       3.212  -0.056  22.241  0.00  0.00    -0.406 OA
BRANCH   7  34
ATOM      2  F   UNL     1       4.650  -1.307  23.506  0.00  0.00    -0.133 F 
ATOM      3  F   UNL     1       4.720   0.872  23.640  0.00  0.00    -0.133 F 
ATOM      4  F   UNL     1       5.463  -0.109  21.835  0.00  0.00    -0.133 F 
ATOM     34  C   UNL     1       4.518  -0.166  22.797  0.00  0.00    +0.575 C 
ENDBRANCH   7  34
ENDBRANCH  30   7
ENDBRANCH  17  22
TORSDOF 4
ENDMDL
