MODEL 1
REMARK VINA RESULT:      -3.7      0.000      0.000
REMARK  Name = 75536758
REMARK  6 active torsions:
REMARK  status: ('A' for Active; 'I' for Inactive)
REMARK    1  A    between atoms: O_2  and  C_10
REMARK    2  A    between atoms: N_5  and  C_9
REMARK    3  A    between atoms: N_5  and  C_14
REMARK    4  A    between atoms: N_6  and  C_13
REMARK    5  A    between atoms: C_11  and  C_13
REMARK    6  A    between atoms: C_14  and  C_18
REMARK                            x       y       z     vdW  Elec       q    Type
REMARK                         _______ _______ _______ _____ _____    ______ ____
ROOT
ATOM      1  O   UNL     1       0.086   3.600  23.630  0.00  0.00    -0.371 OA
ATOM      9  C   UNL     1      -0.914   3.981  25.752  0.00  0.00    +0.111 C 
ATOM     10  C   UNL     1      -0.460   2.535  25.670  0.00  0.00    +0.164 C 
ATOM     11  C   UNL     1       0.574   2.614  24.555  0.00  0.00    +0.165 C 
ATOM     12  C   UNL     1      -0.938   4.371  24.282  0.00  0.00    +0.181 C 
ENDROOT
BRANCH  10   2
ATOM      2  O   UNL     1       0.104   2.072  26.881  0.00  0.00    -0.388 OA
ATOM     27  H   UNL     1       0.595   1.253  26.697  0.00  0.00    +0.210 HD
ENDBRANCH  10   2
BRANCH   9   5
ATOM      5  N   UNL     1      -2.201   4.153  26.405  0.00  0.00    -0.305 NA
ATOM     25  H   UNL     1      -2.123   4.894  27.102  0.00  0.00    +0.123 HD
BRANCH   5  14
ATOM     14  C   UNL     1      -3.234   4.518  25.442  0.00  0.00    +0.118 C 
BRANCH  14  18
ATOM      8  N   UNL     1      -6.196   2.418  26.510  0.00  0.00    -0.263 NA
ATOM     18  C   UNL     1      -4.343   3.502  25.398  0.00  0.00    -0.015 A 
ATOM     21  C   UNL     1      -4.557   2.722  24.267  0.00  0.00    +0.008 A 
ATOM     22  C   UNL     1      -5.184   3.313  26.484  0.00  0.00    +0.115 A 
ATOM     23  C   UNL     1      -5.589   1.790  24.256  0.00  0.00    +0.020 A 
ATOM     24  C   UNL     1      -6.374   1.678  25.392  0.00  0.00    +0.111 A 
ENDBRANCH  14  18
ENDBRANCH   5  14
ENDBRANCH   9   5
BRANCH  11  13
ATOM     13  C   UNL     1       0.782   1.294  23.835  0.00  0.00    +0.140 C 
BRANCH  13   6
ATOM      3  O   UNL     1      -3.861  -3.035  24.781  0.00  0.00    -0.377 OA
ATOM      4  O   UNL     1      -1.926   1.189  23.078  0.00  0.00    -0.253 OA
ATOM      6  N   UNL     1      -0.176   0.300  24.265  0.00  0.00    -0.297 N 
ATOM      7  N   UNL     1      -2.311  -0.711  24.353  0.00  0.00    -0.281 N 
ATOM     15  C   UNL     1      -1.501   0.318  23.844  0.00  0.00    +0.302 C 
ATOM     16  C   UNL     1      -3.723  -0.764  23.967  0.00  0.00    +0.137 C 
ATOM     17  C   UNL     1      -1.927  -1.690  25.380  0.00  0.00    +0.137 C 
ATOM     19  C   UNL     1      -4.152  -2.192  23.665  0.00  0.00    +0.179 C 
ATOM     20  C   UNL     1      -2.456  -3.076  25.033  0.00  0.00    +0.179 C 
ATOM     26  H   UNL     1       0.170  -0.401  24.905  0.00  0.00    +0.150 HD
ENDBRANCH  13   6
ENDBRANCH  11  13
TORSDOF 6
ENDMDL
MODEL 2
REMARK VINA RESULT:      -3.5      1.966      4.429
REMARK  Name = 75536758
REMARK  6 active torsions:
REMARK  status: ('A' for Active; 'I' for Inactive)
REMARK    1  A    between atoms: O_2  and  C_10
REMARK    2  A    between atoms: N_5  and  C_9
REMARK    3  A    between atoms: N_5  and  C_14
REMARK    4  A    between atoms: N_6  and  C_13
REMARK    5  A    between atoms: C_11  and  C_13
REMARK    6  A    between atoms: C_14  and  C_18
REMARK                            x       y       z     vdW  Elec       q    Type
REMARK                         _______ _______ _______ _____ _____    ______ ____
ROOT
ATOM      1  O   UNL     1      -4.749   3.465  26.462  0.00  0.00    -0.371 OA
ATOM      9  C   UNL     1      -3.264   4.466  24.901  0.00  0.00    +0.111 C 
ATOM     10  C   UNL     1      -3.846   3.203  24.292  0.00  0.00    +0.164 C 
ATOM     11  C   UNL     1      -5.096   3.016  25.141  0.00  0.00    +0.165 C 
ATOM     12  C   UNL     1      -3.542   4.242  26.379  0.00  0.00    +0.181 C 
ENDROOT
BRANCH  10   2
ATOM      2  O   UNL     1      -4.157   3.352  22.920  0.00  0.00    -0.388 OA
ATOM     27  H   UNL     1      -4.494   2.503  22.589  0.00  0.00    +0.210 HD
ENDBRANCH  10   2
BRANCH   9   5
ATOM      5  N   UNL     1      -1.852   4.656  24.612  0.00  0.00    -0.305 NA
ATOM     25  H   UNL     1      -1.597   5.622  24.821  0.00  0.00    +0.123 HD
BRANCH   5  14
ATOM     14  C   UNL     1      -1.027   3.765  25.419  0.00  0.00    +0.118 C 
BRANCH  14  18
ATOM      8  N   UNL     1       1.390   1.321  23.834  0.00  0.00    -0.263 NA
ATOM     18  C   UNL     1      -0.504   2.604  24.616  0.00  0.00    -0.015 A 
ATOM     21  C   UNL     1      -1.368   1.760  23.928  0.00  0.00    +0.008 A 
ATOM     22  C   UNL     1       0.856   2.343  24.537  0.00  0.00    +0.115 A 
ATOM     23  C   UNL     1      -0.856   0.697  23.193  0.00  0.00    +0.020 A 
ATOM     24  C   UNL     1       0.518   0.521  23.179  0.00  0.00    +0.111 A 
ENDBRANCH  14  18
ENDBRANCH   5  14
ENDBRANCH   9   5
BRANCH  11  13
ATOM     13  C   UNL     1      -5.574   1.577  25.197  0.00  0.00    +0.140 C 
BRANCH  13   6
ATOM      3  O   UNL     1      -0.725  -2.626  25.310  0.00  0.00    -0.377 OA
ATOM      4  O   UNL     1      -5.100  -0.842  23.840  0.00  0.00    -0.253 OA
ATOM      6  N   UNL     1      -4.481   0.666  25.455  0.00  0.00    -0.297 N 
ATOM      7  N   UNL     1      -3.212  -1.297  25.108  0.00  0.00    -0.281 N 
ATOM     15  C   UNL     1      -4.317  -0.513  24.737  0.00  0.00    +0.302 C 
ATOM     16  C   UNL     1      -2.966  -2.561  24.409  0.00  0.00    +0.137 C 
ATOM     17  C   UNL     1      -2.325  -1.058  26.255  0.00  0.00    +0.137 C 
ATOM     19  C   UNL     1      -1.486  -2.738  24.106  0.00  0.00    +0.179 C 
ATOM     20  C   UNL     1      -0.871  -1.326  25.883  0.00  0.00    +0.179 C 
ATOM     26  H   UNL     1      -3.853   0.928  26.200  0.00  0.00    +0.150 HD
ENDBRANCH  13   6
ENDBRANCH  11  13
TORSDOF 6
ENDMDL
MODEL 3
REMARK VINA RESULT:      -3.3      2.036      5.636
REMARK  Name = 75536758
REMARK  6 active torsions:
REMARK  status: ('A' for Active; 'I' for Inactive)
REMARK    1  A    between atoms: O_2  and  C_10
REMARK    2  A    between atoms: N_5  and  C_9
REMARK    3  A    between atoms: N_5  and  C_14
REMARK    4  A    between atoms: N_6  and  C_13
REMARK    5  A    between atoms: C_11  and  C_13
REMARK    6  A    between atoms: C_14  and  C_18
REMARK                            x       y       z     vdW  Elec       q    Type
REMARK                         _______ _______ _______ _____ _____    ______ ____
ROOT
ATOM      1  O   UNL     1      -2.634  -2.985  23.604  0.00  0.00    -0.371 OA
ATOM      9  C   UNL     1      -1.133  -2.152  25.246  0.00  0.00    +0.111 C 
ATOM     10  C   UNL     1      -2.460  -1.426  25.375  0.00  0.00    +0.164 C 
ATOM     11  C   UNL     1      -3.397  -2.401  24.674  0.00  0.00    +0.165 C 
ATOM     12  C   UNL     1      -1.240  -2.726  23.843  0.00  0.00    +0.181 C 
ENDROOT
BRANCH  10   2
ATOM      2  O   UNL     1      -2.835  -1.211  26.721  0.00  0.00    -0.388 OA
ATOM     27  H   UNL     1      -3.800  -1.106  26.757  0.00  0.00    +0.210 HD
ENDBRANCH  10   2
BRANCH   9   5
ATOM      5  N   UNL     1       0.023  -1.288  25.418  0.00  0.00    -0.305 NA
ATOM     25  H   UNL     1       0.862  -1.865  25.493  0.00  0.00    +0.123 HD
BRANCH   5  14
ATOM     14  C   UNL     1       0.175  -0.381  24.286  0.00  0.00    +0.118 C 
BRANCH  14  18
ATOM      8  N   UNL     1      -0.133   3.384  24.048  0.00  0.00    -0.263 NA
ATOM     18  C   UNL     1      -0.088   1.049  24.674  0.00  0.00    -0.015 A 
ATOM     21  C   UNL     1      -0.510   1.378  25.957  0.00  0.00    +0.008 A 
ATOM     22  C   UNL     1       0.083   2.080  23.764  0.00  0.00    +0.115 A 
ATOM     23  C   UNL     1      -0.744   2.709  26.287  0.00  0.00    +0.020 A 
ATOM     24  C   UNL     1      -0.543   3.665  25.305  0.00  0.00    +0.111 A 
ENDBRANCH  14  18
ENDBRANCH   5  14
ENDBRANCH   9   5
BRANCH  11  13
ATOM     13  C   UNL     1      -4.642  -1.740  24.115  0.00  0.00    +0.140 C 
BRANCH  13   6
ATOM      3  O   UNL     1      -5.126   4.561  25.238  0.00  0.00    -0.377 OA
ATOM      4  O   UNL     1      -3.252   0.498  23.125  0.00  0.00    -0.253 OA
ATOM      6  N   UNL     1      -4.781  -0.382  24.593  0.00  0.00    -0.297 N 
ATOM      7  N   UNL     1      -4.294   1.931  24.623  0.00  0.00    -0.281 N 
ATOM     15  C   UNL     1      -4.055   0.672  24.048  0.00  0.00    +0.302 C 
ATOM     16  C   UNL     1      -3.566   3.096  24.116  0.00  0.00    +0.137 C 
ATOM     17  C   UNL     1      -5.111   2.199  25.815  0.00  0.00    +0.137 C 
ATOM     19  C   UNL     1      -4.487   4.301  23.987  0.00  0.00    +0.179 C 
ATOM     20  C   UNL     1      -5.948   3.459  25.627  0.00  0.00    +0.179 C 
ATOM     26  H   UNL     1      -5.424  -0.245  25.359  0.00  0.00    +0.150 HD
ENDBRANCH  13   6
ENDBRANCH  11  13
TORSDOF 6
ENDMDL
MODEL 4
REMARK VINA RESULT:      -3.2      1.687      4.572
REMARK  Name = 75536758
REMARK  6 active torsions:
REMARK  status: ('A' for Active; 'I' for Inactive)
REMARK    1  A    between atoms: O_2  and  C_10
REMARK    2  A    between atoms: N_5  and  C_9
REMARK    3  A    between atoms: N_5  and  C_14
REMARK    4  A    between atoms: N_6  and  C_13
REMARK    5  A    between atoms: C_11  and  C_13
REMARK    6  A    between atoms: C_14  and  C_18
REMARK                            x       y       z     vdW  Elec       q    Type
REMARK                         _______ _______ _______ _____ _____    ______ ____
ROOT
ATOM      1  O   UNL     1      -0.649   2.942  26.540  0.00  0.00    -0.371 OA
ATOM      9  C   UNL     1       0.280   1.575  24.833  0.00  0.00    +0.111 C 
ATOM     10  C   UNL     1      -0.379   2.785  24.195  0.00  0.00    +0.164 C 
ATOM     11  C   UNL     1      -0.422   3.750  25.372  0.00  0.00    +0.165 C 
ATOM     12  C   UNL     1      -0.368   1.571  26.208  0.00  0.00    +0.181 C 
ENDROOT
BRANCH  10   2
ATOM      2  O   UNL     1       0.369   3.305  23.113  0.00  0.00    -0.388 OA
ATOM     27  H   UNL     1      -0.251   3.667  22.459  0.00  0.00    +0.210 HD
ENDBRANCH  10   2
BRANCH   9   5
ATOM      5  N   UNL     1       0.061   0.338  24.101  0.00  0.00    -0.305 NA
ATOM     25  H   UNL     1       0.943   0.040  23.682  0.00  0.00    +0.123 HD
BRANCH   5  14
ATOM     14  C   UNL     1      -0.422  -0.716  24.984  0.00  0.00    +0.118 C 
BRANCH  14  18
ATOM      8  N   UNL     1      -4.038  -0.618  23.869  0.00  0.00    -0.263 NA
ATOM     18  C   UNL     1      -1.804  -1.177  24.603  0.00  0.00    -0.015 A 
ATOM     21  C   UNL     1      -2.140  -2.526  24.622  0.00  0.00    +0.008 A 
ATOM     22  C   UNL     1      -2.781  -0.271  24.221  0.00  0.00    +0.115 A 
ATOM     23  C   UNL     1      -3.425  -2.922  24.266  0.00  0.00    +0.020 A 
ATOM     24  C   UNL     1      -4.329  -1.938  23.900  0.00  0.00    +0.111 A 
ENDBRANCH  14  18
ENDBRANCH   5  14
ENDBRANCH   9   5
BRANCH  11  13
ATOM     13  C   UNL     1      -1.516   4.795  25.251  0.00  0.00    +0.140 C 
BRANCH  13   6
ATOM      3  O   UNL     1      -7.024   1.603  26.063  0.00  0.00    -0.377 OA
ATOM      4  O   UNL     1      -3.252   3.479  23.469  0.00  0.00    -0.253 OA
ATOM      6  N   UNL     1      -2.812   4.246  25.586  0.00  0.00    -0.297 N 
ATOM      7  N   UNL     1      -4.844   3.135  25.120  0.00  0.00    -0.281 N 
ATOM     15  C   UNL     1      -3.611   3.608  24.644  0.00  0.00    +0.302 C 
ATOM     16  C   UNL     1      -5.754   2.457  24.194  0.00  0.00    +0.137 C 
ATOM     17  C   UNL     1      -5.411   3.379  26.455  0.00  0.00    +0.137 C 
ATOM     19  C   UNL     1      -6.381   1.232  24.843  0.00  0.00    +0.179 C 
ATOM     20  C   UNL     1      -6.078   2.121  26.999  0.00  0.00    +0.179 C 
ATOM     26  H   UNL     1      -3.110   4.369  26.543  0.00  0.00    +0.150 HD
ENDBRANCH  13   6
ENDBRANCH  11  13
TORSDOF 6
ENDMDL
MODEL 5
REMARK VINA RESULT:      -3.2      1.584      4.899
REMARK  Name = 75536758
REMARK  6 active torsions:
REMARK  status: ('A' for Active; 'I' for Inactive)
REMARK    1  A    between atoms: O_2  and  C_10
REMARK    2  A    between atoms: N_5  and  C_9
REMARK    3  A    between atoms: N_5  and  C_14
REMARK    4  A    between atoms: N_6  and  C_13
REMARK    5  A    between atoms: C_11  and  C_13
REMARK    6  A    between atoms: C_14  and  C_18
REMARK                            x       y       z     vdW  Elec       q    Type
REMARK                         _______ _______ _______ _____ _____    ______ ____
ROOT
ATOM      1  O   UNL     1      -2.170  -2.866  25.157  0.00  0.00    -0.371 OA
ATOM      9  C   UNL     1      -3.820  -1.621  23.987  0.00  0.00    +0.111 C 
ATOM     10  C   UNL     1      -2.537  -0.812  24.042  0.00  0.00    +0.164 C 
ATOM     11  C   UNL     1      -1.512  -1.906  24.313  0.00  0.00    +0.165 C 
ATOM     12  C   UNL     1      -3.587  -2.631  25.099  0.00  0.00    +0.181 C 
ENDROOT
BRANCH  10   2
ATOM      2  O   UNL     1      -2.271  -0.128  22.834  0.00  0.00    -0.388 OA
ATOM     27  H   UNL     1      -1.431   0.352  22.933  0.00  0.00    +0.210 HD
ENDBRANCH  10   2
BRANCH   9   5
ATOM      5  N   UNL     1      -5.020  -0.826  24.186  0.00  0.00    -0.305 NA
ATOM     25  H   UNL     1      -5.829  -1.447  24.221  0.00  0.00    +0.123 HD
BRANCH   5  14
ATOM     14  C   UNL     1      -4.950  -0.073  25.433  0.00  0.00    +0.118 C 
BRANCH  14  18
ATOM      8  N   UNL     1      -5.711   3.619  25.778  0.00  0.00    -0.263 NA
ATOM     18  C   UNL     1      -4.917   1.412  25.190  0.00  0.00    -0.015 A 
ATOM     21  C   UNL     1      -4.109   1.959  24.200  0.00  0.00    +0.008 A 
ATOM     22  C   UNL     1      -5.693   2.278  25.946  0.00  0.00    +0.115 A 
ATOM     23  C   UNL     1      -4.100   3.336  23.998  0.00  0.00    +0.020 A 
ATOM     24  C   UNL     1      -4.911   4.115  24.806  0.00  0.00    +0.111 A 
ENDBRANCH  14  18
ENDBRANCH   5  14
ENDBRANCH   9   5
BRANCH  11  13
ATOM     13  C   UNL     1      -0.257  -1.397  24.997  0.00  0.00    +0.140 C 
BRANCH  13   6
ATOM      3  O   UNL     1      -0.916   4.977  25.356  0.00  0.00    -0.377 OA
ATOM      4  O   UNL     1       0.551   0.713  23.319  0.00  0.00    -0.253 OA
ATOM      6  N   UNL     1      -0.357   0.013  25.306  0.00  0.00    -0.297 N 
ATOM      7  N   UNL     1      -0.091   2.319  24.865  0.00  0.00    -0.281 N 
ATOM     15  C   UNL     1       0.066   0.996  24.419  0.00  0.00    +0.302 C 
ATOM     16  C   UNL     1       0.337   3.420  23.998  0.00  0.00    +0.137 C 
ATOM     17  C   UNL     1      -0.514   2.737  26.210  0.00  0.00    +0.137 C 
ATOM     19  C   UNL     1      -0.680   4.551  24.013  0.00  0.00    +0.179 C 
ATOM     20  C   UNL     1      -1.475   3.918  26.134  0.00  0.00    +0.179 C 
ATOM     26  H   UNL     1      -0.737   0.241  26.213  0.00  0.00    +0.150 HD
ENDBRANCH  13   6
ENDBRANCH  11  13
TORSDOF 6
ENDMDL
MODEL 6
REMARK VINA RESULT:      -3.2      1.908      4.042
REMARK  Name = 75536758
REMARK  6 active torsions:
REMARK  status: ('A' for Active; 'I' for Inactive)
REMARK    1  A    between atoms: O_2  and  C_10
REMARK    2  A    between atoms: N_5  and  C_9
REMARK    3  A    between atoms: N_5  and  C_14
REMARK    4  A    between atoms: N_6  and  C_13
REMARK    5  A    between atoms: C_11  and  C_13
REMARK    6  A    between atoms: C_14  and  C_18
REMARK                            x       y       z     vdW  Elec       q    Type
REMARK                         _______ _______ _______ _____ _____    ______ ____
ROOT
ATOM      1  O   UNL     1      -3.024   4.296  23.658  0.00  0.00    -0.371 OA
ATOM      9  C   UNL     1      -4.610   3.336  25.143  0.00  0.00    +0.111 C 
ATOM     10  C   UNL     1      -3.350   3.676  25.918  0.00  0.00    +0.164 C 
ATOM     11  C   UNL     1      -2.711   4.709  24.999  0.00  0.00    +0.165 C 
ATOM     12  C   UNL     1      -4.094   3.336  23.713  0.00  0.00    +0.181 C 
ENDROOT
BRANCH  10   2
ATOM      2  O   UNL     1      -3.625   4.208  27.199  0.00  0.00    -0.388 OA
ATOM     27  H   UNL     1      -3.925   3.484  27.773  0.00  0.00    +0.210 HD
ENDBRANCH  10   2
BRANCH   9   5
ATOM      5  N   UNL     1      -5.208   2.068  25.529  0.00  0.00    -0.305 NA
ATOM     25  H   UNL     1      -6.162   2.234  25.849  0.00  0.00    +0.123 HD
BRANCH   5  14
ATOM     14  C   UNL     1      -5.242   1.140  24.405  0.00  0.00    +0.118 C 
BRANCH  14  18
ATOM      8  N   UNL     1      -3.255  -1.474  26.289  0.00  0.00    -0.263 NA
ATOM     18  C   UNL     1      -4.539  -0.152  24.723  0.00  0.00    -0.015 A 
ATOM     21  C   UNL     1      -4.503  -1.195  23.804  0.00  0.00    +0.008 A 
ATOM     22  C   UNL     1      -3.905  -0.341  25.942  0.00  0.00    +0.115 A 
ATOM     23  C   UNL     1      -3.844  -2.376  24.125  0.00  0.00    +0.020 A 
ATOM     24  C   UNL     1      -3.242  -2.465  25.370  0.00  0.00    +0.111 A 
ENDBRANCH  14  18
ENDBRANCH   5  14
ENDBRANCH   9   5
BRANCH  11  13
ATOM     13  C   UNL     1      -1.207   4.813  25.167  0.00  0.00    +0.140 C 
BRANCH  13   6
ATOM      3  O   UNL     1       0.857  -0.966  23.286  0.00  0.00    -0.377 OA
ATOM      4  O   UNL     1      -1.558   2.220  26.202  0.00  0.00    -0.253 OA
ATOM      6  N   UNL     1      -0.539   3.619  24.697  0.00  0.00    -0.297 N 
ATOM      7  N   UNL     1      -0.040   1.309  24.703  0.00  0.00    -0.281 N 
ATOM     15  C   UNL     1      -0.769   2.371  25.263  0.00  0.00    +0.302 C 
ATOM     16  C   UNL     1      -0.214  -0.041  25.244  0.00  0.00    +0.137 C 
ATOM     17  C   UNL     1       1.025   1.425  23.695  0.00  0.00    +0.137 C 
ATOM     19  C   UNL     1      -0.293  -1.070  24.127  0.00  0.00    +0.179 C 
ATOM     20  C   UNL     1       0.911   0.314  22.657  0.00  0.00    +0.179 C 
ATOM     26  H   UNL     1       0.120   3.748  23.942  0.00  0.00    +0.150 HD
ENDBRANCH  13   6
ENDBRANCH  11  13
TORSDOF 6
ENDMDL
MODEL 7
REMARK VINA RESULT:      -2.8     14.671     17.028
REMARK  Name = 75536758
REMARK  6 active torsions:
REMARK  status: ('A' for Active; 'I' for Inactive)
REMARK    1  A    between atoms: O_2  and  C_10
REMARK    2  A    between atoms: N_5  and  C_9
REMARK    3  A    between atoms: N_5  and  C_14
REMARK    4  A    between atoms: N_6  and  C_13
REMARK    5  A    between atoms: C_11  and  C_13
REMARK    6  A    between atoms: C_14  and  C_18
REMARK                            x       y       z     vdW  Elec       q    Type
REMARK                         _______ _______ _______ _____ _____    ______ ____
ROOT
ATOM      1  O   UNL     1      -0.782 -10.140  13.478  0.00  0.00    -0.371 OA
ATOM      9  C   UNL     1      -2.789 -10.620  14.654  0.00  0.00    +0.111 C 
ATOM     10  C   UNL     1      -3.138 -10.094  13.274  0.00  0.00    +0.164 C 
ATOM     11  C   UNL     1      -1.837 -10.351  12.525  0.00  0.00    +0.165 C 
ATOM     12  C   UNL     1      -1.350 -10.153  14.799  0.00  0.00    +0.181 C 
ENDROOT
BRANCH  10   2
ATOM      2  O   UNL     1      -4.228 -10.779  12.689  0.00  0.00    -0.388 OA
ATOM     27  H   UNL     1      -4.105 -10.782  11.724  0.00  0.00    +0.210 HD
ENDBRANCH  10   2
BRANCH   9   5
ATOM      5  N   UNL     1      -3.656 -10.116  15.707  0.00  0.00    -0.305 NA
ATOM     25  H   UNL     1      -3.454  -9.128  15.860  0.00  0.00    +0.123 HD
BRANCH   5  14
ATOM     14  C   UNL     1      -5.061 -10.260  15.343  0.00  0.00    +0.118 C 
BRANCH  14  18
ATOM      8  N   UNL     1      -8.109  -9.584  17.483  0.00  0.00    -0.263 NA
ATOM     18  C   UNL     1      -5.962 -10.183  16.547  0.00  0.00    -0.015 A 
ATOM     21  C   UNL     1      -5.528 -10.611  17.796  0.00  0.00    +0.008 A 
ATOM     22  C   UNL     1      -7.251  -9.682  16.444  0.00  0.00    +0.115 A 
ATOM     23  C   UNL     1      -6.383 -10.526  18.890  0.00  0.00    +0.020 A 
ATOM     24  C   UNL     1      -7.652 -10.011  18.683  0.00  0.00    +0.111 A 
ENDBRANCH  14  18
ENDBRANCH   5  14
ENDBRANCH   9   5
BRANCH  11  13
ATOM     13  C   UNL     1      -1.641  -9.434  11.331  0.00  0.00    +0.140 C 
BRANCH  13   6
ATOM      3  O   UNL     1      -7.437  -8.583   8.710  0.00  0.00    -0.377 OA
ATOM      4  O   UNL     1      -2.963 -10.646   9.162  0.00  0.00    -0.253 OA
ATOM      6  N   UNL     1      -2.907  -9.013  10.773  0.00  0.00    -0.297 N 
ATOM      7  N   UNL     1      -4.722  -9.137   9.264  0.00  0.00    -0.281 N 
ATOM     15  C   UNL     1      -3.496  -9.668   9.697  0.00  0.00    +0.302 C 
ATOM     16  C   UNL     1      -5.409  -9.760   8.130  0.00  0.00    +0.137 C 
ATOM     17  C   UNL     1      -5.346  -7.895   9.742  0.00  0.00    +0.137 C 
ATOM     19  C   UNL     1      -6.903  -9.869   8.391  0.00  0.00    +0.179 C 
ATOM     20  C   UNL     1      -6.851  -8.073   9.908  0.00  0.00    +0.179 C 
ATOM     26  H   UNL     1      -3.332  -8.203  11.201  0.00  0.00    +0.150 HD
ENDBRANCH  13   6
ENDBRANCH  11  13
TORSDOF 6
ENDMDL
MODEL 8
REMARK VINA RESULT:      -2.7      2.082      5.053
REMARK  Name = 75536758
REMARK  6 active torsions:
REMARK  status: ('A' for Active; 'I' for Inactive)
REMARK    1  A    between atoms: O_2  and  C_10
REMARK    2  A    between atoms: N_5  and  C_9
REMARK    3  A    between atoms: N_5  and  C_14
REMARK    4  A    between atoms: N_6  and  C_13
REMARK    5  A    between atoms: C_11  and  C_13
REMARK    6  A    between atoms: C_14  and  C_18
REMARK                            x       y       z     vdW  Elec       q    Type
REMARK                         _______ _______ _______ _____ _____    ______ ____
ROOT
ATOM      1  O   UNL     1      -3.730  -1.126  26.287  0.00  0.00    -0.371 OA
ATOM      9  C   UNL     1      -4.654   0.324  24.647  0.00  0.00    +0.111 C 
ATOM     10  C   UNL     1      -3.602  -0.554  23.995  0.00  0.00    +0.164 C 
ATOM     11  C   UNL     1      -3.525  -1.706  24.987  0.00  0.00    +0.165 C 
ATOM     12  C   UNL     1      -4.290   0.188  26.117  0.00  0.00    +0.181 C 
ENDROOT
BRANCH  10   2
ATOM      2  O   UNL     1      -3.982  -0.993  22.705  0.00  0.00    -0.388 OA
ATOM     27  H   UNL     1      -4.254  -1.924  22.767  0.00  0.00    +0.210 HD
ENDBRANCH  10   2
BRANCH   9   5
ATOM      5  N   UNL     1      -4.634   1.702  24.184  0.00  0.00    -0.305 NA
ATOM     25  H   UNL     1      -5.557   1.946  23.825  0.00  0.00    +0.123 HD
BRANCH   5  14
ATOM     14  C   UNL     1      -4.293   2.616  25.268  0.00  0.00    +0.118 C 
BRANCH  14  18
ATOM      8  N   UNL     1      -0.769   3.249  24.039  0.00  0.00    -0.263 NA
ATOM     18  C   UNL     1      -2.974   3.301  25.030  0.00  0.00    -0.015 A 
ATOM     21  C   UNL     1      -2.719   4.565  25.549  0.00  0.00    +0.008 A 
ATOM     22  C   UNL     1      -1.975   2.691  24.288  0.00  0.00    +0.115 A 
ATOM     23  C   UNL     1      -1.490   5.172  25.315  0.00  0.00    +0.020 A 
ATOM     24  C   UNL     1      -0.558   4.479  24.559  0.00  0.00    +0.111 A 
ENDBRANCH  14  18
ENDBRANCH   5  14
ENDBRANCH   9   5
BRANCH  11  13
ATOM     13  C   UNL     1      -2.196  -2.437  24.956  0.00  0.00    +0.140 C 
BRANCH  13   6
ATOM      3  O   UNL     1       2.588   0.549  21.893  0.00  0.00    -0.377 OA
ATOM      4  O   UNL     1      -0.526  -0.281  25.647  0.00  0.00    -0.253 OA
ATOM      6  N   UNL     1      -1.253  -1.785  24.074  0.00  0.00    -0.297 N 
ATOM      7  N   UNL     1       0.400  -0.188  23.522  0.00  0.00    -0.281 N 
ATOM     15  C   UNL     1      -0.462  -0.722  24.495  0.00  0.00    +0.302 C 
ATOM     16  C   UNL     1       1.264   0.940  23.876  0.00  0.00    +0.137 C 
ATOM     17  C   UNL     1       0.429  -0.550  22.097  0.00  0.00    +0.137 C 
ATOM     19  C   UNL     1       2.662   0.756  23.304  0.00  0.00    +0.179 C 
ATOM     20  C   UNL     1       1.864  -0.644  21.591  0.00  0.00    +0.179 C 
ATOM     26  H   UNL     1      -1.216  -2.135  23.128  0.00  0.00    +0.150 HD
ENDBRANCH  13   6
ENDBRANCH  11  13
TORSDOF 6
ENDMDL
MODEL 9
REMARK VINA RESULT:      -2.4      1.892      4.675
REMARK  Name = 75536758
REMARK  6 active torsions:
REMARK  status: ('A' for Active; 'I' for Inactive)
REMARK    1  A    between atoms: O_2  and  C_10
REMARK    2  A    between atoms: N_5  and  C_9
REMARK    3  A    between atoms: N_5  and  C_14
REMARK    4  A    between atoms: N_6  and  C_13
REMARK    5  A    between atoms: C_11  and  C_13
REMARK    6  A    between atoms: C_14  and  C_18
REMARK                            x       y       z     vdW  Elec       q    Type
REMARK                         _______ _______ _______ _____ _____    ______ ____
ROOT
ATOM      1  O   UNL     1      -0.498  -1.325  23.019  0.00  0.00    -0.371 OA
ATOM      9  C   UNL     1       0.571   0.061  24.625  0.00  0.00    +0.111 C 
ATOM     10  C   UNL     1      -0.836  -0.253  25.100  0.00  0.00    +0.164 C 
ATOM     11  C   UNL     1      -1.147  -1.504  24.289  0.00  0.00    +0.165 C 
ATOM     12  C   UNL     1       0.469  -0.267  23.145  0.00  0.00    +0.181 C 
ENDROOT
BRANCH  10   2
ATOM      2  O   UNL     1      -0.899  -0.498  26.492  0.00  0.00    -0.388 OA
ATOM     27  H   UNL     1      -1.102   0.339  26.941  0.00  0.00    +0.210 HD
ENDBRANCH  10   2
BRANCH   9   5
ATOM      5  N   UNL     1       0.978   1.435  24.874  0.00  0.00    -0.305 NA
ATOM     25  H   UNL     1       1.989   1.508  24.758  0.00  0.00    +0.123 HD
BRANCH   5  14
ATOM     14  C   UNL     1       0.328   2.351  23.946  0.00  0.00    +0.118 C 
BRANCH  14  18
ATOM      8  N   UNL     1      -1.402   5.566  24.946  0.00  0.00    -0.263 NA
ATOM     18  C   UNL     1      -0.596   3.305  24.654  0.00  0.00    -0.015 A 
ATOM     21  C   UNL     1      -1.473   2.858  25.636  0.00  0.00    +0.008 A 
ATOM     22  C   UNL     1      -0.600   4.658  24.348  0.00  0.00    +0.115 A 
ATOM     23  C   UNL     1      -2.314   3.764  26.275  0.00  0.00    +0.020 A 
ATOM     24  C   UNL     1      -2.242   5.094  25.896  0.00  0.00    +0.111 A 
ENDBRANCH  14  18
ENDBRANCH   5  14
ENDBRANCH   9   5
BRANCH  11  13
ATOM     13  C   UNL     1      -2.633  -1.728  24.078  0.00  0.00    +0.140 C 
BRANCH  13   6
ATOM      3  O   UNL     1      -5.668   3.829  25.120  0.00  0.00    -0.377 OA
ATOM      4  O   UNL     1      -4.318  -0.820  26.141  0.00  0.00    -0.253 OA
ATOM      6  N   UNL     1      -3.363  -0.480  24.082  0.00  0.00    -0.297 N 
ATOM      7  N   UNL     1      -4.825   1.135  24.999  0.00  0.00    -0.281 N 
ATOM     15  C   UNL     1      -4.177  -0.103  25.144  0.00  0.00    +0.302 C 
ATOM     16  C   UNL     1      -5.710   1.607  26.067  0.00  0.00    +0.137 C 
ATOM     17  C   UNL     1      -4.833   1.973  23.791  0.00  0.00    +0.137 C 
ATOM     19  C   UNL     1      -5.502   3.090  26.331  0.00  0.00    +0.179 C 
ATOM     20  C   UNL     1      -4.690   3.447  24.153  0.00  0.00    +0.179 C 
ATOM     26  H   UNL     1      -3.260   0.096  23.260  0.00  0.00    +0.150 HD
ENDBRANCH  13   6
ENDBRANCH  11  13
TORSDOF 6
ENDMDL
MODEL 10
REMARK VINA RESULT:      -1.8      1.896      4.796
REMARK  Name = 75536758
REMARK  6 active torsions:
REMARK  status: ('A' for Active; 'I' for Inactive)
REMARK    1  A    between atoms: O_2  and  C_10
REMARK    2  A    between atoms: N_5  and  C_9
REMARK    3  A    between atoms: N_5  and  C_14
REMARK    4  A    between atoms: N_6  and  C_13
REMARK    5  A    between atoms: C_11  and  C_13
REMARK    6  A    between atoms: C_14  and  C_18
REMARK                            x       y       z     vdW  Elec       q    Type
REMARK                         _______ _______ _______ _____ _____    ______ ____
ROOT
ATOM      1  O   UNL     1      -5.422   0.367  26.117  0.00  0.00    -0.371 OA
ATOM      9  C   UNL     1      -5.255   2.180  24.591  0.00  0.00    +0.111 C 
ATOM     10  C   UNL     1      -4.026   1.300  24.451  0.00  0.00    +0.164 C 
ATOM     11  C   UNL     1      -4.530  -0.005  25.053  0.00  0.00    +0.165 C 
ATOM     12  C   UNL     1      -5.779   1.751  25.952  0.00  0.00    +0.181 C 
ENDROOT
BRANCH  10   2
ATOM      2  O   UNL     1      -3.622   1.138  23.105  0.00  0.00    -0.388 OA
ATOM     27  H   UNL     1      -4.367   1.381  22.531  0.00  0.00    +0.210 HD
ENDBRANCH  10   2
BRANCH   9   5
ATOM      5  N   UNL     1      -4.965   3.603  24.518  0.00  0.00    -0.305 NA
ATOM     25  H   UNL     1      -5.838   4.113  24.382  0.00  0.00    +0.123 HD
BRANCH   5  14
ATOM     14  C   UNL     1      -4.330   4.072  25.744  0.00  0.00    +0.118 C 
BRANCH  14  18
ATOM      8  N   UNL     1      -0.855   5.205  24.760  0.00  0.00    -0.263 NA
ATOM     18  C   UNL     1      -2.830   4.108  25.620  0.00  0.00    -0.015 A 
ATOM     21  C   UNL     1      -2.038   3.132  26.214  0.00  0.00    +0.008 A 
ATOM     22  C   UNL     1      -2.195   5.115  24.910  0.00  0.00    +0.115 A 
ATOM     23  C   UNL     1      -0.655   3.190  26.081  0.00  0.00    +0.020 A 
ATOM     24  C   UNL     1      -0.117   4.238  25.351  0.00  0.00    +0.111 A 
ENDBRANCH  14  18
ENDBRANCH   5  14
ENDBRANCH   9   5
BRANCH  11  13
ATOM     13  C   UNL     1      -3.418  -0.882  25.599  0.00  0.00    +0.140 C 
BRANCH  13   6
ATOM      3  O   UNL     1       2.170   0.801  22.929  0.00  0.00    -0.377 OA
ATOM      4  O   UNL     1      -1.581  -2.254  23.969  0.00  0.00    -0.253 OA
ATOM      6  N   UNL     1      -2.116  -0.395  25.202  0.00  0.00    -0.297 N 
ATOM      7  N   UNL     1      -0.031  -0.533  24.097  0.00  0.00    -0.281 N 
ATOM     15  C   UNL     1      -1.265  -1.137  24.391  0.00  0.00    +0.302 C 
ATOM     16  C   UNL     1       0.931  -1.248  23.256  0.00  0.00    +0.137 C 
ATOM     17  C   UNL     1       0.483   0.716  24.678  0.00  0.00    +0.137 C 
ATOM     19  C   UNL     1       1.579  -0.308  22.250  0.00  0.00    +0.179 C 
ATOM     20  C   UNL     1       1.176   1.563  23.616  0.00  0.00    +0.179 C 
ATOM     26  H   UNL     1      -1.853   0.510  25.563  0.00  0.00    +0.150 HD
ENDBRANCH  13   6
ENDBRANCH  11  13
TORSDOF 6
ENDMDL
