MODEL 1
REMARK VINA RESULT:      -1.5      0.000      0.000
REMARK  Name = 45361514
REMARK  11 active torsions:
REMARK  status: ('A' for Active; 'I' for Inactive)
REMARK    1  A    between atoms: O_1  and  C_9
REMARK    2  A    between atoms: N_4  and  C_13
REMARK    3  A    between atoms: N_5  and  C_23
REMARK    4  A    between atoms: C_6  and  C_16
REMARK    5  A    between atoms: C_8  and  C_18
REMARK    6  A    between atoms: C_12  and  C_17
REMARK    7  A    between atoms: C_17  and  C_19
REMARK    8  A    between atoms: C_17  and  C_20
REMARK    9  A    between atoms: C_21  and  C_22
REMARK   10  A    between atoms: C_22  and  C_24
REMARK   11  A    between atoms: C_23  and  C_25
REMARK                            x       y       z     vdW  Elec       q    Type
REMARK                         _______ _______ _______ _____ _____    ______ ____
ROOT
ATOM      6  C   UNL     1      -2.312  -0.837  25.274  0.00  0.00    -0.027 C 
ATOM      7  C   UNL     1      -2.494   0.233  24.146  0.00  0.00    +0.028 C 
ATOM      8  C   UNL     1      -1.106   0.822  23.707  0.00  0.00    +0.012 C 
ATOM      9  C   UNL     1      -3.574   1.283  24.534  0.00  0.00    +0.122 C 
ATOM     10  C   UNL     1      -3.682  -1.478  25.603  0.00  0.00    +0.007 C 
ATOM     11  C   UNL     1      -1.380  -1.958  24.762  0.00  0.00    +0.009 C 
ATOM     12  C   UNL     1      -4.910   0.632  24.961  0.00  0.00    +0.029 C 
ATOM     13  C   UNL     1      -0.150  -0.322  23.264  0.00  0.00    +0.076 C 
ATOM     14  C   UNL     1      -4.731  -0.455  26.021  0.00  0.00    +0.007 C 
ATOM     15  C   UNL     1      -0.025  -1.443  24.296  0.00  0.00    +0.023 C 
ATOM     16  C   UNL     1      -1.720  -0.236  26.574  0.00  0.00    +0.011 C 
ATOM     18  C   UNL     1      -1.207   1.862  22.578  0.00  0.00    +0.010 C 
ENDROOT
BRANCH  13   4
ATOM      3  O   UNL     1       1.323  -0.711  20.823  0.00  0.00    -0.275 OA
ATOM      4  N   UNL     1       1.177   0.174  22.964  0.00  0.00    -0.312 N 
ATOM     21  C   UNL     1       1.804  -0.067  21.752  0.00  0.00    +0.218 C 
ATOM     36  H   UNL     1       1.675   0.662  23.701  0.00  0.00    +0.149 HD
BRANCH  21  22
ATOM     22  C   UNL     1       3.178   0.571  21.704  0.00  0.00    +0.130 C 
BRANCH  22  24
ATOM     24  C   UNL     1       4.112   0.060  22.770  0.00  0.00    -0.039 A 
ATOM     26  C   UNL     1       5.056   0.916  23.337  0.00  0.00    +0.004 A 
ATOM     27  C   UNL     1       4.032  -1.267  23.189  0.00  0.00    +0.004 A 
ATOM     30  C   UNL     1       5.921   0.443  24.325  0.00  0.00    +0.000 A 
ATOM     31  C   UNL     1       4.897  -1.740  24.176  0.00  0.00    +0.000 A 
ATOM     32  C   UNL     1       5.841  -0.885  24.745  0.00  0.00    +0.000 A 
ENDBRANCH  22  24
ENDBRANCH  21  22
ENDBRANCH  13   4
BRANCH   9   1
ATOM      1  O   UNL     1      -3.865   2.107  23.404  0.00  0.00    -0.391 OA
ATOM     37  H   UNL     1      -4.069   1.526  22.651  0.00  0.00    +0.210 HD
ENDBRANCH   9   1
BRANCH  12  17
ATOM     17  C   UNL     1      -5.916   1.675  25.463  0.00  0.00    +0.077 C 
ATOM     19  C   UNL     1      -7.103   1.759  24.511  0.00  0.00    +0.017 C 
BRANCH  17  20
ATOM      2  O   UNL     1      -5.584   4.028  24.996  0.00  0.00    -0.276 OA
ATOM      5  N   UNL     1      -4.180   2.991  26.523  0.00  0.00    -0.311 N 
ATOM     20  C   UNL     1      -5.229   3.028  25.618  0.00  0.00    +0.216 C 
ATOM     38  H   UNL     1      -3.974   2.131  27.022  0.00  0.00    +0.149 HD
BRANCH   5  23
ATOM     23  C   UNL     1      -3.376   4.150  26.836  0.00  0.00    +0.139 C 
BRANCH  23  25
ATOM     25  C   UNL     1      -2.090   4.169  26.061  0.00  0.00    -0.030 A 
ATOM     28  C   UNL     1      -1.136   3.174  26.270  0.00  0.00    +0.005 A 
ATOM     29  C   UNL     1      -1.851   5.180  25.131  0.00  0.00    +0.005 A 
ATOM     33  C   UNL     1       0.059   3.191  25.550  0.00  0.00    +0.000 A 
ATOM     34  C   UNL     1      -0.656   5.198  24.412  0.00  0.00    +0.000 A 
ATOM     35  C   UNL     1       0.298   4.203  24.621  0.00  0.00    +0.000 A 
ENDBRANCH  23  25
ENDBRANCH   5  23
ENDBRANCH  17  20
ENDBRANCH  12  17
TORSDOF 8
ENDMDL
