MODEL 1
REMARK VINA RESULT:      15.1      0.000      0.000
REMARK  Name = 51136839
REMARK  7 active torsions:
REMARK  status: ('A' for Active; 'I' for Inactive)
REMARK    1  A    between atoms: S_1  and  C_31
REMARK    2  A    between atoms: S_1  and  C_36
REMARK    3  A    between atoms: N_6  and  C_16
REMARK    4  A    between atoms: C_12  and  C_17
REMARK    5  A    between atoms: C_16  and  C_18
REMARK    6  A    between atoms: C_23  and  C_27
REMARK    7  A    between atoms: C_32  and  C_35
REMARK                            x       y       z     vdW  Elec       q    Type
REMARK                         _______ _______ _______ _____ _____    ______ ____
ROOT
ATOM      2  O   UNL     1      -5.596   1.379  25.307  0.00  0.00    -0.336 OA
ATOM      8  N   UNL     1      -3.381   1.615  25.075  0.00  0.00    -0.190 NA
ATOM     10  N   UNL     1      -5.096   0.103  25.016  0.00  0.00    -0.056 NA
ATOM     17  C   UNL     1      -4.520   2.209  25.322  0.00  0.00    +0.245 A 
ATOM     23  C   UNL     1      -3.784   0.324  24.894  0.00  0.00    +0.202 A 
ENDROOT
BRANCH  23  27
ATOM      3  O   UNL     1       4.994   0.821  21.993  0.00  0.00    -0.276 OA
ATOM      7  N   UNL     1       0.659  -1.133  23.720  0.00  0.00    -0.312 N 
ATOM      9  N   UNL     1       3.406  -0.400  23.171  0.00  0.00    -0.299 N 
ATOM     11  N   UNL     1      -1.029  -2.760  23.999  0.00  0.00    -0.240 NA
ATOM     19  C   UNL     1       1.753  -2.056  24.034  0.00  0.00    +0.125 C 
ATOM     20  C   UNL     1       0.989   0.129  23.052  0.00  0.00    +0.125 C 
ATOM     21  C   UNL     1       3.054  -1.291  24.279  0.00  0.00    +0.126 C 
ATOM     22  C   UNL     1       2.310   0.011  22.296  0.00  0.00    +0.126 C 
ATOM     26  C   UNL     1      -0.663  -1.458  24.011  0.00  0.00    +0.122 A 
ATOM     27  C   UNL     1      -2.849  -0.722  24.589  0.00  0.00    +0.027 A 
ATOM     28  C   UNL     1      -1.525  -0.413  24.297  0.00  0.00    +0.055 A 
ATOM     32  C   UNL     1       4.696   0.071  22.925  0.00  0.00    +0.213 C 
ATOM     33  C   UNL     1      -3.265  -2.049  24.586  0.00  0.00    +0.031 A 
ATOM     34  C   UNL     1      -2.324  -3.022  24.287  0.00  0.00    +0.113 A 
ATOM     35  C   UNL     1       5.767  -0.395  23.881  0.00  0.00    +0.109 C 
ENDBRANCH  23  27
BRANCH  17  12
ATOM      6  N   UNL     1      -4.658   4.527  24.425  0.00  0.00    -0.287 NA
ATOM     12  C   UNL     1      -4.798   3.668  25.619  0.00  0.00    +0.146 C 
ATOM     13  C   UNL     1      -6.238   3.911  26.108  0.00  0.00    +0.030 C 
ATOM     14  C   UNL     1      -6.806   4.964  25.167  0.00  0.00    +0.017 C 
ATOM     15  C   UNL     1      -5.573   5.652  24.616  0.00  0.00    +0.085 C 
BRANCH   6  16
ATOM     16  C   UNL     1      -3.289   4.967  24.193  0.00  0.00    +0.120 C 
BRANCH  16  18
ATOM     18  C   UNL     1      -2.318   4.299  25.131  0.00  0.00    -0.033 A 
ATOM     24  C   UNL     1      -1.154   3.717  24.631  0.00  0.00    +0.007 A 
ATOM     25  C   UNL     1      -2.583   4.264  26.501  0.00  0.00    +0.007 A 
ATOM     29  C   UNL     1      -0.255   3.098  25.499  0.00  0.00    +0.027 A 
ATOM     30  C   UNL     1      -1.684   3.646  27.369  0.00  0.00    +0.027 A 
ATOM     31  C   UNL     1      -0.519   3.064  26.868  0.00  0.00    +0.088 A 
BRANCH  31   1
ATOM      1  S   UNL     1       0.608   2.293  27.956  0.00  0.00    -0.006 S 
ATOM      4  O   UNL     1       0.297   0.872  28.029  0.00  0.00    -0.170 OA
ATOM      5  O   UNL     1       1.950   2.720  27.587  0.00  0.00    -0.170 OA
ATOM     36  C   UNL     1       0.231   2.988  29.549  0.00  0.00    +0.200 C 
ENDBRANCH  31   1
ENDBRANCH  16  18
ENDBRANCH   6  16
ENDBRANCH  17  12
TORSDOF 5
ENDMDL
MODEL 2
REMARK VINA RESULT:      15.2      2.726      4.632
REMARK  Name = 51136839
REMARK  7 active torsions:
REMARK  status: ('A' for Active; 'I' for Inactive)
REMARK    1  A    between atoms: S_1  and  C_31
REMARK    2  A    between atoms: S_1  and  C_36
REMARK    3  A    between atoms: N_6  and  C_16
REMARK    4  A    between atoms: C_12  and  C_17
REMARK    5  A    between atoms: C_16  and  C_18
REMARK    6  A    between atoms: C_23  and  C_27
REMARK    7  A    between atoms: C_32  and  C_35
REMARK                            x       y       z     vdW  Elec       q    Type
REMARK                         _______ _______ _______ _____ _____    ______ ____
ROOT
ATOM      2  O   UNL     1      -0.594   4.393  24.152  0.00  0.00    -0.336 OA
ATOM      8  N   UNL     1      -1.511   2.355  24.310  0.00  0.00    -0.190 NA
ATOM     10  N   UNL     1       0.436   3.480  23.893  0.00  0.00    -0.056 NA
ATOM     17  C   UNL     1      -1.706   3.647  24.388  0.00  0.00    +0.245 A 
ATOM     23  C   UNL     1      -0.182   2.301  24.004  0.00  0.00    +0.202 A 
ENDROOT
BRANCH  23  27
ATOM      3  O   UNL     1       8.792   0.544  22.560  0.00  0.00    -0.276 OA
ATOM      7  N   UNL     1       3.885  -0.239  23.507  0.00  0.00    -0.312 N 
ATOM      9  N   UNL     1       6.779  -0.227  23.428  0.00  0.00    -0.299 N 
ATOM     11  N   UNL     1       1.821  -1.385  23.459  0.00  0.00    -0.240 NA
ATOM     19  C   UNL     1       4.648  -1.405  23.961  0.00  0.00    +0.125 C 
ATOM     20  C   UNL     1       4.625   0.894  22.943  0.00  0.00    +0.125 C 
ATOM     21  C   UNL     1       6.040  -0.992  24.436  0.00  0.00    +0.126 C 
ATOM     22  C   UNL     1       5.979   0.440  22.403  0.00  0.00    +0.126 C 
ATOM     26  C   UNL     1       2.494  -0.218  23.572  0.00  0.00    +0.122 A 
ATOM     27  C   UNL     1       0.498   1.051  23.818  0.00  0.00    +0.027 A 
ATOM     28  C   UNL     1       1.887   1.014  23.752  0.00  0.00    +0.055 A 
ATOM     32  C   UNL     1       8.169  -0.099  23.407  0.00  0.00    +0.213 C 
ATOM     33  C   UNL     1      -0.230  -0.129  23.705  0.00  0.00    +0.031 A 
ATOM     34  C   UNL     1       0.473  -1.310  23.528  0.00  0.00    +0.113 A 
ATOM     35  C   UNL     1       8.919  -0.812  24.505  0.00  0.00    +0.109 C 
ENDBRANCH  23  27
BRANCH  17  12
ATOM      6  N   UNL     1      -3.972   3.587  25.413  0.00  0.00    -0.287 NA
ATOM     12  C   UNL     1      -2.977   4.410  24.697  0.00  0.00    +0.146 C 
ATOM     13  C   UNL     1      -2.734   5.619  25.619  0.00  0.00    +0.030 C 
ATOM     14  C   UNL     1      -3.680   5.421  26.795  0.00  0.00    +0.017 C 
ATOM     15  C   UNL     1      -4.755   4.509  26.237  0.00  0.00    +0.085 C 
BRANCH   6  16
ATOM     16  C   UNL     1      -4.814   2.800  24.523  0.00  0.00    +0.120 C 
BRANCH  16  18
ATOM     18  C   UNL     1      -4.408   1.349  24.505  0.00  0.00    -0.033 A 
ATOM     24  C   UNL     1      -4.439   0.602  25.681  0.00  0.00    +0.007 A 
ATOM     25  C   UNL     1      -4.001   0.754  23.310  0.00  0.00    +0.007 A 
ATOM     29  C   UNL     1      -4.063  -0.741  25.664  0.00  0.00    +0.027 A 
ATOM     30  C   UNL     1      -3.625  -0.589  23.293  0.00  0.00    +0.027 A 
ATOM     31  C   UNL     1      -3.657  -1.337  24.470  0.00  0.00    +0.088 A 
BRANCH  31   1
ATOM      1  S   UNL     1      -3.189  -3.019  24.448  0.00  0.00    -0.006 S 
ATOM      4  O   UNL     1      -1.899  -3.142  23.783  0.00  0.00    -0.170 OA
ATOM      5  O   UNL     1      -3.362  -3.549  25.793  0.00  0.00    -0.170 OA
ATOM     36  C   UNL     1      -4.391  -3.798  23.394  0.00  0.00    +0.200 C 
ENDBRANCH  31   1
ENDBRANCH  16  18
ENDBRANCH   6  16
ENDBRANCH  17  12
TORSDOF 5
ENDMDL
MODEL 3
REMARK VINA RESULT:      15.9      2.234      7.435
REMARK  Name = 51136839
REMARK  7 active torsions:
REMARK  status: ('A' for Active; 'I' for Inactive)
REMARK    1  A    between atoms: S_1  and  C_31
REMARK    2  A    between atoms: S_1  and  C_36
REMARK    3  A    between atoms: N_6  and  C_16
REMARK    4  A    between atoms: C_12  and  C_17
REMARK    5  A    between atoms: C_16  and  C_18
REMARK    6  A    between atoms: C_23  and  C_27
REMARK    7  A    between atoms: C_32  and  C_35
REMARK                            x       y       z     vdW  Elec       q    Type
REMARK                         _______ _______ _______ _____ _____    ______ ____
ROOT
ATOM      2  O   UNL     1       1.808  -2.167  24.966  0.00  0.00    -0.336 OA
ATOM      8  N   UNL     1       0.512  -0.999  23.561  0.00  0.00    -0.190 NA
ATOM     10  N   UNL     1       0.486  -2.416  25.357  0.00  0.00    -0.056 NA
ATOM     17  C   UNL     1       1.733  -1.323  23.903  0.00  0.00    +0.245 A 
ATOM     23  C   UNL     1      -0.218  -1.694  24.481  0.00  0.00    +0.202 A 
ENDROOT
BRANCH  23  27
ATOM      3  O   UNL     1      -5.914   5.247  26.740  0.00  0.00    -0.276 OA
ATOM      7  N   UNL     1      -4.331   0.769  24.998  0.00  0.00    -0.312 N 
ATOM      9  N   UNL     1      -5.605   3.327  25.469  0.00  0.00    -0.299 N 
ATOM     11  N   UNL     1      -4.446  -1.542  24.531  0.00  0.00    -0.240 NA
ATOM     19  C   UNL     1      -5.646   1.064  24.423  0.00  0.00    +0.125 C 
ATOM     20  C   UNL     1      -3.720   1.772  25.875  0.00  0.00    +0.125 C 
ATOM     21  C   UNL     1      -5.833   2.569  24.236  0.00  0.00    +0.126 C 
ATOM     22  C   UNL     1      -4.788   2.675  26.490  0.00  0.00    +0.126 C 
ATOM     26  C   UNL     1      -3.691  -0.442  24.750  0.00  0.00    +0.122 A 
ATOM     27  C   UNL     1      -1.653  -1.642  24.499  0.00  0.00    +0.027 A 
ATOM     28  C   UNL     1      -2.306  -0.439  24.744  0.00  0.00    +0.055 A 
ATOM     32  C   UNL     1      -6.105   4.608  25.704  0.00  0.00    +0.213 C 
ATOM     33  C   UNL     1      -2.395  -2.795  24.270  0.00  0.00    +0.031 A 
ATOM     34  C   UNL     1      -3.777  -2.693  24.297  0.00  0.00    +0.113 A 
ATOM     35  C   UNL     1      -6.932   5.212  24.595  0.00  0.00    +0.109 C 
ENDBRANCH  23  27
BRANCH  17  12
ATOM      6  N   UNL     1       3.394   0.505  23.601  0.00  0.00    -0.287 NA
ATOM     12  C   UNL     1       3.048  -0.896  23.286  0.00  0.00    +0.146 C 
ATOM     13  C   UNL     1       4.242  -1.720  23.803  0.00  0.00    +0.030 C 
ATOM     14  C   UNL     1       5.233  -0.694  24.334  0.00  0.00    +0.017 C 
ATOM     15  C   UNL     1       4.856   0.579  23.603  0.00  0.00    +0.085 C 
BRANCH   6  16
ATOM     16  C   UNL     1       2.799   1.465  22.682  0.00  0.00    +0.120 C 
BRANCH  16  18
ATOM     18  C   UNL     1       1.640   2.196  23.309  0.00  0.00    -0.033 A 
ATOM     24  C   UNL     1       1.283   3.462  22.847  0.00  0.00    +0.007 A 
ATOM     25  C   UNL     1       0.924   1.606  24.351  0.00  0.00    +0.007 A 
ATOM     29  C   UNL     1       0.210   4.139  23.427  0.00  0.00    +0.027 A 
ATOM     30  C   UNL     1      -0.149   2.282  24.931  0.00  0.00    +0.027 A 
ATOM     31  C   UNL     1      -0.506   3.549  24.468  0.00  0.00    +0.088 A 
BRANCH  31   1
ATOM      1  S   UNL     1      -1.851   4.395  25.192  0.00  0.00    -0.006 S 
ATOM      4  O   UNL     1      -3.027   4.222  24.350  0.00  0.00    -0.170 OA
ATOM      5  O   UNL     1      -1.909   4.024  26.599  0.00  0.00    -0.170 OA
ATOM     36  C   UNL     1      -1.395   6.112  25.098  0.00  0.00    +0.200 C 
ENDBRANCH  31   1
ENDBRANCH  16  18
ENDBRANCH   6  16
ENDBRANCH  17  12
TORSDOF 5
ENDMDL
