MODEL 1
REMARK VINA RESULT:      -4.8      0.000      0.000
REMARK  Name = 40779427
REMARK  9 active torsions:
REMARK  status: ('A' for Active; 'I' for Inactive)
REMARK    1  A    between atoms: S_1  and  N_6
REMARK    2  A    between atoms: S_1  and  C_25
REMARK    3  A    between atoms: N_5  and  C_24
REMARK    4  A    between atoms: N_6  and  C_16
REMARK    5  A    between atoms: C_9  and  C_15
REMARK    6  A    between atoms: C_10  and  C_16
REMARK    7  A    between atoms: C_18  and  C_19
REMARK    8  A    between atoms: C_25  and  C_26
REMARK    9  A    between atoms: C_26  and  C_27
REMARK                            x       y       z     vdW  Elec       q    Type
REMARK                         _______ _______ _______ _____ _____    ______ ____
ROOT
ATOM      4  N   UNL     1      -3.595  -0.410  25.786  0.00  0.00    -0.297 NA
ATOM      8  C   UNL     1      -2.448  -2.043  24.112  0.00  0.00    +0.002 C 
ATOM      9  C   UNL     1      -1.382  -1.296  24.961  0.00  0.00    +0.055 C 
ATOM     10  C   UNL     1      -4.141  -0.202  24.419  0.00  0.00    +0.072 C 
ATOM     11  C   UNL     1      -3.333  -1.011  23.381  0.00  0.00    +0.024 C 
ATOM     12  C   UNL     1      -2.126  -0.205  25.783  0.00  0.00    +0.094 C 
ATOM     13  C   UNL     1      -3.358  -2.798  25.105  0.00  0.00    +0.019 C 
ATOM     14  C   UNL     1      -3.866  -1.815  26.175  0.00  0.00    +0.085 C 
ENDROOT
BRANCH   9  15
ATOM      5  N   UNL     1      -0.113   0.495  23.687  0.00  0.00    -0.271 N 
ATOM      7  N   UNL     1       1.063   0.790  23.108  0.00  0.00    -0.176 NA
ATOM     15  C   UNL     1      -0.154  -0.747  24.250  0.00  0.00    +0.044 A 
ATOM     17  C   UNL     1       1.083  -1.302  24.024  0.00  0.00    +0.048 A 
ATOM     19  C   UNL     1       1.789  -0.311  23.317  0.00  0.00    +0.066 A 
ATOM     24  C   UNL     1      -1.178   1.471  23.660  0.00  0.00    +0.172 C 
BRANCH  19  18
ATOM     18  C   UNL     1       3.212  -0.381  22.807  0.00  0.00    +0.040 C 
ATOM     20  C   UNL     1       3.927   0.981  22.865  0.00  0.00    +0.010 C 
ATOM     21  C   UNL     1       4.119  -1.363  23.576  0.00  0.00    +0.010 C 
ATOM     22  C   UNL     1       5.370   0.644  23.209  0.00  0.00    +0.001 C 
ATOM     23  C   UNL     1       5.229  -0.512  24.183  0.00  0.00    +0.001 C 
ENDBRANCH  19  18
ENDBRANCH   9  15
BRANCH  10  16
ATOM     16  C   UNL     1      -4.229   1.278  24.044  0.00  0.00    +0.124 C 
BRANCH  16   6
ATOM      6  N   UNL     1      -4.531   2.066  25.251  0.00  0.00    -0.193 NA
ATOM     28  H   UNL     1      -5.236   1.660  25.880  0.00  0.00    +0.148 HD
BRANCH   6   1
ATOM      1  S   UNL     1      -4.521   3.772  25.159  0.00  0.00    +0.029 S 
ATOM      2  O   UNL     1      -5.755   4.299  25.711  0.00  0.00    -0.158 OA
ATOM      3  O   UNL     1      -4.075   4.160  23.835  0.00  0.00    -0.158 OA
BRANCH   1  25
ATOM     25  C   UNL     1      -3.207   4.151  26.295  0.00  0.00    +0.185 C 
BRANCH  25  26
ATOM     26  C   UNL     1      -1.847   3.865  25.683  0.00  0.00    +0.021 C 
ATOM     27  C   UNL     1      -1.238   5.115  25.071  0.00  0.00    +0.005 C 
ENDBRANCH  25  26
ENDBRANCH   1  25
ENDBRANCH   6   1
ENDBRANCH  16   6
ENDBRANCH  10  16
TORSDOF 7
ENDMDL
MODEL 2
REMARK VINA RESULT:      -3.7      2.883      6.934
REMARK  Name = 40779427
REMARK  9 active torsions:
REMARK  status: ('A' for Active; 'I' for Inactive)
REMARK    1  A    between atoms: S_1  and  N_6
REMARK    2  A    between atoms: S_1  and  C_25
REMARK    3  A    between atoms: N_5  and  C_24
REMARK    4  A    between atoms: N_6  and  C_16
REMARK    5  A    between atoms: C_9  and  C_15
REMARK    6  A    between atoms: C_10  and  C_16
REMARK    7  A    between atoms: C_18  and  C_19
REMARK    8  A    between atoms: C_25  and  C_26
REMARK    9  A    between atoms: C_26  and  C_27
REMARK                            x       y       z     vdW  Elec       q    Type
REMARK                         _______ _______ _______ _____ _____    ______ ____
ROOT
ATOM      4  N   UNL     1      -0.339   3.913  25.521  0.00  0.00    -0.297 NA
ATOM      8  C   UNL     1      -2.258   3.749  23.767  0.00  0.00    +0.002 C 
ATOM      9  C   UNL     1      -2.725   3.187  25.138  0.00  0.00    +0.055 C 
ATOM     10  C   UNL     1       0.165   3.279  24.274  0.00  0.00    +0.072 C 
ATOM     11  C   UNL     1      -1.000   2.985  23.304  0.00  0.00    +0.024 C 
ATOM     12  C   UNL     1      -1.477   3.132  26.066  0.00  0.00    +0.094 C 
ATOM     13  C   UNL     1      -1.835   5.215  24.008  0.00  0.00    +0.019 C 
ATOM     14  C   UNL     1      -0.833   5.268  25.174  0.00  0.00    +0.085 C 
ENDROOT
BRANCH   9  15
ATOM      5  N   UNL     1      -4.858   1.831  25.359  0.00  0.00    -0.271 N 
ATOM      7  N   UNL     1      -5.363   0.585  25.331  0.00  0.00    -0.176 NA
ATOM     15  C   UNL     1      -3.512   1.885  25.150  0.00  0.00    +0.044 A 
ATOM     17  C   UNL     1      -3.107   0.583  24.972  0.00  0.00    +0.048 A 
ATOM     19  C   UNL     1      -4.288  -0.172  25.095  0.00  0.00    +0.066 A 
ATOM     24  C   UNL     1      -5.745   2.945  25.599  0.00  0.00    +0.172 C 
BRANCH  19  18
ATOM     18  C   UNL     1      -4.435  -1.674  24.986  0.00  0.00    +0.040 C 
ATOM     20  C   UNL     1      -4.484  -2.158  23.526  0.00  0.00    +0.010 C 
ATOM     21  C   UNL     1      -3.302  -2.478  25.656  0.00  0.00    +0.010 C 
ATOM     22  C   UNL     1      -3.759  -3.495  23.538  0.00  0.00    +0.001 C 
ATOM     23  C   UNL     1      -2.636  -3.268  24.534  0.00  0.00    +0.001 C 
ENDBRANCH  19  18
ENDBRANCH   9  15
BRANCH  10  16
ATOM     16  C   UNL     1       1.003   2.029  24.554  0.00  0.00    +0.124 C 
BRANCH  16   6
ATOM      6  N   UNL     1       1.633   1.579  23.302  0.00  0.00    -0.193 NA
ATOM     28  H   UNL     1       1.595   2.247  22.521  0.00  0.00    +0.148 HD
BRANCH   6   1
ATOM      1  S   UNL     1       1.538  -0.070  22.865  0.00  0.00    +0.029 S 
ATOM      2  O   UNL     1       1.391  -0.188  21.427  0.00  0.00    -0.158 OA
ATOM      3  O   UNL     1       0.612  -0.733  23.763  0.00  0.00    -0.158 OA
BRANCH   1  25
ATOM     25  C   UNL     1       3.176  -0.615  23.294  0.00  0.00    +0.185 C 
BRANCH  25  26
ATOM     26  C   UNL     1       4.206   0.471  23.034  0.00  0.00    +0.021 C 
ATOM     27  C   UNL     1       5.551   0.119  23.647  0.00  0.00    +0.005 C 
ENDBRANCH  25  26
ENDBRANCH   1  25
ENDBRANCH   6   1
ENDBRANCH  16   6
ENDBRANCH  10  16
TORSDOF 7
ENDMDL
MODEL 3
REMARK VINA RESULT:      -3.1      2.629      4.312
REMARK  Name = 40779427
REMARK  9 active torsions:
REMARK  status: ('A' for Active; 'I' for Inactive)
REMARK    1  A    between atoms: S_1  and  N_6
REMARK    2  A    between atoms: S_1  and  C_25
REMARK    3  A    between atoms: N_5  and  C_24
REMARK    4  A    between atoms: N_6  and  C_16
REMARK    5  A    between atoms: C_9  and  C_15
REMARK    6  A    between atoms: C_10  and  C_16
REMARK    7  A    between atoms: C_18  and  C_19
REMARK    8  A    between atoms: C_25  and  C_26
REMARK    9  A    between atoms: C_26  and  C_27
REMARK                            x       y       z     vdW  Elec       q    Type
REMARK                         _______ _______ _______ _____ _____    ______ ____
ROOT
ATOM      4  N   UNL     1      -4.477   2.616  23.788  0.00  0.00    -0.297 NA
ATOM      8  C   UNL     1      -2.818   2.788  25.789  0.00  0.00    +0.002 C 
ATOM      9  C   UNL     1      -2.076   3.028  24.445  0.00  0.00    +0.055 C 
ATOM     10  C   UNL     1      -4.627   1.433  24.676  0.00  0.00    +0.072 C 
ATOM     11  C   UNL     1      -3.516   1.412  25.748  0.00  0.00    +0.024 C 
ATOM     12  C   UNL     1      -3.080   2.712  23.299  0.00  0.00    +0.094 C 
ATOM     13  C   UNL     1      -3.928   3.857  25.882  0.00  0.00    +0.019 C 
ATOM     14  C   UNL     1      -4.769   3.828  24.594  0.00  0.00    +0.085 C 
ENDROOT
BRANCH   9  15
ATOM      5  N   UNL     1       0.194   2.209  25.231  0.00  0.00    -0.271 N 
ATOM      7  N   UNL     1       1.318   1.582  24.843  0.00  0.00    -0.176 NA
ATOM     15  C   UNL     1      -0.729   2.351  24.237  0.00  0.00    +0.044 A 
ATOM     17  C   UNL     1      -0.170   1.777  23.121  0.00  0.00    +0.048 A 
ATOM     19  C   UNL     1       1.089   1.321  23.553  0.00  0.00    +0.066 A 
ATOM     24  C   UNL     1       0.072   2.656  26.599  0.00  0.00    +0.172 C 
BRANCH  19  18
ATOM     18  C   UNL     1       2.140   0.605  22.734  0.00  0.00    +0.040 C 
ATOM     20  C   UNL     1       3.496   1.333  22.747  0.00  0.00    +0.010 C 
ATOM     21  C   UNL     1       2.435  -0.838  23.193  0.00  0.00    +0.010 C 
ATOM     22  C   UNL     1       4.532   0.219  22.730  0.00  0.00    +0.001 C 
ATOM     23  C   UNL     1       3.902  -0.849  23.608  0.00  0.00    +0.001 C 
ENDBRANCH  19  18
ENDBRANCH   9  15
BRANCH  10  16
ATOM     16  C   UNL     1      -4.687   0.120  23.892  0.00  0.00    +0.124 C 
BRANCH  16   6
ATOM      6  N   UNL     1      -3.419  -0.607  24.068  0.00  0.00    -0.193 NA
ATOM     28  H   UNL     1      -2.691  -0.402  23.371  0.00  0.00    +0.148 HD
BRANCH   6   1
ATOM      1  S   UNL     1      -3.451  -2.213  24.649  0.00  0.00    +0.029 S 
ATOM      2  O   UNL     1      -4.310  -3.022  23.806  0.00  0.00    -0.158 OA
ATOM      3  O   UNL     1      -3.640  -2.179  26.087  0.00  0.00    -0.158 OA
BRANCH   1  25
ATOM     25  C   UNL     1      -1.768  -2.702  24.347  0.00  0.00    +0.185 C 
BRANCH  25  26
ATOM     26  C   UNL     1      -0.819  -1.522  24.463  0.00  0.00    +0.021 C 
ATOM     27  C   UNL     1      -0.656  -1.079  25.908  0.00  0.00    +0.005 C 
ENDBRANCH  25  26
ENDBRANCH   1  25
ENDBRANCH   6   1
ENDBRANCH  16   6
ENDBRANCH  10  16
TORSDOF 7
ENDMDL
MODEL 4
REMARK VINA RESULT:      -3.0      2.027      4.014
REMARK  Name = 40779427
REMARK  9 active torsions:
REMARK  status: ('A' for Active; 'I' for Inactive)
REMARK    1  A    between atoms: S_1  and  N_6
REMARK    2  A    between atoms: S_1  and  C_25
REMARK    3  A    between atoms: N_5  and  C_24
REMARK    4  A    between atoms: N_6  and  C_16
REMARK    5  A    between atoms: C_9  and  C_15
REMARK    6  A    between atoms: C_10  and  C_16
REMARK    7  A    between atoms: C_18  and  C_19
REMARK    8  A    between atoms: C_25  and  C_26
REMARK    9  A    between atoms: C_26  and  C_27
REMARK                            x       y       z     vdW  Elec       q    Type
REMARK                         _______ _______ _______ _____ _____    ______ ____
ROOT
ATOM      4  N   UNL     1      -3.733  -2.147  25.571  0.00  0.00    -0.297 NA
ATOM      8  C   UNL     1      -1.964  -1.750  23.701  0.00  0.00    +0.002 C 
ATOM      9  C   UNL     1      -1.520  -1.067  25.024  0.00  0.00    +0.055 C 
ATOM     10  C   UNL     1      -4.400  -1.652  24.338  0.00  0.00    +0.072 C 
ATOM     11  C   UNL     1      -3.352  -1.215  23.290  0.00  0.00    +0.024 C 
ATOM     12  C   UNL     1      -2.709  -1.174  26.022  0.00  0.00    +0.094 C 
ATOM     13  C   UNL     1      -2.131  -3.254  24.011  0.00  0.00    +0.019 C 
ATOM     14  C   UNL     1      -3.047  -3.419  25.236  0.00  0.00    +0.085 C 
ENDROOT
BRANCH   9  15
ATOM      5  N   UNL     1       0.130   0.672  24.189  0.00  0.00    -0.271 N 
ATOM      7  N   UNL     1       0.471   1.970  24.260  0.00  0.00    -0.176 NA
ATOM     15  C   UNL     1      -0.955   0.344  24.948  0.00  0.00    +0.044 A 
ATOM     17  C   UNL     1      -1.352   1.510  25.558  0.00  0.00    +0.048 A 
ATOM     19  C   UNL     1      -0.438   2.476  25.098  0.00  0.00    +0.066 A 
ATOM     24  C   UNL     1       0.908  -0.217  23.358  0.00  0.00    +0.172 C 
BRANCH  19  18
ATOM     18  C   UNL     1      -0.400   3.948  25.447  0.00  0.00    +0.040 C 
ATOM     20  C   UNL     1      -0.183   4.841  24.213  0.00  0.00    +0.010 C 
ATOM     21  C   UNL     1      -1.680   4.477  26.126  0.00  0.00    +0.010 C 
ATOM     22  C   UNL     1      -1.009   6.089  24.489  0.00  0.00    +0.001 C 
ATOM     23  C   UNL     1      -2.241   5.537  25.184  0.00  0.00    +0.001 C 
ENDBRANCH  19  18
ENDBRANCH   9  15
BRANCH  10  16
ATOM     16  C   UNL     1      -5.412  -0.542  24.628  0.00  0.00    +0.124 C 
BRANCH  16   6
ATOM      6  N   UNL     1      -4.710   0.614  25.211  0.00  0.00    -0.193 NA
ATOM     28  H   UNL     1      -4.168   0.419  26.063  0.00  0.00    +0.148 HD
BRANCH   6   1
ATOM      1  S   UNL     1      -5.437   2.158  25.137  0.00  0.00    +0.029 S 
ATOM      2  O   UNL     1      -5.269   2.840  26.405  0.00  0.00    -0.158 OA
ATOM      3  O   UNL     1      -6.750   2.021  24.536  0.00  0.00    -0.158 OA
BRANCH   1  25
ATOM     25  C   UNL     1      -4.388   2.955  23.943  0.00  0.00    +0.185 C 
BRANCH  25  26
ATOM     26  C   UNL     1      -3.551   1.944  23.178  0.00  0.00    +0.021 C 
ATOM     27  C   UNL     1      -2.669   2.621  22.143  0.00  0.00    +0.005 C 
ENDBRANCH  25  26
ENDBRANCH   1  25
ENDBRANCH   6   1
ENDBRANCH  16   6
ENDBRANCH  10  16
TORSDOF 7
ENDMDL
MODEL 5
REMARK VINA RESULT:      -2.6      2.054      5.285
REMARK  Name = 40779427
REMARK  9 active torsions:
REMARK  status: ('A' for Active; 'I' for Inactive)
REMARK    1  A    between atoms: S_1  and  N_6
REMARK    2  A    between atoms: S_1  and  C_25
REMARK    3  A    between atoms: N_5  and  C_24
REMARK    4  A    between atoms: N_6  and  C_16
REMARK    5  A    between atoms: C_9  and  C_15
REMARK    6  A    between atoms: C_10  and  C_16
REMARK    7  A    between atoms: C_18  and  C_19
REMARK    8  A    between atoms: C_25  and  C_26
REMARK    9  A    between atoms: C_26  and  C_27
REMARK                            x       y       z     vdW  Elec       q    Type
REMARK                         _______ _______ _______ _____ _____    ______ ____
ROOT
ATOM      4  N   UNL     1      -1.765   4.519  23.927  0.00  0.00    -0.297 NA
ATOM      8  C   UNL     1      -0.560   3.245  25.853  0.00  0.00    +0.002 C 
ATOM      9  C   UNL     1      -0.290   2.551  24.490  0.00  0.00    +0.055 C 
ATOM     10  C   UNL     1      -2.719   4.256  25.036  0.00  0.00    +0.072 C 
ATOM     11  C   UNL     1      -2.083   3.325  26.092  0.00  0.00    +0.024 C 
ATOM     12  C   UNL     1      -1.196   3.241  23.430  0.00  0.00    +0.094 C 
ATOM     13  C   UNL     1      -0.044   4.695  25.724  0.00  0.00    +0.019 C 
ATOM     14  C   UNL     1      -0.654   5.340  24.468  0.00  0.00    +0.085 C 
ENDROOT
BRANCH   9  15
ATOM      5  N   UNL     1       0.541   0.259  23.784  0.00  0.00    -0.271 N 
ATOM      7  N   UNL     1       0.280  -1.058  23.844  0.00  0.00    -0.176 NA
ATOM     15  C   UNL     1      -0.380   1.033  24.426  0.00  0.00    +0.044 A 
ATOM     17  C   UNL     1      -1.309   0.161  24.942  0.00  0.00    +0.048 A 
ATOM     19  C   UNL     1      -0.851  -1.111  24.552  0.00  0.00    +0.066 A 
ATOM     24  C   UNL     1       1.716   0.714  23.077  0.00  0.00    +0.172 C 
BRANCH  19  18
ATOM     18  C   UNL     1      -1.490  -2.450  24.850  0.00  0.00    +0.040 C 
ATOM     20  C   UNL     1      -2.646  -2.341  25.859  0.00  0.00    +0.010 C 
ATOM     21  C   UNL     1      -2.078  -3.166  23.616  0.00  0.00    +0.010 C 
ATOM     22  C   UNL     1      -3.658  -3.380  25.401  0.00  0.00    +0.001 C 
ATOM     23  C   UNL     1      -3.572  -3.297  23.887  0.00  0.00    +0.001 C 
ENDBRANCH  19  18
ENDBRANCH   9  15
BRANCH  10  16
ATOM     16  C   UNL     1      -4.060   3.716  24.536  0.00  0.00    +0.124 C 
BRANCH  16   6
ATOM      6  N   UNL     1      -4.948   3.483  25.687  0.00  0.00    -0.193 NA
ATOM     28  H   UNL     1      -4.592   3.808  26.594  0.00  0.00    +0.148 HD
BRANCH   6   1
ATOM      1  S   UNL     1      -5.898   2.063  25.735  0.00  0.00    +0.029 S 
ATOM      2  O   UNL     1      -6.735   1.994  24.553  0.00  0.00    -0.158 OA
ATOM      3  O   UNL     1      -6.472   1.937  27.060  0.00  0.00    -0.158 OA
BRANCH   1  25
ATOM     25  C   UNL     1      -4.634   0.821  25.584  0.00  0.00    +0.185 C 
BRANCH  25  26
ATOM     26  C   UNL     1      -4.800   0.016  24.307  0.00  0.00    +0.021 C 
ATOM     27  C   UNL     1      -3.772   0.413  23.261  0.00  0.00    +0.005 C 
ENDBRANCH  25  26
ENDBRANCH   1  25
ENDBRANCH   6   1
ENDBRANCH  16   6
ENDBRANCH  10  16
TORSDOF 7
ENDMDL
MODEL 6
REMARK VINA RESULT:      -2.3      1.204      1.776
REMARK  Name = 40779427
REMARK  9 active torsions:
REMARK  status: ('A' for Active; 'I' for Inactive)
REMARK    1  A    between atoms: S_1  and  N_6
REMARK    2  A    between atoms: S_1  and  C_25
REMARK    3  A    between atoms: N_5  and  C_24
REMARK    4  A    between atoms: N_6  and  C_16
REMARK    5  A    between atoms: C_9  and  C_15
REMARK    6  A    between atoms: C_10  and  C_16
REMARK    7  A    between atoms: C_18  and  C_19
REMARK    8  A    between atoms: C_25  and  C_26
REMARK    9  A    between atoms: C_26  and  C_27
REMARK                            x       y       z     vdW  Elec       q    Type
REMARK                         _______ _______ _______ _____ _____    ______ ____
ROOT
ATOM      4  N   UNL     1      -3.525  -0.151  25.594  0.00  0.00    -0.297 NA
ATOM      8  C   UNL     1      -2.343  -1.823  23.984  0.00  0.00    +0.002 C 
ATOM      9  C   UNL     1      -1.302  -1.121  24.899  0.00  0.00    +0.055 C 
ATOM     10  C   UNL     1      -3.979   0.081  24.198  0.00  0.00    +0.072 C 
ATOM     11  C   UNL     1      -3.141  -0.755  23.206  0.00  0.00    +0.024 C 
ATOM     12  C   UNL     1      -2.051  -0.004  25.681  0.00  0.00    +0.094 C 
ATOM     13  C   UNL     1      -3.340  -2.545  24.917  0.00  0.00    +0.019 C 
ATOM     14  C   UNL     1      -3.872  -1.546  25.959  0.00  0.00    +0.085 C 
ENDROOT
BRANCH   9  15
ATOM      5  N   UNL     1       0.174   0.680  23.890  0.00  0.00    -0.271 N 
ATOM      7  N   UNL     1       1.382   0.921  23.351  0.00  0.00    -0.176 NA
ATOM     15  C   UNL     1      -0.013  -0.617  24.266  0.00  0.00    +0.044 A 
ATOM     17  C   UNL     1       1.155  -1.271  23.952  0.00  0.00    +0.048 A 
ATOM     19  C   UNL     1       1.976  -0.275  23.391  0.00  0.00    +0.066 A 
ATOM     24  C   UNL     1      -0.772   1.765  24.014  0.00  0.00    +0.172 C 
BRANCH  19  18
ATOM     18  C   UNL     1       3.385  -0.432  22.865  0.00  0.00    +0.040 C 
ATOM     20  C   UNL     1       4.174   0.889  22.890  0.00  0.00    +0.010 C 
ATOM     21  C   UNL     1       4.248  -1.448  23.641  0.00  0.00    +0.010 C 
ATOM     22  C   UNL     1       5.601   0.481  23.222  0.00  0.00    +0.001 C 
ATOM     23  C   UNL     1       5.411  -0.649  24.219  0.00  0.00    +0.001 C 
ENDBRANCH  19  18
ENDBRANCH   9  15
BRANCH  10  16
ATOM     16  C   UNL     1      -3.987   1.565  23.827  0.00  0.00    +0.124 C 
BRANCH  16   6
ATOM      6  N   UNL     1      -3.325   2.335  24.893  0.00  0.00    -0.193 NA
ATOM     28  H   UNL     1      -3.097   1.806  25.745  0.00  0.00    +0.148 HD
BRANCH   6   1
ATOM      1  S   UNL     1      -3.757   3.970  25.134  0.00  0.00    +0.029 S 
ATOM      2  O   UNL     1      -3.620   4.702  23.890  0.00  0.00    -0.158 OA
ATOM      3  O   UNL     1      -3.117   4.442  26.348  0.00  0.00    -0.158 OA
BRANCH   1  25
ATOM     25  C   UNL     1      -5.493   3.800  25.482  0.00  0.00    +0.185 C 
BRANCH  25  26
ATOM     26  C   UNL     1      -5.745   2.732  26.532  0.00  0.00    +0.021 C 
ATOM     27  C   UNL     1      -6.645   1.629  25.999  0.00  0.00    +0.005 C 
ENDBRANCH  25  26
ENDBRANCH   1  25
ENDBRANCH   6   1
ENDBRANCH  16   6
ENDBRANCH  10  16
TORSDOF 7
ENDMDL
MODEL 7
REMARK VINA RESULT:      -1.8      1.774      2.293
REMARK  Name = 40779427
REMARK  9 active torsions:
REMARK  status: ('A' for Active; 'I' for Inactive)
REMARK    1  A    between atoms: S_1  and  N_6
REMARK    2  A    between atoms: S_1  and  C_25
REMARK    3  A    between atoms: N_5  and  C_24
REMARK    4  A    between atoms: N_6  and  C_16
REMARK    5  A    between atoms: C_9  and  C_15
REMARK    6  A    between atoms: C_10  and  C_16
REMARK    7  A    between atoms: C_18  and  C_19
REMARK    8  A    between atoms: C_25  and  C_26
REMARK    9  A    between atoms: C_26  and  C_27
REMARK                            x       y       z     vdW  Elec       q    Type
REMARK                         _______ _______ _______ _____ _____    ______ ____
ROOT
ATOM      4  N   UNL     1      -3.993   1.615  25.067  0.00  0.00    -0.297 NA
ATOM      8  C   UNL     1      -3.477  -0.493  23.627  0.00  0.00    +0.002 C 
ATOM      9  C   UNL     1      -2.372  -0.283  24.699  0.00  0.00    +0.055 C 
ATOM     10  C   UNL     1      -4.092   1.950  23.622  0.00  0.00    +0.072 C 
ATOM     11  C   UNL     1      -3.590   0.776  22.755  0.00  0.00    +0.024 C 
ATOM     12  C   UNL     1      -2.639   1.091  25.377  0.00  0.00    +0.094 C 
ATOM     13  C   UNL     1      -4.813  -0.641  24.388  0.00  0.00    +0.019 C 
ATOM     14  C   UNL     1      -4.979   0.545  25.354  0.00  0.00    +0.085 C 
ENDROOT
BRANCH   9  15
ATOM      5  N   UNL     1      -0.100  -1.412  24.779  0.00  0.00    -0.271 N 
ATOM      7  N   UNL     1       1.145  -1.385  24.275  0.00  0.00    -0.176 NA
ATOM     15  C   UNL     1      -0.920  -0.445  24.275  0.00  0.00    +0.044 A 
ATOM     17  C   UNL     1      -0.156   0.263  23.378  0.00  0.00    +0.048 A 
ATOM     19  C   UNL     1       1.105  -0.360  23.420  0.00  0.00    +0.066 A 
ATOM     24  C   UNL     1      -0.442  -2.412  25.763  0.00  0.00    +0.172 C 
BRANCH  19  18
ATOM     18  C   UNL     1       2.340   0.007  22.628  0.00  0.00    +0.040 C 
ATOM     20  C   UNL     1       2.850   1.423  22.953  0.00  0.00    +0.010 C 
ATOM     21  C   UNL     1       3.544  -0.931  22.849  0.00  0.00    +0.010 C 
ATOM     22  C   UNL     1       4.365   1.317  22.868  0.00  0.00    +0.001 C 
ATOM     23  C   UNL     1       4.645  -0.060  23.443  0.00  0.00    +0.001 C 
ENDBRANCH  19  18
ENDBRANCH   9  15
BRANCH  10  16
ATOM     16  C   UNL     1      -3.378   3.259  23.277  0.00  0.00    +0.124 C 
BRANCH  16   6
ATOM      6  N   UNL     1      -3.576   4.222  24.372  0.00  0.00    -0.193 NA
ATOM     28  H   UNL     1      -4.234   4.988  24.175  0.00  0.00    +0.148 HD
BRANCH   6   1
ATOM      1  S   UNL     1      -2.257   4.626  25.379  0.00  0.00    +0.029 S 
ATOM      2  O   UNL     1      -2.527   4.196  26.738  0.00  0.00    -0.158 OA
ATOM      3  O   UNL     1      -1.863   5.994  25.098  0.00  0.00    -0.158 OA
BRANCH   1  25
ATOM     25  C   UNL     1      -0.999   3.564  24.709  0.00  0.00    +0.185 C 
BRANCH  25  26
ATOM     26  C   UNL     1       0.230   3.528  25.602  0.00  0.00    +0.021 C 
ATOM     27  C   UNL     1       0.217   2.314  26.517  0.00  0.00    +0.005 C 
ENDBRANCH  25  26
ENDBRANCH   1  25
ENDBRANCH   6   1
ENDBRANCH  16   6
ENDBRANCH  10  16
TORSDOF 7
ENDMDL
