MODEL 1
REMARK VINA RESULT:      12.3      0.000      0.000
REMARK  Name = 44716814
REMARK  5 active torsions:
REMARK  status: ('A' for Active; 'I' for Inactive)
REMARK    1  A    between atoms: N_4  and  C_11
REMARK    2  A    between atoms: N_5  and  C_12
REMARK    3  A    between atoms: N_6  and  C_18
REMARK    4  A    between atoms: C_17  and  C_21
REMARK    5  A    between atoms: C_30  and  C_32
REMARK                            x       y       z     vdW  Elec       q    Type
REMARK                         _______ _______ _______ _____ _____    ______ ____
ROOT
ATOM      4  N   UNL     1      -5.258   0.195  24.048  0.00  0.00    -0.306 N 
ATOM      7  N   UNL     1      -3.048  -0.514  24.123  0.00  0.00    -0.214 NA
ATOM      8  N   UNL     1      -4.842  -1.934  24.878  0.00  0.00    -0.223 NA
ATOM     15  C   UNL     1      -4.343  -0.795  24.362  0.00  0.00    +0.216 A 
ATOM     17  C   UNL     1      -2.182  -1.498  24.445  0.00  0.00    +0.076 A 
ATOM     19  C   UNL     1      -3.922  -2.875  25.176  0.00  0.00    +0.116 A 
ATOM     20  C   UNL     1      -2.566  -2.712  24.980  0.00  0.00    +0.048 A 
ATOM     38  H   UNL     1      -6.228   0.009  24.275  0.00  0.00    +0.149 HD
ENDROOT
BRANCH   4  11
ATOM      1  O   UNL     1      -4.899   2.995  25.314  0.00  0.00    -0.370 OA
ATOM      2  O   UNL     1      -2.923   2.759  22.911  0.00  0.00    -0.370 OA
ATOM      9  C   UNL     1      -3.459   1.803  23.840  0.00  0.00    +0.171 C 
ATOM     10  C   UNL     1      -3.557   2.493  25.188  0.00  0.00    +0.171 C 
ATOM     11  C   UNL     1      -4.891   1.476  23.487  0.00  0.00    +0.130 C 
ATOM     12  C   UNL     1      -2.575   3.638  25.088  0.00  0.00    +0.131 C 
ATOM     13  C   UNL     1      -5.665   2.589  24.171  0.00  0.00    +0.185 C 
ATOM     14  C   UNL     1      -2.621   3.976  23.608  0.00  0.00    +0.185 C 
BRANCH  12   5
ATOM      3  O   UNL     1      -1.575   3.465  27.766  0.00  0.00    -0.252 OA
ATOM      5  N   UNL     1      -1.252   3.226  25.489  0.00  0.00    -0.292 N 
ATOM      6  N   UNL     1       0.487   2.737  26.909  0.00  0.00    -0.269 N 
ATOM     16  C   UNL     1      -0.841   3.169  26.826  0.00  0.00    +0.304 C 
ATOM     39  H   UNL     1      -0.609   2.901  24.774  0.00  0.00    +0.151 HD
ATOM     40  H   UNL     1       0.956   2.534  26.030  0.00  0.00    +0.156 HD
BRANCH   6  18
ATOM     18  C   UNL     1       1.267   2.548  28.073  0.00  0.00    +0.035 A 
ATOM     22  C   UNL     1       2.636   2.809  28.045  0.00  0.00    +0.023 A 
ATOM     23  C   UNL     1       0.666   2.101  29.251  0.00  0.00    +0.023 A 
ATOM     26  C   UNL     1       3.407   2.622  29.192  0.00  0.00    +0.002 A 
ATOM     27  C   UNL     1       1.437   1.913  30.398  0.00  0.00    +0.002 A 
ATOM     31  C   UNL     1       2.806   2.174  30.370  0.00  0.00    +0.000 A 
ENDBRANCH   6  18
ENDBRANCH  12   5
ENDBRANCH   4  11
BRANCH  17  21
ATOM     21  C   UNL     1      -0.792  -1.201  24.191  0.00  0.00    +0.001 A 
ATOM     24  C   UNL     1       0.206  -1.933  24.832  0.00  0.00    +0.010 A 
ATOM     25  C   UNL     1      -0.448  -0.182  23.302  0.00  0.00    +0.010 A 
ATOM     28  C   UNL     1       1.548  -1.647  24.587  0.00  0.00    +0.009 A 
ATOM     29  C   UNL     1       0.895   0.104  23.057  0.00  0.00    +0.009 A 
ATOM     30  C   UNL     1       1.893  -0.628  23.699  0.00  0.00    -0.018 A 
BRANCH  30  32
ATOM     32  C   UNL     1       3.286  -0.330  23.444  0.00  0.00    -0.018 A 
ATOM     33  C   UNL     1       4.279  -1.205  23.886  0.00  0.00    +0.008 A 
ATOM     34  C   UNL     1       3.636   0.832  22.756  0.00  0.00    +0.008 A 
ATOM     35  C   UNL     1       5.621  -0.918  23.640  0.00  0.00    +0.001 A 
ATOM     36  C   UNL     1       4.978   1.120  22.512  0.00  0.00    +0.001 A 
ATOM     37  C   UNL     1       5.971   0.245  22.953  0.00  0.00    +0.000 A 
ENDBRANCH  30  32
ENDBRANCH  17  21
TORSDOF 5
ENDMDL
