MODEL 1
REMARK VINA RESULT:      -3.6      0.000      0.000
REMARK  Name = 38027722
REMARK  14 active torsions:
REMARK  status: ('A' for Active; 'I' for Inactive)
REMARK    1  A    between atoms: S_1  and  N_6
REMARK    2  A    between atoms: S_1  and  C_21
REMARK    3  A    between atoms: O_5  and  C_28
REMARK    4  A    between atoms: O_5  and  C_29
REMARK    5  A    between atoms: N_6  and  C_15
REMARK    6  A    between atoms: N_7  and  C_22
REMARK    7  A    between atoms: C_8  and  C_12
REMARK    8  A    between atoms: C_9  and  C_15
REMARK    9  A    between atoms: C_11  and  C_16
REMARK   10  A    between atoms: C_12  and  C_17
REMARK   11  A    between atoms: C_12  and  C_18
REMARK   12  A    between atoms: C_13  and  C_19
REMARK   13  A    between atoms: C_16  and  C_20
REMARK   14  A    between atoms: C_22  and  C_23
REMARK                            x       y       z     vdW  Elec       q    Type
REMARK                         _______ _______ _______ _____ _____    ______ ____
ROOT
ATOM      8  C   UNL     1      -1.336   0.610  24.686  0.00  0.00    +0.000 C 
ATOM      9  C   UNL     1      -0.132  -0.329  24.427  0.00  0.00    +0.030 C 
ATOM     10  C   UNL     1      -2.287  -0.009  25.721  0.00  0.00    +0.012 C 
ATOM     11  C   UNL     1      -2.826  -1.380  25.271  0.00  0.00    +0.023 C 
ATOM     13  C   UNL     1      -1.722  -2.274  24.747  0.00  0.00    -0.073 C 
ATOM     14  C   UNL     1      -0.520  -1.789  24.387  0.00  0.00    -0.023 C 
ATOM     19  C   UNL     1      -2.014  -3.748  24.688  0.00  0.00    +0.039 C 
ENDROOT
BRANCH   8  12
ATOM     12  C   UNL     1      -0.885   1.995  25.159  0.00  0.00    -0.013 C 
ATOM     17  C   UNL     1      -0.115   1.884  26.471  0.00  0.00    +0.007 C 
ATOM     18  C   UNL     1      -0.035   2.673  24.089  0.00  0.00    +0.007 C 
ENDBRANCH   8  12
BRANCH   9  15
ATOM     15  C   UNL     1       0.592   0.042  23.128  0.00  0.00    +0.113 C 
BRANCH  15   6
ATOM      6  N   UNL     1       1.958  -0.503  23.166  0.00  0.00    -0.194 NA
ATOM     30  H   UNL     1       2.152  -1.082  23.994  0.00  0.00    +0.148 HD
BRANCH   6   1
ATOM      1  S   UNL     1       3.258   0.465  22.625  0.00  0.00    +0.027 S 
ATOM      3  O   UNL     1       3.121   1.810  23.152  0.00  0.00    -0.158 OA
ATOM      4  O   UNL     1       3.441   0.241  21.204  0.00  0.00    -0.158 OA
ATOM     21  C   UNL     1       4.617  -0.316  23.466  0.00  0.00    +0.214 C 
ENDBRANCH   6   1
ENDBRANCH  15   6
ENDBRANCH   9  15
BRANCH  11  16
ATOM     16  C   UNL     1      -3.942  -1.220  24.233  0.00  0.00    +0.103 C 
BRANCH  16  20
ATOM      2  O   UNL     1      -3.776   0.923  23.122  0.00  0.00    -0.276 OA
ATOM      7  N   UNL     1      -5.264   0.660  24.888  0.00  0.00    -0.311 N 
ATOM     20  C   UNL     1      -4.294   0.230  23.994  0.00  0.00    +0.214 C 
ATOM     31  H   UNL     1      -5.635   0.011  25.576  0.00  0.00    +0.149 HD
BRANCH   7  22
ATOM     22  C   UNL     1      -5.790   2.006  24.893  0.00  0.00    +0.139 C 
BRANCH  22  23
ATOM     23  C   UNL     1      -4.704   3.034  25.016  0.00  0.00    -0.030 A 
ATOM     24  C   UNL     1      -4.160   3.328  26.267  0.00  0.00    +0.009 A 
ATOM     25  C   UNL     1      -4.235   3.693  23.880  0.00  0.00    +0.009 A 
ATOM     26  C   UNL     1      -3.148   4.281  26.382  0.00  0.00    +0.046 A 
ATOM     27  C   UNL     1      -3.223   4.647  23.995  0.00  0.00    +0.046 A 
ATOM     28  C   UNL     1      -2.679   4.940  25.245  0.00  0.00    +0.120 A 
BRANCH  28   5
ATOM      5  O   UNL     1      -1.691   5.870  25.357  0.00  0.00    -0.495 OA
ATOM     29  C   UNL     1      -0.497   5.639  24.610  0.00  0.00    +0.277 C 
ENDBRANCH  28   5
ENDBRANCH  22  23
ENDBRANCH   7  22
ENDBRANCH  16  20
ENDBRANCH  11  16
TORSDOF 9
ENDMDL
MODEL 2
REMARK VINA RESULT:      -1.9      2.639      6.930
REMARK  Name = 38027722
REMARK  14 active torsions:
REMARK  status: ('A' for Active; 'I' for Inactive)
REMARK    1  A    between atoms: S_1  and  N_6
REMARK    2  A    between atoms: S_1  and  C_21
REMARK    3  A    between atoms: O_5  and  C_28
REMARK    4  A    between atoms: O_5  and  C_29
REMARK    5  A    between atoms: N_6  and  C_15
REMARK    6  A    between atoms: N_7  and  C_22
REMARK    7  A    between atoms: C_8  and  C_12
REMARK    8  A    between atoms: C_9  and  C_15
REMARK    9  A    between atoms: C_11  and  C_16
REMARK   10  A    between atoms: C_12  and  C_17
REMARK   11  A    between atoms: C_12  and  C_18
REMARK   12  A    between atoms: C_13  and  C_19
REMARK   13  A    between atoms: C_16  and  C_20
REMARK   14  A    between atoms: C_22  and  C_23
REMARK                            x       y       z     vdW  Elec       q    Type
REMARK                         _______ _______ _______ _____ _____    ______ ____
ROOT
ATOM      8  C   UNL     1      -4.003   2.480  25.264  0.00  0.00    +0.000 C 
ATOM      9  C   UNL     1      -4.534   1.344  24.354  0.00  0.00    +0.030 C 
ATOM     10  C   UNL     1      -3.439   3.628  24.414  0.00  0.00    +0.012 C 
ATOM     11  C   UNL     1      -2.294   3.164  23.493  0.00  0.00    +0.023 C 
ATOM     13  C   UNL     1      -2.645   1.888  22.758  0.00  0.00    -0.073 C 
ATOM     14  C   UNL     1      -3.657   1.093  23.149  0.00  0.00    -0.023 C 
ATOM     19  C   UNL     1      -1.834   1.566  21.533  0.00  0.00    +0.039 C 
ENDROOT
BRANCH   8  12
ATOM     12  C   UNL     1      -5.090   3.013  26.200  0.00  0.00    -0.013 C 
ATOM     17  C   UNL     1      -5.610   4.358  25.701  0.00  0.00    +0.007 C 
ATOM     18  C   UNL     1      -6.229   2.006  26.324  0.00  0.00    +0.007 C 
ENDBRANCH   8  12
BRANCH   9  15
ATOM     15  C   UNL     1      -4.705   0.039  25.140  0.00  0.00    +0.113 C 
BRANCH  15   6
ATOM      6  N   UNL     1      -3.379  -0.544  25.399  0.00  0.00    -0.194 NA
ATOM     30  H   UNL     1      -2.604   0.125  25.298  0.00  0.00    +0.148 HD
BRANCH   6   1
ATOM      1  S   UNL     1      -3.049  -2.136  24.874  0.00  0.00    +0.027 S 
ATOM      3  O   UNL     1      -3.315  -3.072  25.949  0.00  0.00    -0.158 OA
ATOM      4  O   UNL     1      -1.772  -2.140  24.186  0.00  0.00    -0.158 OA
ATOM     21  C   UNL     1      -4.316  -2.342  23.643  0.00  0.00    +0.214 C 
ENDBRANCH   6   1
ENDBRANCH  15   6
ENDBRANCH   9  15
BRANCH  11  16
ATOM     16  C   UNL     1      -0.986   3.005  24.276  0.00  0.00    +0.103 C 
BRANCH  16  20
ATOM      2  O   UNL     1      -0.865   0.787  25.235  0.00  0.00    -0.276 OA
ATOM      7  N   UNL     1       0.292   1.252  23.273  0.00  0.00    -0.311 N 
ATOM     20  C   UNL     1      -0.535   1.564  24.343  0.00  0.00    +0.214 C 
ATOM     31  H   UNL     1       0.507   1.964  22.582  0.00  0.00    +0.149 HD
BRANCH   7  22
ATOM     22  C   UNL     1       0.873  -0.057  23.082  0.00  0.00    +0.139 C 
BRANCH  22  23
ATOM     23  C   UNL     1       2.371  -0.025  23.167  0.00  0.00    -0.030 A 
ATOM     24  C   UNL     1       3.066   1.129  22.805  0.00  0.00    +0.009 A 
ATOM     25  C   UNL     1       3.069  -1.149  23.611  0.00  0.00    +0.009 A 
ATOM     26  C   UNL     1       4.458   1.160  22.888  0.00  0.00    +0.046 A 
ATOM     27  C   UNL     1       4.462  -1.117  23.692  0.00  0.00    +0.046 A 
ATOM     28  C   UNL     1       5.156   0.037  23.331  0.00  0.00    +0.120 A 
BRANCH  28   5
ATOM      5  O   UNL     1       6.514   0.068  23.412  0.00  0.00    -0.495 OA
ATOM     29  C   UNL     1       7.229  -0.933  22.690  0.00  0.00    +0.277 C 
ENDBRANCH  28   5
ENDBRANCH  22  23
ENDBRANCH   7  22
ENDBRANCH  16  20
ENDBRANCH  11  16
TORSDOF 9
ENDMDL
MODEL 3
REMARK VINA RESULT:      -1.9      2.319      5.740
REMARK  Name = 38027722
REMARK  14 active torsions:
REMARK  status: ('A' for Active; 'I' for Inactive)
REMARK    1  A    between atoms: S_1  and  N_6
REMARK    2  A    between atoms: S_1  and  C_21
REMARK    3  A    between atoms: O_5  and  C_28
REMARK    4  A    between atoms: O_5  and  C_29
REMARK    5  A    between atoms: N_6  and  C_15
REMARK    6  A    between atoms: N_7  and  C_22
REMARK    7  A    between atoms: C_8  and  C_12
REMARK    8  A    between atoms: C_9  and  C_15
REMARK    9  A    between atoms: C_11  and  C_16
REMARK   10  A    between atoms: C_12  and  C_17
REMARK   11  A    between atoms: C_12  and  C_18
REMARK   12  A    between atoms: C_13  and  C_19
REMARK   13  A    between atoms: C_16  and  C_20
REMARK   14  A    between atoms: C_22  and  C_23
REMARK                            x       y       z     vdW  Elec       q    Type
REMARK                         _______ _______ _______ _____ _____    ______ ____
ROOT
ATOM      8  C   UNL     1      -3.431   2.387  23.789  0.00  0.00    +0.000 C 
ATOM      9  C   UNL     1      -3.986   3.614  24.555  0.00  0.00    +0.030 C 
ATOM     10  C   UNL     1      -4.542   1.351  23.559  0.00  0.00    +0.012 C 
ATOM     11  C   UNL     1      -5.164   0.861  24.880  0.00  0.00    +0.023 C 
ATOM     13  C   UNL     1      -5.494   2.011  25.808  0.00  0.00    -0.073 C 
ATOM     14  C   UNL     1      -4.968   3.238  25.640  0.00  0.00    -0.023 C 
ATOM     19  C   UNL     1      -6.478   1.732  26.910  0.00  0.00    +0.039 C 
ENDROOT
BRANCH   8  12
ATOM     12  C   UNL     1      -2.811   2.788  22.447  0.00  0.00    -0.013 C 
ATOM     17  C   UNL     1      -2.221   1.567  21.748  0.00  0.00    +0.007 C 
ATOM     18  C   UNL     1      -3.849   3.469  21.562  0.00  0.00    +0.007 C 
ENDBRANCH   8  12
BRANCH   9  15
ATOM     15  C   UNL     1      -2.852   4.448  25.160  0.00  0.00    +0.113 C 
BRANCH  15   6
ATOM      6  N   UNL     1      -2.257   3.707  26.284  0.00  0.00    -0.194 NA
ATOM     30  H   UNL     1      -2.285   4.215  27.178  0.00  0.00    +0.148 HD
BRANCH   6   1
ATOM      1  S   UNL     1      -0.855   2.768  26.016  0.00  0.00    +0.027 S 
ATOM      3  O   UNL     1      -1.233   1.420  25.632  0.00  0.00    -0.158 OA
ATOM      4  O   UNL     1       0.069   2.995  27.110  0.00  0.00    -0.158 OA
ATOM     21  C   UNL     1      -0.189   3.579  24.580  0.00  0.00    +0.214 C 
ENDBRANCH   6   1
ENDBRANCH  15   6
ENDBRANCH   9  15
BRANCH  11  16
ATOM     16  C   UNL     1      -4.254  -0.160  25.573  0.00  0.00    +0.103 C 
BRANCH  16  20
ATOM      2  O   UNL     1      -4.253  -1.972  23.969  0.00  0.00    -0.276 OA
ATOM      7  N   UNL     1      -2.256  -0.903  24.492  0.00  0.00    -0.311 N 
ATOM     20  C   UNL     1      -3.623  -1.119  24.590  0.00  0.00    +0.214 C 
ATOM     31  H   UNL     1      -1.824  -0.169  25.046  0.00  0.00    +0.149 HD
BRANCH   7  22
ATOM     22  C   UNL     1      -1.395  -1.676  23.627  0.00  0.00    +0.139 C 
BRANCH  22  23
ATOM     23  C   UNL     1      -0.126  -0.946  23.298  0.00  0.00    -0.030 A 
ATOM     24  C   UNL     1       0.474  -1.116  22.050  0.00  0.00    +0.009 A 
ATOM     25  C   UNL     1       0.454  -0.095  24.239  0.00  0.00    +0.009 A 
ATOM     26  C   UNL     1       1.652  -0.436  21.743  0.00  0.00    +0.046 A 
ATOM     27  C   UNL     1       1.632   0.585  23.932  0.00  0.00    +0.046 A 
ATOM     28  C   UNL     1       2.231   0.415  22.684  0.00  0.00    +0.120 A 
BRANCH  28   5
ATOM      5  O   UNL     1       3.380   1.080  22.384  0.00  0.00    -0.495 OA
ATOM     29  C   UNL     1       4.586   0.582  22.961  0.00  0.00    +0.277 C 
ENDBRANCH  28   5
ENDBRANCH  22  23
ENDBRANCH   7  22
ENDBRANCH  16  20
ENDBRANCH  11  16
TORSDOF 9
ENDMDL
MODEL 4
REMARK VINA RESULT:      -1.7      3.030      5.798
REMARK  Name = 38027722
REMARK  14 active torsions:
REMARK  status: ('A' for Active; 'I' for Inactive)
REMARK    1  A    between atoms: S_1  and  N_6
REMARK    2  A    between atoms: S_1  and  C_21
REMARK    3  A    between atoms: O_5  and  C_28
REMARK    4  A    between atoms: O_5  and  C_29
REMARK    5  A    between atoms: N_6  and  C_15
REMARK    6  A    between atoms: N_7  and  C_22
REMARK    7  A    between atoms: C_8  and  C_12
REMARK    8  A    between atoms: C_9  and  C_15
REMARK    9  A    between atoms: C_11  and  C_16
REMARK   10  A    between atoms: C_12  and  C_17
REMARK   11  A    between atoms: C_12  and  C_18
REMARK   12  A    between atoms: C_13  and  C_19
REMARK   13  A    between atoms: C_16  and  C_20
REMARK   14  A    between atoms: C_22  and  C_23
REMARK                            x       y       z     vdW  Elec       q    Type
REMARK                         _______ _______ _______ _____ _____    ______ ____
ROOT
ATOM      8  C   UNL     1      -1.298   1.821  25.031  0.00  0.00    +0.000 C 
ATOM      9  C   UNL     1      -0.052   2.483  25.672  0.00  0.00    +0.030 C 
ATOM     10  C   UNL     1      -1.705   2.569  23.752  0.00  0.00    +0.012 C 
ATOM     11  C   UNL     1      -2.023   4.052  24.020  0.00  0.00    +0.023 C 
ATOM     13  C   UNL     1      -0.963   4.709  24.879  0.00  0.00    -0.073 C 
ATOM     14  C   UNL     1      -0.083   3.992  25.600  0.00  0.00    -0.023 C 
ATOM     19  C   UNL     1      -0.907   6.212  24.857  0.00  0.00    +0.039 C 
ENDROOT
BRANCH   8  12
ATOM     12  C   UNL     1      -1.057   0.343  24.713  0.00  0.00    -0.013 C 
ATOM     17  C   UNL     1       0.056   0.196  23.680  0.00  0.00    +0.007 C 
ATOM     18  C   UNL     1      -0.720  -0.428  25.985  0.00  0.00    +0.007 C 
ENDBRANCH   8  12
BRANCH   9  15
ATOM     15  C   UNL     1       0.119   2.044  27.130  0.00  0.00    +0.113 C 
BRANCH  15   6
ATOM      6  N   UNL     1       1.465   2.421  27.591  0.00  0.00    -0.194 NA
ATOM     30  H   UNL     1       2.225   2.004  27.037  0.00  0.00    +0.148 HD
BRANCH   6   1
ATOM      1  S   UNL     1       1.766   2.561  29.266  0.00  0.00    +0.027 S 
ATOM      3  O   UNL     1       2.511   1.406  29.729  0.00  0.00    -0.158 OA
ATOM      4  O   UNL     1       0.537   2.962  29.924  0.00  0.00    -0.158 OA
ATOM     21  C   UNL     1       2.860   3.962  29.285  0.00  0.00    +0.214 C 
ENDBRANCH   6   1
ENDBRANCH  15   6
ENDBRANCH   9  15
BRANCH  11  16
ATOM     16  C   UNL     1      -3.414   4.215  24.644  0.00  0.00    +0.103 C 
BRANCH  16  20
ATOM      2  O   UNL     1      -4.643   2.687  23.226  0.00  0.00    -0.276 OA
ATOM      7  N   UNL     1      -4.689   2.398  25.532  0.00  0.00    -0.311 N 
ATOM     20  C   UNL     1      -4.307   3.030  24.357  0.00  0.00    +0.214 C 
ATOM     31  H   UNL     1      -4.359   2.756  26.423  0.00  0.00    +0.149 HD
BRANCH   7  22
ATOM     22  C   UNL     1      -5.547   1.235  25.559  0.00  0.00    +0.139 C 
BRANCH  22  23
ATOM     23  C   UNL     1      -4.795  -0.024  25.242  0.00  0.00    -0.030 A 
ATOM     24  C   UNL     1      -4.794  -0.527  23.941  0.00  0.00    +0.009 A 
ATOM     25  C   UNL     1      -4.096  -0.692  26.248  0.00  0.00    +0.009 A 
ATOM     26  C   UNL     1      -4.093  -1.696  23.645  0.00  0.00    +0.046 A 
ATOM     27  C   UNL     1      -3.396  -1.861  25.952  0.00  0.00    +0.046 A 
ATOM     28  C   UNL     1      -3.394  -2.363  24.651  0.00  0.00    +0.120 A 
BRANCH  28   5
ATOM      5  O   UNL     1      -2.709  -3.504  24.362  0.00  0.00    -0.495 OA
ATOM     29  C   UNL     1      -1.447  -3.355  23.714  0.00  0.00    +0.277 C 
ENDBRANCH  28   5
ENDBRANCH  22  23
ENDBRANCH   7  22
ENDBRANCH  16  20
ENDBRANCH  11  16
TORSDOF 9
ENDMDL
MODEL 5
REMARK VINA RESULT:      -1.1      2.522      6.888
REMARK  Name = 38027722
REMARK  14 active torsions:
REMARK  status: ('A' for Active; 'I' for Inactive)
REMARK    1  A    between atoms: S_1  and  N_6
REMARK    2  A    between atoms: S_1  and  C_21
REMARK    3  A    between atoms: O_5  and  C_28
REMARK    4  A    between atoms: O_5  and  C_29
REMARK    5  A    between atoms: N_6  and  C_15
REMARK    6  A    between atoms: N_7  and  C_22
REMARK    7  A    between atoms: C_8  and  C_12
REMARK    8  A    between atoms: C_9  and  C_15
REMARK    9  A    between atoms: C_11  and  C_16
REMARK   10  A    between atoms: C_12  and  C_17
REMARK   11  A    between atoms: C_12  and  C_18
REMARK   12  A    between atoms: C_13  and  C_19
REMARK   13  A    between atoms: C_16  and  C_20
REMARK   14  A    between atoms: C_22  and  C_23
REMARK                            x       y       z     vdW  Elec       q    Type
REMARK                         _______ _______ _______ _____ _____    ______ ____
ROOT
ATOM      8  C   UNL     1      -3.302   1.555  23.739  0.00  0.00    +0.000 C 
ATOM      9  C   UNL     1      -4.589   1.322  24.570  0.00  0.00    +0.030 C 
ATOM     10  C   UNL     1      -2.634   0.215  23.398  0.00  0.00    +0.012 C 
ATOM     11  C   UNL     1      -2.262  -0.589  24.659  0.00  0.00    +0.023 C 
ATOM     13  C   UNL     1      -3.403  -0.636  25.653  0.00  0.00    -0.073 C 
ATOM     14  C   UNL     1      -4.441   0.217  25.591  0.00  0.00    -0.023 C 
ATOM     19  C   UNL     1      -3.348  -1.717  26.697  0.00  0.00    +0.039 C 
ENDROOT
BRANCH   8  12
ATOM     12  C   UNL     1      -3.590   2.334  22.453  0.00  0.00    -0.013 C 
ATOM     17  C   UNL     1      -3.650   3.831  22.739  0.00  0.00    +0.007 C 
ATOM     18  C   UNL     1      -2.533   2.028  21.397  0.00  0.00    +0.007 C 
ENDBRANCH   8  12
BRANCH   9  15
ATOM     15  C   UNL     1      -5.035   2.609  25.273  0.00  0.00    +0.113 C 
BRANCH  15   6
ATOM      6  N   UNL     1      -4.061   3.674  24.990  0.00  0.00    -0.194 NA
ATOM     30  H   UNL     1      -3.782   3.730  24.001  0.00  0.00    +0.148 HD
BRANCH   6   1
ATOM      1  S   UNL     1      -2.823   3.998  26.122  0.00  0.00    +0.027 S 
ATOM      3  O   UNL     1      -1.936   2.854  26.220  0.00  0.00    -0.158 OA
ATOM      4  O   UNL     1      -3.424   4.575  27.310  0.00  0.00    -0.158 OA
ATOM     21  C   UNL     1      -1.947   5.299  25.284  0.00  0.00    +0.214 C 
ENDBRANCH   6   1
ENDBRANCH  15   6
ENDBRANCH   9  15
BRANCH  11  16
ATOM     16  C   UNL     1      -0.988  -0.037  25.309  0.00  0.00    +0.103 C 
BRANCH  16  20
ATOM      2  O   UNL     1       0.313   1.715  24.263  0.00  0.00    -0.276 OA
ATOM      7  N   UNL     1       0.393  -0.443  23.401  0.00  0.00    -0.311 N 
ATOM     20  C   UNL     1      -0.031   0.535  24.289  0.00  0.00    +0.214 C 
ATOM     31  H   UNL     1       0.053  -1.394  23.505  0.00  0.00    +0.149 HD
BRANCH   7  22
ATOM     22  C   UNL     1       1.312  -0.179  22.318  0.00  0.00    +0.139 C 
BRANCH  22  23
ATOM     23  C   UNL     1       2.739  -0.168  22.782  0.00  0.00    -0.030 A 
ATOM     24  C   UNL     1       3.521   0.974  22.605  0.00  0.00    +0.009 A 
ATOM     25  C   UNL     1       3.284  -1.298  23.391  0.00  0.00    +0.009 A 
ATOM     26  C   UNL     1       4.847   0.986  23.039  0.00  0.00    +0.046 A 
ATOM     27  C   UNL     1       4.610  -1.286  23.824  0.00  0.00    +0.046 A 
ATOM     28  C   UNL     1       5.391  -0.144  23.649  0.00  0.00    +0.120 A 
BRANCH  28   5
ATOM      5  O   UNL     1       6.684  -0.132  24.073  0.00  0.00    -0.495 OA
ATOM     29  C   UNL     1       7.686  -0.446  23.106  0.00  0.00    +0.277 C 
ENDBRANCH  28   5
ENDBRANCH  22  23
ENDBRANCH   7  22
ENDBRANCH  16  20
ENDBRANCH  11  16
TORSDOF 9
ENDMDL
MODEL 6
REMARK VINA RESULT:      -1.0      1.960      5.283
REMARK  Name = 38027722
REMARK  14 active torsions:
REMARK  status: ('A' for Active; 'I' for Inactive)
REMARK    1  A    between atoms: S_1  and  N_6
REMARK    2  A    between atoms: S_1  and  C_21
REMARK    3  A    between atoms: O_5  and  C_28
REMARK    4  A    between atoms: O_5  and  C_29
REMARK    5  A    between atoms: N_6  and  C_15
REMARK    6  A    between atoms: N_7  and  C_22
REMARK    7  A    between atoms: C_8  and  C_12
REMARK    8  A    between atoms: C_9  and  C_15
REMARK    9  A    between atoms: C_11  and  C_16
REMARK   10  A    between atoms: C_12  and  C_17
REMARK   11  A    between atoms: C_12  and  C_18
REMARK   12  A    between atoms: C_13  and  C_19
REMARK   13  A    between atoms: C_16  and  C_20
REMARK   14  A    between atoms: C_22  and  C_23
REMARK                            x       y       z     vdW  Elec       q    Type
REMARK                         _______ _______ _______ _____ _____    ______ ____
ROOT
ATOM      8  C   UNL     1      -2.063   2.295  23.861  0.00  0.00    +0.000 C 
ATOM      9  C   UNL     1      -0.579   2.717  23.720  0.00  0.00    +0.030 C 
ATOM     10  C   UNL     1      -2.989   3.487  23.578  0.00  0.00    +0.012 C 
ATOM     11  C   UNL     1      -2.725   4.669  24.531  0.00  0.00    +0.023 C 
ATOM     13  C   UNL     1      -1.247   4.975  24.653  0.00  0.00    -0.073 C 
ATOM     14  C   UNL     1      -0.302   4.096  24.274  0.00  0.00    -0.023 C 
ATOM     19  C   UNL     1      -0.877   6.334  25.179  0.00  0.00    +0.039 C 
ENDROOT
BRANCH   8  12
ATOM     12  C   UNL     1      -2.414   1.133  22.928  0.00  0.00    -0.013 C 
ATOM     17  C   UNL     1      -2.471   1.611  21.480  0.00  0.00    +0.007 C 
ATOM     18  C   UNL     1      -1.404  -0.000  23.084  0.00  0.00    +0.007 C 
ENDBRANCH   8  12
BRANCH   9  15
ATOM     15  C   UNL     1       0.352   1.702  24.393  0.00  0.00    +0.113 C 
BRANCH  15   6
ATOM      6  N   UNL     1       1.609   1.625  23.632  0.00  0.00    -0.194 NA
ATOM     30  H   UNL     1       1.779   2.440  23.028  0.00  0.00    +0.148 HD
BRANCH   6   1
ATOM      1  S   UNL     1       2.112   0.121  22.998  0.00  0.00    +0.027 S 
ATOM      3  O   UNL     1       1.698   0.009  21.612  0.00  0.00    -0.158 OA
ATOM      4  O   UNL     1       1.782  -0.918  23.956  0.00  0.00    -0.158 OA
ATOM     21  C   UNL     1       3.877   0.328  23.027  0.00  0.00    +0.214 C 
ENDBRANCH   6   1
ENDBRANCH  15   6
ENDBRANCH   9  15
BRANCH  11  16
ATOM     16  C   UNL     1      -3.349   4.418  25.908  0.00  0.00    +0.103 C 
BRANCH  16  20
ATOM      2  O   UNL     1      -5.726   3.976  25.805  0.00  0.00    -0.276 OA
ATOM      7  N   UNL     1      -4.228   2.199  25.777  0.00  0.00    -0.311 N 
ATOM     20  C   UNL     1      -4.578   3.541  25.824  0.00  0.00    +0.214 C 
ATOM     31  H   UNL     1      -3.248   1.935  25.797  0.00  0.00    +0.149 HD
BRANCH   7  22
ATOM     22  C   UNL     1      -5.201   1.133  25.695  0.00  0.00    +0.139 C 
BRANCH  22  23
ATOM     23  C   UNL     1      -4.579  -0.165  25.270  0.00  0.00    -0.030 A 
ATOM     24  C   UNL     1      -4.976  -0.771  24.078  0.00  0.00    +0.009 A 
ATOM     25  C   UNL     1      -3.603  -0.764  26.066  0.00  0.00    +0.009 A 
ATOM     26  C   UNL     1      -4.395  -1.976  23.681  0.00  0.00    +0.046 A 
ATOM     27  C   UNL     1      -3.023  -1.970  25.669  0.00  0.00    +0.046 A 
ATOM     28  C   UNL     1      -3.419  -2.575  24.476  0.00  0.00    +0.120 A 
BRANCH  28   5
ATOM      5  O   UNL     1      -2.852  -3.750  24.089  0.00  0.00    -0.495 OA
ATOM     29  C   UNL     1      -1.577  -3.676  23.453  0.00  0.00    +0.277 C 
ENDBRANCH  28   5
ENDBRANCH  22  23
ENDBRANCH   7  22
ENDBRANCH  16  20
ENDBRANCH  11  16
TORSDOF 9
ENDMDL
MODEL 7
REMARK VINA RESULT:      -0.9      3.027      5.156
REMARK  Name = 38027722
REMARK  14 active torsions:
REMARK  status: ('A' for Active; 'I' for Inactive)
REMARK    1  A    between atoms: S_1  and  N_6
REMARK    2  A    between atoms: S_1  and  C_21
REMARK    3  A    between atoms: O_5  and  C_28
REMARK    4  A    between atoms: O_5  and  C_29
REMARK    5  A    between atoms: N_6  and  C_15
REMARK    6  A    between atoms: N_7  and  C_22
REMARK    7  A    between atoms: C_8  and  C_12
REMARK    8  A    between atoms: C_9  and  C_15
REMARK    9  A    between atoms: C_11  and  C_16
REMARK   10  A    between atoms: C_12  and  C_17
REMARK   11  A    between atoms: C_12  and  C_18
REMARK   12  A    between atoms: C_13  and  C_19
REMARK   13  A    between atoms: C_16  and  C_20
REMARK   14  A    between atoms: C_22  and  C_23
REMARK                            x       y       z     vdW  Elec       q    Type
REMARK                         _______ _______ _______ _____ _____    ______ ____
ROOT
ATOM      8  C   UNL     1       0.619   0.586  23.471  0.00  0.00    +0.000 C 
ATOM      9  C   UNL     1      -0.343  -0.163  24.426  0.00  0.00    +0.030 C 
ATOM     10  C   UNL     1       1.459   1.611  24.250  0.00  0.00    +0.012 C 
ATOM     11  C   UNL     1       0.584   2.650  24.975  0.00  0.00    +0.023 C 
ATOM     13  C   UNL     1      -0.558   1.998  25.728  0.00  0.00    -0.073 C 
ATOM     14  C   UNL     1      -0.950   0.736  25.478  0.00  0.00    -0.023 C 
ATOM     19  C   UNL     1      -1.212   2.816  26.808  0.00  0.00    +0.039 C 
ENDROOT
BRANCH   8  12
ATOM     12  C   UNL     1       1.543  -0.379  22.722  0.00  0.00    -0.013 C 
ATOM     17  C   UNL     1       1.033  -0.610  21.303  0.00  0.00    +0.007 C 
ATOM     18  C   UNL     1       2.971   0.157  22.703  0.00  0.00    +0.007 C 
ENDBRANCH   8  12
BRANCH   9  15
ATOM     15  C   UNL     1      -1.462  -0.863  23.647  0.00  0.00    +0.113 C 
BRANCH  15   6
ATOM      6  N   UNL     1      -1.754  -2.157  24.284  0.00  0.00    -0.194 NA
ATOM     30  H   UNL     1      -1.346  -2.964  23.792  0.00  0.00    +0.148 HD
BRANCH   6   1
ATOM      1  S   UNL     1      -3.295  -2.419  24.975  0.00  0.00    +0.027 S 
ATOM      3  O   UNL     1      -3.452  -1.587  26.152  0.00  0.00    -0.158 OA
ATOM      4  O   UNL     1      -3.535  -3.848  25.039  0.00  0.00    -0.158 OA
ATOM     21  C   UNL     1      -4.341  -1.761  23.696  0.00  0.00    +0.214 C 
ENDBRANCH   6   1
ENDBRANCH  15   6
ENDBRANCH   9  15
BRANCH  11  16
ATOM     16  C   UNL     1       0.063   3.711  23.999  0.00  0.00    +0.103 C 
BRANCH  16  20
ATOM      2  O   UNL     1      -2.203   4.360  24.547  0.00  0.00    -0.276 OA
ATOM      7  N   UNL     1      -1.835   2.767  22.894  0.00  0.00    -0.311 N 
ATOM     20  C   UNL     1      -1.443   3.673  23.869  0.00  0.00    +0.214 C 
ATOM     31  H   UNL     1      -1.130   2.244  22.383  0.00  0.00    +0.149 HD
BRANCH   7  22
ATOM     22  C   UNL     1      -3.219   2.522  22.557  0.00  0.00    +0.139 C 
BRANCH  22  23
ATOM     23  C   UNL     1      -4.097   2.490  23.774  0.00  0.00    -0.030 A 
ATOM     24  C   UNL     1      -4.344   1.281  24.424  0.00  0.00    +0.009 A 
ATOM     25  C   UNL     1      -4.663   3.670  24.256  0.00  0.00    +0.009 A 
ATOM     26  C   UNL     1      -5.158   1.252  25.557  0.00  0.00    +0.046 A 
ATOM     27  C   UNL     1      -5.477   3.640  25.389  0.00  0.00    +0.046 A 
ATOM     28  C   UNL     1      -5.724   2.432  26.039  0.00  0.00    +0.120 A 
BRANCH  28   5
ATOM      5  O   UNL     1      -6.517   2.403  27.145  0.00  0.00    -0.495 OA
ATOM     29  C   UNL     1      -6.962   1.123  27.590  0.00  0.00    +0.277 C 
ENDBRANCH  28   5
ENDBRANCH  22  23
ENDBRANCH   7  22
ENDBRANCH  16  20
ENDBRANCH  11  16
TORSDOF 9
ENDMDL
MODEL 8
REMARK VINA RESULT:      -0.1     14.088     16.981
REMARK  Name = 38027722
REMARK  14 active torsions:
REMARK  status: ('A' for Active; 'I' for Inactive)
REMARK    1  A    between atoms: S_1  and  N_6
REMARK    2  A    between atoms: S_1  and  C_21
REMARK    3  A    between atoms: O_5  and  C_28
REMARK    4  A    between atoms: O_5  and  C_29
REMARK    5  A    between atoms: N_6  and  C_15
REMARK    6  A    between atoms: N_7  and  C_22
REMARK    7  A    between atoms: C_8  and  C_12
REMARK    8  A    between atoms: C_9  and  C_15
REMARK    9  A    between atoms: C_11  and  C_16
REMARK   10  A    between atoms: C_12  and  C_17
REMARK   11  A    between atoms: C_12  and  C_18
REMARK   12  A    between atoms: C_13  and  C_19
REMARK   13  A    between atoms: C_16  and  C_20
REMARK   14  A    between atoms: C_22  and  C_23
REMARK                            x       y       z     vdW  Elec       q    Type
REMARK                         _______ _______ _______ _____ _____    ______ ____
ROOT
ATOM      8  C   UNL     1      -5.565 -10.375  14.725  0.00  0.00    +0.000 C 
ATOM      9  C   UNL     1      -6.991  -9.772  14.755  0.00  0.00    +0.030 C 
ATOM     10  C   UNL     1      -4.652  -9.548  13.808  0.00  0.00    +0.012 C 
ATOM     11  C   UNL     1      -5.184  -9.480  12.363  0.00  0.00    +0.023 C 
ATOM     13  C   UNL     1      -6.661  -9.150  12.323  0.00  0.00    -0.073 C 
ATOM     14  C   UNL     1      -7.451  -9.274  13.404  0.00  0.00    -0.023 C 
ATOM     19  C   UNL     1      -7.204  -8.631  11.020  0.00  0.00    +0.039 C 
ENDROOT
BRANCH   8  12
ATOM     12  C   UNL     1      -4.953 -10.459  16.127  0.00  0.00    -0.013 C 
ATOM     17  C   UNL     1      -3.436 -10.596  16.038  0.00  0.00    +0.007 C 
ATOM     18  C   UNL     1      -5.338  -9.233  16.950  0.00  0.00    +0.007 C 
ENDBRANCH   8  12
BRANCH   9  15
ATOM     15  C   UNL     1      -8.008 -10.781  15.300  0.00  0.00    +0.113 C 
BRANCH  15   6
ATOM      6  N   UNL     1      -9.253 -10.074  15.641  0.00  0.00    -0.194 NA
ATOM     30  H   UNL     1      -9.588  -9.442  14.901  0.00  0.00    +0.148 HD
BRANCH   6   1
ATOM      1  S   UNL     1      -9.490  -9.523  17.240  0.00  0.00    +0.027 S 
ATOM      3  O   UNL     1     -10.681 -10.134  17.799  0.00  0.00    -0.158 OA
ATOM      4  O   UNL     1      -9.315  -8.083  17.263  0.00  0.00    -0.158 OA
ATOM     21  C   UNL     1      -8.076 -10.242  18.045  0.00  0.00    +0.214 C 
ENDBRANCH   6   1
ENDBRANCH  15   6
ENDBRANCH   9  15
BRANCH  11  16
ATOM     16  C   UNL     1      -4.890 -10.780  11.606  0.00  0.00    +0.103 C 
BRANCH  16  20
ATOM      2  O   UNL     1      -3.719 -10.485   9.509  0.00  0.00    -0.276 OA
ATOM      7  N   UNL     1      -2.504 -10.777  11.469  0.00  0.00    -0.311 N 
ATOM     20  C   UNL     1      -3.668 -10.660  10.724  0.00  0.00    +0.214 C 
ATOM     31  H   UNL     1      -2.563 -10.919  12.473  0.00  0.00    +0.149 HD
BRANCH   7  22
ATOM     22  C   UNL     1      -1.184 -10.703  10.885  0.00  0.00    +0.139 C 
BRANCH  22  23
ATOM     23  C   UNL     1      -0.445  -9.471  11.319  0.00  0.00    -0.030 A 
ATOM     24  C   UNL     1      -0.950  -8.683  12.354  0.00  0.00    +0.009 A 
ATOM     25  C   UNL     1       0.747  -9.114  10.689  0.00  0.00    +0.009 A 
ATOM     26  C   UNL     1      -0.263  -7.539  12.760  0.00  0.00    +0.046 A 
ATOM     27  C   UNL     1       1.434  -7.969  11.095  0.00  0.00    +0.046 A 
ATOM     28  C   UNL     1       0.930  -7.182  12.130  0.00  0.00    +0.120 A 
BRANCH  28   5
ATOM      5  O   UNL     1       1.601  -6.066  12.526  0.00  0.00    -0.495 OA
ATOM     29  C   UNL     1       2.997  -6.014  12.238  0.00  0.00    +0.277 C 
ENDBRANCH  28   5
ENDBRANCH  22  23
ENDBRANCH   7  22
ENDBRANCH  16  20
ENDBRANCH  11  16
TORSDOF 9
ENDMDL
MODEL 9
REMARK VINA RESULT:       0.2      1.862      3.684
REMARK  Name = 38027722
REMARK  14 active torsions:
REMARK  status: ('A' for Active; 'I' for Inactive)
REMARK    1  A    between atoms: S_1  and  N_6
REMARK    2  A    between atoms: S_1  and  C_21
REMARK    3  A    between atoms: O_5  and  C_28
REMARK    4  A    between atoms: O_5  and  C_29
REMARK    5  A    between atoms: N_6  and  C_15
REMARK    6  A    between atoms: N_7  and  C_22
REMARK    7  A    between atoms: C_8  and  C_12
REMARK    8  A    between atoms: C_9  and  C_15
REMARK    9  A    between atoms: C_11  and  C_16
REMARK   10  A    between atoms: C_12  and  C_17
REMARK   11  A    between atoms: C_12  and  C_18
REMARK   12  A    between atoms: C_13  and  C_19
REMARK   13  A    between atoms: C_16  and  C_20
REMARK   14  A    between atoms: C_22  and  C_23
REMARK                            x       y       z     vdW  Elec       q    Type
REMARK                         _______ _______ _______ _____ _____    ______ ____
ROOT
ATOM      8  C   UNL     1      -3.324  -0.840  24.981  0.00  0.00    +0.000 C 
ATOM      9  C   UNL     1      -2.154  -0.100  24.287  0.00  0.00    +0.030 C 
ATOM     10  C   UNL     1      -4.634  -0.614  24.210  0.00  0.00    +0.012 C 
ATOM     11  C   UNL     1      -4.996   0.879  24.102  0.00  0.00    +0.023 C 
ATOM     13  C   UNL     1      -3.809   1.717  23.677  0.00  0.00    -0.073 C 
ATOM     14  C   UNL     1      -2.546   1.259  23.754  0.00  0.00    -0.023 C 
ATOM     19  C   UNL     1      -4.107   3.081  23.118  0.00  0.00    +0.039 C 
ENDROOT
BRANCH   8  12
ATOM     12  C   UNL     1      -3.051  -2.342  25.110  0.00  0.00    -0.013 C 
ATOM     17  C   UNL     1      -4.056  -3.138  24.284  0.00  0.00    +0.007 C 
ATOM     18  C   UNL     1      -1.623  -2.662  24.680  0.00  0.00    +0.007 C 
ENDBRANCH   8  12
BRANCH   9  15
ATOM     15  C   UNL     1      -0.955   0.049  25.230  0.00  0.00    +0.113 C 
BRANCH  15   6
ATOM      6  N   UNL     1       0.223  -0.584  24.616  0.00  0.00    -0.194 NA
ATOM     30  H   UNL     1       0.831  -1.071  25.288  0.00  0.00    +0.148 HD
BRANCH   6   1
ATOM      1  S   UNL     1       1.029   0.214  23.338  0.00  0.00    +0.027 S 
ATOM      3  O   UNL     1       1.320   1.583  23.721  0.00  0.00    -0.158 OA
ATOM      4  O   UNL     1       0.333  -0.078  22.099  0.00  0.00    -0.158 OA
ATOM     21  C   UNL     1       2.563  -0.684  23.310  0.00  0.00    +0.214 C 
ENDBRANCH   6   1
ENDBRANCH  15   6
ENDBRANCH   9  15
BRANCH  11  16
ATOM     16  C   UNL     1      -5.594   1.399  25.415  0.00  0.00    +0.103 C 
BRANCH  16  20
ATOM      2  O   UNL     1      -5.787   3.810  25.449  0.00  0.00    -0.276 OA
ATOM      7  N   UNL     1      -3.904   2.798  26.364  0.00  0.00    -0.311 N 
ATOM     20  C   UNL     1      -5.138   2.805  25.729  0.00  0.00    +0.214 C 
ATOM     31  H   UNL     1      -3.444   1.914  26.555  0.00  0.00    +0.149 HD
BRANCH   7  22
ATOM     22  C   UNL     1      -3.225   4.004  26.780  0.00  0.00    +0.139 C 
BRANCH  22  23
ATOM     23  C   UNL     1      -2.101   4.364  25.853  0.00  0.00    -0.030 A 
ATOM     24  C   UNL     1      -1.048   3.470  25.653  0.00  0.00    +0.009 A 
ATOM     25  C   UNL     1      -2.109   5.591  25.189  0.00  0.00    +0.009 A 
ATOM     26  C   UNL     1      -0.005   3.803  24.789  0.00  0.00    +0.046 A 
ATOM     27  C   UNL     1      -1.065   5.924  24.326  0.00  0.00    +0.046 A 
ATOM     28  C   UNL     1      -0.013   5.030  24.126  0.00  0.00    +0.120 A 
BRANCH  28   5
ATOM      5  O   UNL     1       1.005   5.354  23.282  0.00  0.00    -0.495 OA
ATOM     29  C   UNL     1       0.652   5.699  21.943  0.00  0.00    +0.277 C 
ENDBRANCH  28   5
ENDBRANCH  22  23
ENDBRANCH   7  22
ENDBRANCH  16  20
ENDBRANCH  11  16
TORSDOF 9
ENDMDL
