MODEL 1
REMARK VINA RESULT:      -4.4      0.000      0.000
REMARK  Name = 75537109
REMARK  5 active torsions:
REMARK  status: ('A' for Active; 'I' for Inactive)
REMARK    1  A    between atoms: N_4  and  C_13
REMARK    2  A    between atoms: N_5  and  C_14
REMARK    3  A    between atoms: N_6  and  C_20
REMARK    4  A    between atoms: C_13  and  C_15
REMARK    5  A    between atoms: C_21  and  C_22
REMARK                            x       y       z     vdW  Elec       q    Type
REMARK                         _______ _______ _______ _____ _____    ______ ____
ROOT
ATOM     13  C   UNL     1      -2.842  -9.306   9.893  0.00  0.00    +0.119 C 
ENDROOT
BRANCH  13   4
ATOM      1  O   UNL     1      -1.675 -10.296  16.089  0.00  0.00    -0.252 OA
ATOM      3  N   UNL     1      -2.462 -10.534  13.888  0.00  0.00    -0.278 N 
ATOM      4  N   UNL     1      -2.692 -10.088  11.120  0.00  0.00    -0.295 NA
ATOM      5  N   UNL     1      -3.966 -10.457  15.553  0.00  0.00    -0.287 N 
ATOM      7  C   UNL     1      -3.732 -10.781  13.240  0.00  0.00    +0.109 C 
ATOM      8  C   UNL     1      -3.871  -9.912  11.991  0.00  0.00    +0.109 C 
ATOM      9  C   UNL     1      -4.758 -10.500  14.336  0.00  0.00    +0.132 C 
ATOM     10  C   UNL     1      -1.249 -10.536  13.095  0.00  0.00    +0.125 C 
ATOM     11  C   UNL     1      -1.453  -9.703  11.826  0.00  0.00    +0.104 C 
ATOM     12  C   UNL     1      -2.584 -10.418  15.279  0.00  0.00    +0.305 C 
ATOM     14  C   UNL     1      -4.574 -10.319  16.858  0.00  0.00    +0.133 C 
ENDBRANCH  13   4
BRANCH  13  15
ATOM     15  C   UNL     1      -4.277  -9.245   9.441  0.00  0.00    -0.033 A 
ATOM     16  C   UNL     1      -5.061  -8.136   9.754  0.00  0.00    +0.007 A 
ATOM     17  C   UNL     1      -4.823 -10.300   8.708  0.00  0.00    +0.007 A 
ATOM     18  C   UNL     1      -6.391  -8.080   9.337  0.00  0.00    +0.023 A 
ATOM     19  C   UNL     1      -6.153 -10.244   8.290  0.00  0.00    +0.023 A 
ATOM     20  C   UNL     1      -6.936  -9.134   8.605  0.00  0.00    +0.033 A 
BRANCH  20   6
ATOM      2  O   UNL     1      -9.490  -9.493  10.159  0.00  0.00    -0.276 OA
ATOM      6  N   UNL     1      -8.266  -9.079   8.186  0.00  0.00    -0.286 N 
ATOM     21  C   UNL     1      -9.424  -9.256   8.957  0.00  0.00    +0.214 C 
ATOM     22  C   UNL     1     -10.675  -9.117   8.128  0.00  0.00    +0.109 C 
ATOM     23  H   UNL     1      -8.403  -8.886   7.196  0.00  0.00    +0.155 HD
ENDBRANCH  20   6
ENDBRANCH  13  15
TORSDOF 3
ENDMDL
MODEL 2
REMARK VINA RESULT:      -2.1      3.457      4.918
REMARK  Name = 75537109
REMARK  5 active torsions:
REMARK  status: ('A' for Active; 'I' for Inactive)
REMARK    1  A    between atoms: N_4  and  C_13
REMARK    2  A    between atoms: N_5  and  C_14
REMARK    3  A    between atoms: N_6  and  C_20
REMARK    4  A    between atoms: C_13  and  C_15
REMARK    5  A    between atoms: C_21  and  C_22
REMARK                            x       y       z     vdW  Elec       q    Type
REMARK                         _______ _______ _______ _____ _____    ______ ____
ROOT
ATOM     13  C   UNL     1      -6.976  -9.587  10.291  0.00  0.00    +0.119 C 
ENDROOT
BRANCH  13   4
ATOM      1  O   UNL     1      -0.790  -8.979  11.743  0.00  0.00    -0.252 OA
ATOM      3  N   UNL     1      -2.923  -9.879  11.342  0.00  0.00    -0.278 N 
ATOM      4  N   UNL     1      -5.587 -10.021  10.452  0.00  0.00    -0.295 NA
ATOM      5  N   UNL     1      -1.992 -10.206  13.359  0.00  0.00    -0.287 N 
ATOM      7  C   UNL     1      -3.847 -10.755  12.029  0.00  0.00    +0.109 C 
ATOM      8  C   UNL     1      -5.279 -10.242  11.879  0.00  0.00    +0.109 C 
ATOM      9  C   UNL     1      -3.322 -10.781  13.464  0.00  0.00    +0.132 C 
ATOM     10  C   UNL     1      -3.208  -9.477   9.980  0.00  0.00    +0.125 C 
ATOM     11  C   UNL     1      -4.667  -9.028   9.862  0.00  0.00    +0.104 C 
ATOM     12  C   UNL     1      -1.775  -9.611  12.099  0.00  0.00    +0.305 C 
ATOM     14  C   UNL     1      -1.093 -10.144  14.490  0.00  0.00    +0.133 C 
ENDBRANCH  13   4
BRANCH  13  15
ATOM     15  C   UNL     1      -7.784  -9.825  11.539  0.00  0.00    -0.033 A 
ATOM     16  C   UNL     1      -8.976 -10.545  11.471  0.00  0.00    +0.007 A 
ATOM     17  C   UNL     1      -7.342  -9.323  12.764  0.00  0.00    +0.007 A 
ATOM     18  C   UNL     1      -9.726 -10.765  12.627  0.00  0.00    +0.023 A 
ATOM     19  C   UNL     1      -8.091  -9.542  13.919  0.00  0.00    +0.023 A 
ATOM     20  C   UNL     1      -9.283 -10.263  13.850  0.00  0.00    +0.033 A 
BRANCH  20   6
ATOM      2  O   UNL     1      -8.460 -10.238  16.747  0.00  0.00    -0.276 OA
ATOM      6  N   UNL     1     -10.032 -10.482  15.007  0.00  0.00    -0.286 N 
ATOM     21  C   UNL     1      -9.595 -10.459  16.339  0.00  0.00    +0.214 C 
ATOM     22  C   UNL     1     -10.720 -10.746  17.301  0.00  0.00    +0.109 C 
ATOM     23  H   UNL     1     -11.019 -10.682  14.855  0.00  0.00    +0.155 HD
ENDBRANCH  20   6
ENDBRANCH  13  15
TORSDOF 3
ENDMDL
