MODEL 1
REMARK VINA RESULT:      -5.8      0.000      0.000
REMARK  Name = 75536621
REMARK  7 active torsions:
REMARK  status: ('A' for Active; 'I' for Inactive)
REMARK    1  A    between atoms: O_3  and  C_8
REMARK    2  A    between atoms: N_5  and  C_7
REMARK    3  A    between atoms: N_5  and  C_12
REMARK    4  A    between atoms: N_6  and  C_11
REMARK    5  A    between atoms: C_9  and  C_11
REMARK    6  A    between atoms: C_12  and  C_13
REMARK    7  A    between atoms: C_14  and  C_17
REMARK                            x       y       z     vdW  Elec       q    Type
REMARK                         _______ _______ _______ _____ _____    ______ ____
ROOT
ATOM      2  O   UNL     1      -2.264  -3.019  23.604  0.00  0.00    -0.371 OA
ATOM      7  C   UNL     1      -0.954  -1.950  25.273  0.00  0.00    +0.111 C 
ATOM      8  C   UNL     1      -2.373  -1.416  25.341  0.00  0.00    +0.164 C 
ATOM      9  C   UNL     1      -3.139  -2.527  24.635  0.00  0.00    +0.165 C 
ATOM     10  C   UNL     1      -0.929  -2.561  23.881  0.00  0.00    +0.181 C 
ENDROOT
BRANCH   8   3
ATOM      3  O   UNL     1      -2.822  -1.229  26.668  0.00  0.00    -0.388 OA
ATOM     27  H   UNL     1      -2.884  -2.099  27.096  0.00  0.00    +0.210 HD
ENDBRANCH   8   3
BRANCH   7   5
ATOM      5  N   UNL     1       0.063  -0.928  25.460  0.00  0.00    -0.305 NA
ATOM     26  H   UNL     1       0.965  -1.380  25.612  0.00  0.00    +0.123 HD
BRANCH   5  12
ATOM     12  C   UNL     1       0.159  -0.063  24.290  0.00  0.00    +0.116 C 
BRANCH  12  13
ATOM      1  F   UNL     1      -1.215   5.265  25.499  0.00  0.00    -0.205 F 
ATOM     13  C   UNL     1      -0.208   1.361  24.613  0.00  0.00    -0.033 A 
ATOM     15  C   UNL     1      -0.051   2.357  23.650  0.00  0.00    +0.008 A 
ATOM     16  C   UNL     1      -0.705   1.683  25.876  0.00  0.00    +0.008 A 
ATOM     18  C   UNL     1      -0.391   3.676  23.950  0.00  0.00    +0.038 A 
ATOM     19  C   UNL     1      -1.046   3.002  26.175  0.00  0.00    +0.038 A 
ATOM     20  C   UNL     1      -0.889   3.999  25.212  0.00  0.00    +0.123 A 
ENDBRANCH  12  13
ENDBRANCH   5  12
ENDBRANCH   7   5
BRANCH   9  11
ATOM     11  C   UNL     1      -4.445  -2.060  24.019  0.00  0.00    +0.138 C 
BRANCH  11   6
ATOM      4  O   UNL     1      -3.208   0.330  23.019  0.00  0.00    -0.270 OA
ATOM      6  N   UNL     1      -4.751  -0.713  24.403  0.00  0.00    -0.309 N 
ATOM     14  C   UNL     1      -4.098   0.391  23.863  0.00  0.00    +0.244 C 
ATOM     28  H   UNL     1      -5.428  -0.595  25.149  0.00  0.00    +0.149 HD
BRANCH  14  17
ATOM     17  C   UNL     1      -4.513   1.719  24.385  0.00  0.00    +0.037 A 
ATOM     21  C   UNL     1      -5.473   1.804  25.395  0.00  0.00    +0.013 A 
ATOM     22  C   UNL     1      -3.942   2.881  23.865  0.00  0.00    +0.013 A 
ATOM     23  C   UNL     1      -5.861   3.051  25.885  0.00  0.00    +0.001 A 
ATOM     24  C   UNL     1      -4.330   4.128  24.356  0.00  0.00    +0.001 A 
ATOM     25  C   UNL     1      -5.289   4.213  25.366  0.00  0.00    +0.000 A 
ENDBRANCH  14  17
ENDBRANCH  11   6
ENDBRANCH   9  11
TORSDOF 7
ENDMDL
MODEL 2
REMARK VINA RESULT:      -5.3      2.920      6.344
REMARK  Name = 75536621
REMARK  7 active torsions:
REMARK  status: ('A' for Active; 'I' for Inactive)
REMARK    1  A    between atoms: O_3  and  C_8
REMARK    2  A    between atoms: N_5  and  C_7
REMARK    3  A    between atoms: N_5  and  C_12
REMARK    4  A    between atoms: N_6  and  C_11
REMARK    5  A    between atoms: C_9  and  C_11
REMARK    6  A    between atoms: C_12  and  C_13
REMARK    7  A    between atoms: C_14  and  C_17
REMARK                            x       y       z     vdW  Elec       q    Type
REMARK                         _______ _______ _______ _____ _____    ______ ____
ROOT
ATOM      2  O   UNL     1      -3.100   4.152  23.721  0.00  0.00    -0.371 OA
ATOM      7  C   UNL     1      -4.561   3.225  25.348  0.00  0.00    +0.111 C 
ATOM      8  C   UNL     1      -3.226   3.534  26.001  0.00  0.00    +0.164 C 
ATOM      9  C   UNL     1      -2.653   4.555  25.027  0.00  0.00    +0.165 C 
ATOM     10  C   UNL     1      -4.181   3.217  23.877  0.00  0.00    +0.181 C 
ENDROOT
BRANCH   8   3
ATOM      3  O   UNL     1      -3.366   4.069  27.303  0.00  0.00    -0.388 OA
ATOM     27  H   UNL     1      -2.502   4.025  27.746  0.00  0.00    +0.210 HD
ENDBRANCH   8   3
BRANCH   7   5
ATOM      5  N   UNL     1      -5.148   1.970  25.788  0.00  0.00    -0.305 NA
ATOM     26  H   UNL     1      -6.076   2.153  26.171  0.00  0.00    +0.123 HD
BRANCH   5  12
ATOM     12  C   UNL     1      -5.272   1.031  24.679  0.00  0.00    +0.116 C 
BRANCH  12  13
ATOM      1  F   UNL     1      -1.444  -3.092  24.981  0.00  0.00    -0.205 F 
ATOM     13  C   UNL     1      -4.249  -0.070  24.760  0.00  0.00    -0.033 A 
ATOM     15  C   UNL     1      -4.419  -1.235  24.012  0.00  0.00    +0.008 A 
ATOM     16  C   UNL     1      -3.133   0.074  25.583  0.00  0.00    +0.008 A 
ATOM     18  C   UNL     1      -3.471  -2.256  24.087  0.00  0.00    +0.038 A 
ATOM     19  C   UNL     1      -2.185  -0.946  25.658  0.00  0.00    +0.038 A 
ATOM     20  C   UNL     1      -2.354  -2.111  24.909  0.00  0.00    +0.123 A 
ENDBRANCH  12  13
ENDBRANCH   5  12
ENDBRANCH   7   5
BRANCH   9  11
ATOM     11  C   UNL     1      -1.136   4.624  25.052  0.00  0.00    +0.138 C 
BRANCH  11   6
ATOM      4  O   UNL     1       0.382   2.436  26.126  0.00  0.00    -0.270 OA
ATOM      6  N   UNL     1      -0.552   3.543  24.313  0.00  0.00    -0.309 N 
ATOM     14  C   UNL     1       0.171   2.520  24.919  0.00  0.00    +0.244 C 
ATOM     28  H   UNL     1      -0.628   3.590  23.302  0.00  0.00    +0.149 HD
BRANCH  14  17
ATOM     17  C   UNL     1       0.734   1.488  24.011  0.00  0.00    +0.037 A 
ATOM     21  C   UNL     1       2.069   1.562  23.611  0.00  0.00    +0.013 A 
ATOM     22  C   UNL     1      -0.072   0.444  23.557  0.00  0.00    +0.013 A 
ATOM     23  C   UNL     1       2.598   0.592  22.760  0.00  0.00    +0.001 A 
ATOM     24  C   UNL     1       0.456  -0.526  22.705  0.00  0.00    +0.001 A 
ATOM     25  C   UNL     1       1.791  -0.452  22.307  0.00  0.00    +0.000 A 
ENDBRANCH  14  17
ENDBRANCH  11   6
ENDBRANCH   9  11
TORSDOF 7
ENDMDL
MODEL 3
REMARK VINA RESULT:      -5.3      2.543      5.023
REMARK  Name = 75536621
REMARK  7 active torsions:
REMARK  status: ('A' for Active; 'I' for Inactive)
REMARK    1  A    between atoms: O_3  and  C_8
REMARK    2  A    between atoms: N_5  and  C_7
REMARK    3  A    between atoms: N_5  and  C_12
REMARK    4  A    between atoms: N_6  and  C_11
REMARK    5  A    between atoms: C_9  and  C_11
REMARK    6  A    between atoms: C_12  and  C_13
REMARK    7  A    between atoms: C_14  and  C_17
REMARK                            x       y       z     vdW  Elec       q    Type
REMARK                         _______ _______ _______ _____ _____    ______ ____
ROOT
ATOM      2  O   UNL     1      -4.247   3.542  26.727  0.00  0.00    -0.371 OA
ATOM      7  C   UNL     1      -2.513   4.472  25.396  0.00  0.00    +0.111 C 
ATOM      8  C   UNL     1      -3.598   3.928  24.485  0.00  0.00    +0.164 C 
ATOM      9  C   UNL     1      -4.785   3.883  25.438  0.00  0.00    +0.165 C 
ATOM     10  C   UNL     1      -2.824   3.752  26.698  0.00  0.00    +0.181 C 
ENDROOT
BRANCH   8   3
ATOM      3  O   UNL     1      -3.847   4.765  23.372  0.00  0.00    -0.388 OA
ATOM     27  H   UNL     1      -3.276   5.548  23.445  0.00  0.00    +0.210 HD
ENDBRANCH   8   3
BRANCH   7   5
ATOM      5  N   UNL     1      -1.165   4.215  24.916  0.00  0.00    -0.305 NA
ATOM     26  H   UNL     1      -0.645   5.093  24.897  0.00  0.00    +0.123 HD
BRANCH   5  12
ATOM     12  C   UNL     1      -0.469   3.272  25.783  0.00  0.00    +0.116 C 
BRANCH  12  13
ATOM      1  F   UNL     1      -0.440  -1.933  23.627  0.00  0.00    -0.205 F 
ATOM     13  C   UNL     1      -0.462   1.881  25.207  0.00  0.00    -0.033 A 
ATOM     15  C   UNL     1      -0.292   1.696  23.836  0.00  0.00    +0.008 A 
ATOM     16  C   UNL     1      -0.624   0.778  26.045  0.00  0.00    +0.008 A 
ATOM     18  C   UNL     1      -0.285   0.407  23.302  0.00  0.00    +0.038 A 
ATOM     19  C   UNL     1      -0.617  -0.510  25.512  0.00  0.00    +0.038 A 
ATOM     20  C   UNL     1      -0.447  -0.696  24.140  0.00  0.00    +0.123 A 
ENDBRANCH  12  13
ENDBRANCH   5  12
ENDBRANCH   7   5
BRANCH   9  11
ATOM     11  C   UNL     1      -5.839   2.866  25.037  0.00  0.00    +0.138 C 
BRANCH  11   6
ATOM      4  O   UNL     1      -3.908   1.521  23.392  0.00  0.00    -0.270 OA
ATOM      6  N   UNL     1      -5.360   1.525  25.202  0.00  0.00    -0.309 N 
ATOM     14  C   UNL     1      -4.419   0.951  24.353  0.00  0.00    +0.244 C 
ATOM     28  H   UNL     1      -5.794   0.974  25.935  0.00  0.00    +0.149 HD
BRANCH  14  17
ATOM     17  C   UNL     1      -4.045  -0.457  24.643  0.00  0.00    +0.037 A 
ATOM     21  C   UNL     1      -3.680  -0.831  25.937  0.00  0.00    +0.013 A 
ATOM     22  C   UNL     1      -4.059  -1.406  23.621  0.00  0.00    +0.013 A 
ATOM     23  C   UNL     1      -3.330  -2.154  26.209  0.00  0.00    +0.001 A 
ATOM     24  C   UNL     1      -3.709  -2.729  23.892  0.00  0.00    +0.001 A 
ATOM     25  C   UNL     1      -3.346  -3.103  25.186  0.00  0.00    +0.000 A 
ENDBRANCH  14  17
ENDBRANCH  11   6
ENDBRANCH   9  11
TORSDOF 7
ENDMDL
MODEL 4
REMARK VINA RESULT:      -4.8      3.041      3.669
REMARK  Name = 75536621
REMARK  7 active torsions:
REMARK  status: ('A' for Active; 'I' for Inactive)
REMARK    1  A    between atoms: O_3  and  C_8
REMARK    2  A    between atoms: N_5  and  C_7
REMARK    3  A    between atoms: N_5  and  C_12
REMARK    4  A    between atoms: N_6  and  C_11
REMARK    5  A    between atoms: C_9  and  C_11
REMARK    6  A    between atoms: C_12  and  C_13
REMARK    7  A    between atoms: C_14  and  C_17
REMARK                            x       y       z     vdW  Elec       q    Type
REMARK                         _______ _______ _______ _____ _____    ______ ____
ROOT
ATOM      2  O   UNL     1      -1.888  -2.676  23.986  0.00  0.00    -0.371 OA
ATOM      7  C   UNL     1      -0.139  -1.134  24.444  0.00  0.00    +0.111 C 
ATOM      8  C   UNL     1      -1.301  -0.858  25.381  0.00  0.00    +0.164 C 
ATOM      9  C   UNL     1      -2.042  -2.187  25.330  0.00  0.00    +0.165 C 
ATOM     10  C   UNL     1      -0.819  -1.949  23.356  0.00  0.00    +0.181 C 
ENDROOT
BRANCH   8   3
ATOM      3  O   UNL     1      -0.879  -0.540  26.693  0.00  0.00    -0.388 OA
ATOM     27  H   UNL     1      -1.154   0.371  26.891  0.00  0.00    +0.210 HD
ENDBRANCH   8   3
BRANCH   7   5
ATOM      5  N   UNL     1       0.498   0.069  23.935  0.00  0.00    -0.305 NA
ATOM     26  H   UNL     1       1.114   0.449  24.655  0.00  0.00    +0.123 HD
BRANCH   5  12
ATOM     12  C   UNL     1       1.286  -0.218  22.742  0.00  0.00    +0.116 C 
BRANCH  12  13
ATOM      1  F   UNL     1       6.819  -0.059  23.792  0.00  0.00    -0.205 F 
ATOM     13  C   UNL     1       2.764  -0.176  23.023  0.00  0.00    -0.033 A 
ATOM     15  C   UNL     1       3.493   0.979  22.745  0.00  0.00    +0.008 A 
ATOM     16  C   UNL     1       3.404  -1.292  23.560  0.00  0.00    +0.008 A 
ATOM     18  C   UNL     1       4.864   1.019  23.004  0.00  0.00    +0.038 A 
ATOM     19  C   UNL     1       4.774  -1.253  23.820  0.00  0.00    +0.038 A 
ATOM     20  C   UNL     1       5.504  -0.098  23.543  0.00  0.00    +0.123 A 
ENDBRANCH  12  13
ENDBRANCH   5  12
ENDBRANCH   7   5
BRANCH   9  11
ATOM     11  C   UNL     1      -3.517  -2.067  25.666  0.00  0.00    +0.138 C 
BRANCH  11   6
ATOM      4  O   UNL     1      -4.056  -0.311  23.459  0.00  0.00    -0.270 OA
ATOM      6  N   UNL     1      -3.925  -0.694  25.744  0.00  0.00    -0.309 N 
ATOM     14  C   UNL     1      -4.165   0.085  24.617  0.00  0.00    +0.244 C 
ATOM     28  H   UNL     1      -3.965  -0.283  26.671  0.00  0.00    +0.149 HD
BRANCH  14  17
ATOM     17  C   UNL     1      -4.555   1.497  24.866  0.00  0.00    +0.037 A 
ATOM     21  C   UNL     1      -5.747   1.786  25.532  0.00  0.00    +0.013 A 
ATOM     22  C   UNL     1      -3.730   2.535  24.433  0.00  0.00    +0.013 A 
ATOM     23  C   UNL     1      -6.112   3.111  25.766  0.00  0.00    +0.001 A 
ATOM     24  C   UNL     1      -4.095   3.861  24.667  0.00  0.00    +0.001 A 
ATOM     25  C   UNL     1      -5.286   4.148  25.334  0.00  0.00    +0.000 A 
ENDBRANCH  14  17
ENDBRANCH  11   6
ENDBRANCH   9  11
TORSDOF 7
ENDMDL
MODEL 5
REMARK VINA RESULT:      -4.4      1.826      4.213
REMARK  Name = 75536621
REMARK  7 active torsions:
REMARK  status: ('A' for Active; 'I' for Inactive)
REMARK    1  A    between atoms: O_3  and  C_8
REMARK    2  A    between atoms: N_5  and  C_7
REMARK    3  A    between atoms: N_5  and  C_12
REMARK    4  A    between atoms: N_6  and  C_11
REMARK    5  A    between atoms: C_9  and  C_11
REMARK    6  A    between atoms: C_12  and  C_13
REMARK    7  A    between atoms: C_14  and  C_17
REMARK                            x       y       z     vdW  Elec       q    Type
REMARK                         _______ _______ _______ _____ _____    ______ ____
ROOT
ATOM      2  O   UNL     1      -0.970  -0.539  26.244  0.00  0.00    -0.371 OA
ATOM      7  C   UNL     1      -2.480  -2.170  25.405  0.00  0.00    +0.111 C 
ATOM      8  C   UNL     1      -1.596  -1.684  24.271  0.00  0.00    +0.164 C 
ATOM      9  C   UNL     1      -0.418  -1.107  25.043  0.00  0.00    +0.165 C 
ATOM     10  C   UNL     1      -2.299  -1.057  26.425  0.00  0.00    +0.181 C 
ENDROOT
BRANCH   8   3
ATOM      3  O   UNL     1      -1.198  -2.728  23.404  0.00  0.00    -0.388 OA
ATOM     27  H   UNL     1      -1.994  -3.107  22.996  0.00  0.00    +0.210 HD
ENDBRANCH   8   3
BRANCH   7   5
ATOM      5  N   UNL     1      -3.868  -2.364  25.021  0.00  0.00    -0.305 NA
ATOM     26  H   UNL     1      -4.471  -2.037  25.776  0.00  0.00    +0.123 HD
BRANCH   5  12
ATOM     12  C   UNL     1      -4.186  -1.622  23.806  0.00  0.00    +0.116 C 
BRANCH  12  13
ATOM      1  F   UNL     1      -5.036   3.849  24.849  0.00  0.00    -0.205 F 
ATOM     13  C   UNL     1      -4.413  -0.161  24.085  0.00  0.00    -0.033 A 
ATOM     15  C   UNL     1      -3.643   0.801  23.432  0.00  0.00    +0.008 A 
ATOM     16  C   UNL     1      -5.393   0.231  24.996  0.00  0.00    +0.008 A 
ATOM     18  C   UNL     1      -3.853   2.156  23.691  0.00  0.00    +0.038 A 
ATOM     19  C   UNL     1      -5.604   1.585  25.254  0.00  0.00    +0.038 A 
ATOM     20  C   UNL     1      -4.834   2.548  24.601  0.00  0.00    +0.123 A 
ENDBRANCH  12  13
ENDBRANCH   5  12
ENDBRANCH   7   5
BRANCH   9  11
ATOM     11  C   UNL     1       0.342  -0.041  24.274  0.00  0.00    +0.138 C 
BRANCH  11   6
ATOM      4  O   UNL     1       0.936   2.039  26.162  0.00  0.00    -0.270 OA
ATOM      6  N   UNL     1      -0.304   1.235  24.373  0.00  0.00    -0.309 N 
ATOM     14  C   UNL     1       0.050   2.187  25.323  0.00  0.00    +0.244 C 
ATOM     28  H   UNL     1      -1.093   1.394  23.755  0.00  0.00    +0.149 HD
BRANCH  14  17
ATOM     17  C   UNL     1      -0.733   3.450  25.311  0.00  0.00    +0.037 A 
ATOM     21  C   UNL     1      -0.328   4.516  24.507  0.00  0.00    +0.013 A 
ATOM     22  C   UNL     1      -1.874   3.569  26.105  0.00  0.00    +0.013 A 
ATOM     23  C   UNL     1      -1.065   5.700  24.495  0.00  0.00    +0.001 A 
ATOM     24  C   UNL     1      -2.611   4.754  26.093  0.00  0.00    +0.001 A 
ATOM     25  C   UNL     1      -2.206   5.819  25.288  0.00  0.00    +0.000 A 
ENDBRANCH  14  17
ENDBRANCH  11   6
ENDBRANCH   9  11
TORSDOF 7
ENDMDL
MODEL 6
REMARK VINA RESULT:      -3.7      2.951      5.127
REMARK  Name = 75536621
REMARK  7 active torsions:
REMARK  status: ('A' for Active; 'I' for Inactive)
REMARK    1  A    between atoms: O_3  and  C_8
REMARK    2  A    between atoms: N_5  and  C_7
REMARK    3  A    between atoms: N_5  and  C_12
REMARK    4  A    between atoms: N_6  and  C_11
REMARK    5  A    between atoms: C_9  and  C_11
REMARK    6  A    between atoms: C_12  and  C_13
REMARK    7  A    between atoms: C_14  and  C_17
REMARK                            x       y       z     vdW  Elec       q    Type
REMARK                         _______ _______ _______ _____ _____    ______ ____
ROOT
ATOM      2  O   UNL     1       0.154   3.783  26.027  0.00  0.00    -0.371 OA
ATOM      7  C   UNL     1       0.433   1.770  24.796  0.00  0.00    +0.111 C 
ATOM      8  C   UNL     1      -0.649   2.607  24.138  0.00  0.00    +0.164 C 
ATOM      9  C   UNL     1      -0.325   3.990  24.687  0.00  0.00    +0.165 C 
ATOM     10  C   UNL     1       0.494   2.394  26.181  0.00  0.00    +0.181 C 
ENDROOT
BRANCH   8   3
ATOM      3  O   UNL     1      -0.582   2.572  22.726  0.00  0.00    -0.388 OA
ATOM     27  H   UNL     1      -0.036   1.811  22.464  0.00  0.00    +0.210 HD
ENDBRANCH   8   3
BRANCH   7   5
ATOM      5  N   UNL     1       0.131   0.349  24.830  0.00  0.00    -0.305 NA
ATOM     26  H   UNL     1       0.966  -0.162  25.119  0.00  0.00    +0.123 HD
BRANCH   5  12
ATOM     12  C   UNL     1      -0.947   0.062  25.769  0.00  0.00    +0.116 C 
BRANCH  12  13
ATOM      1  F   UNL     1      -4.939  -3.172  23.457  0.00  0.00    -0.205 F 
ATOM     13  C   UNL     1      -2.014  -0.802  25.151  0.00  0.00    -0.033 A 
ATOM     15  C   UNL     1      -1.727  -2.121  24.803  0.00  0.00    +0.008 A 
ATOM     16  C   UNL     1      -3.289  -0.282  24.926  0.00  0.00    +0.008 A 
ATOM     18  C   UNL     1      -2.716  -2.922  24.230  0.00  0.00    +0.038 A 
ATOM     19  C   UNL     1      -4.277  -1.082  24.354  0.00  0.00    +0.038 A 
ATOM     20  C   UNL     1      -3.991  -2.403  24.006  0.00  0.00    +0.123 A 
ENDBRANCH  12  13
ENDBRANCH   5  12
ENDBRANCH   7   5
BRANCH   9  11
ATOM     11  C   UNL     1      -1.521   4.924  24.708  0.00  0.00    +0.138 C 
BRANCH  11   6
ATOM      4  O   UNL     1      -3.006   3.945  26.961  0.00  0.00    -0.270 OA
ATOM      6  N   UNL     1      -2.754   4.194  24.668  0.00  0.00    -0.309 N 
ATOM     14  C   UNL     1      -3.408   3.757  25.816  0.00  0.00    +0.244 C 
ATOM     28  H   UNL     1      -3.105   3.942  23.750  0.00  0.00    +0.149 HD
BRANCH  14  17
ATOM     17  C   UNL     1      -4.663   2.990  25.605  0.00  0.00    +0.037 A 
ATOM     21  C   UNL     1      -5.027   2.584  24.320  0.00  0.00    +0.013 A 
ATOM     22  C   UNL     1      -5.479   2.677  26.692  0.00  0.00    +0.013 A 
ATOM     23  C   UNL     1      -6.205   1.864  24.123  0.00  0.00    +0.001 A 
ATOM     24  C   UNL     1      -6.657   1.956  26.495  0.00  0.00    +0.001 A 
ATOM     25  C   UNL     1      -7.019   1.549  25.210  0.00  0.00    +0.000 A 
ENDBRANCH  14  17
ENDBRANCH  11   6
ENDBRANCH   9  11
TORSDOF 7
ENDMDL
MODEL 7
REMARK VINA RESULT:      -3.5      2.977      4.983
REMARK  Name = 75536621
REMARK  7 active torsions:
REMARK  status: ('A' for Active; 'I' for Inactive)
REMARK    1  A    between atoms: O_3  and  C_8
REMARK    2  A    between atoms: N_5  and  C_7
REMARK    3  A    between atoms: N_5  and  C_12
REMARK    4  A    between atoms: N_6  and  C_11
REMARK    5  A    between atoms: C_9  and  C_11
REMARK    6  A    between atoms: C_12  and  C_13
REMARK    7  A    between atoms: C_14  and  C_17
REMARK                            x       y       z     vdW  Elec       q    Type
REMARK                         _______ _______ _______ _____ _____    ______ ____
ROOT
ATOM      2  O   UNL     1       0.165   3.715  26.117  0.00  0.00    -0.371 OA
ATOM      7  C   UNL     1       0.453   1.790  24.755  0.00  0.00    +0.111 C 
ATOM      8  C   UNL     1      -0.655   2.648  24.171  0.00  0.00    +0.164 C 
ATOM      9  C   UNL     1      -0.343   3.999  24.802  0.00  0.00    +0.165 C 
ATOM     10  C   UNL     1       0.530   2.325  26.176  0.00  0.00    +0.181 C 
ENDROOT
BRANCH   8   3
ATOM      3  O   UNL     1      -0.615   2.705  22.759  0.00  0.00    -0.388 OA
ATOM     27  H   UNL     1      -1.499   2.487  22.419  0.00  0.00    +0.210 HD
ENDBRANCH   8   3
BRANCH   7   5
ATOM      5  N   UNL     1       0.174   0.364  24.702  0.00  0.00    -0.305 NA
ATOM     26  H   UNL     1       1.037  -0.149  24.885  0.00  0.00    +0.123 HD
BRANCH   5  12
ATOM     12  C   UNL     1      -0.822  -0.014  25.698  0.00  0.00    +0.116 C 
BRANCH  12  13
ATOM      1  F   UNL     1      -4.961  -3.109  23.456  0.00  0.00    -0.205 F 
ATOM     13  C   UNL     1      -1.927  -0.841  25.098  0.00  0.00    -0.033 A 
ATOM     15  C   UNL     1      -3.161  -0.256  24.818  0.00  0.00    +0.008 A 
ATOM     16  C   UNL     1      -1.718  -2.193  24.825  0.00  0.00    +0.008 A 
ATOM     18  C   UNL     1      -4.187  -1.022  24.263  0.00  0.00    +0.038 A 
ATOM     19  C   UNL     1      -2.742  -2.959  24.270  0.00  0.00    +0.038 A 
ATOM     20  C   UNL     1      -3.977  -2.374  23.988  0.00  0.00    +0.123 A 
ENDBRANCH  12  13
ENDBRANCH   5  12
ENDBRANCH   7   5
BRANCH   9  11
ATOM     11  C   UNL     1      -1.554   4.909  24.905  0.00  0.00    +0.138 C 
BRANCH  11   6
ATOM      4  O   UNL     1      -3.523   3.673  23.220  0.00  0.00    -0.270 OA
ATOM      6  N   UNL     1      -2.715   4.186  25.334  0.00  0.00    -0.309 N 
ATOM     14  C   UNL     1      -3.620   3.617  24.443  0.00  0.00    +0.244 C 
ATOM     28  H   UNL     1      -2.894   4.163  26.332  0.00  0.00    +0.149 HD
BRANCH  14  17
ATOM     17  C   UNL     1      -4.787   2.922  25.046  0.00  0.00    +0.037 A 
ATOM     21  C   UNL     1      -5.044   3.046  26.412  0.00  0.00    +0.013 A 
ATOM     22  C   UNL     1      -5.626   2.146  24.246  0.00  0.00    +0.013 A 
ATOM     23  C   UNL     1      -6.141   2.395  26.978  0.00  0.00    +0.001 A 
ATOM     24  C   UNL     1      -6.722   1.495  24.812  0.00  0.00    +0.001 A 
ATOM     25  C   UNL     1      -6.980   1.620  26.177  0.00  0.00    +0.000 A 
ENDBRANCH  14  17
ENDBRANCH  11   6
ENDBRANCH   9  11
TORSDOF 7
ENDMDL
MODEL 8
REMARK VINA RESULT:      -2.6      2.732      3.879
REMARK  Name = 75536621
REMARK  7 active torsions:
REMARK  status: ('A' for Active; 'I' for Inactive)
REMARK    1  A    between atoms: O_3  and  C_8
REMARK    2  A    between atoms: N_5  and  C_7
REMARK    3  A    between atoms: N_5  and  C_12
REMARK    4  A    between atoms: N_6  and  C_11
REMARK    5  A    between atoms: C_9  and  C_11
REMARK    6  A    between atoms: C_12  and  C_13
REMARK    7  A    between atoms: C_14  and  C_17
REMARK                            x       y       z     vdW  Elec       q    Type
REMARK                         _______ _______ _______ _____ _____    ______ ____
ROOT
ATOM      2  O   UNL     1      -3.225  -2.191  24.069  0.00  0.00    -0.371 OA
ATOM      7  C   UNL     1      -1.095  -2.127  25.119  0.00  0.00    +0.111 C 
ATOM      8  C   UNL     1      -1.901  -0.919  25.562  0.00  0.00    +0.164 C 
ATOM      9  C   UNL     1      -3.319  -1.386  25.257  0.00  0.00    +0.165 C 
ATOM     10  C   UNL     1      -1.846  -2.546  23.866  0.00  0.00    +0.181 C 
ENDROOT
BRANCH   8   3
ATOM      3  O   UNL     1      -1.729  -0.621  26.934  0.00  0.00    -0.388 OA
ATOM     27  H   UNL     1      -2.586  -0.726  27.379  0.00  0.00    +0.210 HD
ENDBRANCH   8   3
BRANCH   7   5
ATOM      5  N   UNL     1       0.306  -1.831  24.866  0.00  0.00    -0.305 NA
ATOM     26  H   UNL     1       0.776  -2.684  24.563  0.00  0.00    +0.123 HD
BRANCH   5  12
ATOM     12  C   UNL     1       0.450  -0.817  23.828  0.00  0.00    +0.116 C 
BRANCH  12  13
ATOM      1  F   UNL     1       5.859   0.355  22.776  0.00  0.00    -0.205 F 
ATOM     13  C   UNL     1       1.895  -0.504  23.547  0.00  0.00    -0.033 A 
ATOM     15  C   UNL     1       2.886  -1.426  23.883  0.00  0.00    +0.008 A 
ATOM     16  C   UNL     1       2.243   0.708  22.951  0.00  0.00    +0.008 A 
ATOM     18  C   UNL     1       4.225  -1.136  23.622  0.00  0.00    +0.038 A 
ATOM     19  C   UNL     1       3.581   0.999  22.690  0.00  0.00    +0.038 A 
ATOM     20  C   UNL     1       4.573   0.077  23.026  0.00  0.00    +0.123 A 
ENDBRANCH  12  13
ENDBRANCH   5  12
ENDBRANCH   7   5
BRANCH   9  11
ATOM     11  C   UNL     1      -4.291  -0.243  25.027  0.00  0.00    +0.138 C 
BRANCH  11   6
ATOM      4  O   UNL     1      -2.885   1.218  22.994  0.00  0.00    -0.270 OA
ATOM      6  N   UNL     1      -3.647   1.029  25.177  0.00  0.00    -0.309 N 
ATOM     14  C   UNL     1      -2.986   1.667  24.132  0.00  0.00    +0.244 C 
ATOM     28  H   UNL     1      -3.631   1.424  26.112  0.00  0.00    +0.149 HD
BRANCH  14  17
ATOM     17  C   UNL     1      -2.347   2.969  24.457  0.00  0.00    +0.037 A 
ATOM     21  C   UNL     1      -0.984   3.156  24.221  0.00  0.00    +0.013 A 
ATOM     22  C   UNL     1      -3.110   4.004  24.998  0.00  0.00    +0.013 A 
ATOM     23  C   UNL     1      -0.385   4.379  24.525  0.00  0.00    +0.001 A 
ATOM     24  C   UNL     1      -2.511   5.227  25.302  0.00  0.00    +0.001 A 
ATOM     25  C   UNL     1      -1.149   5.414  25.064  0.00  0.00    +0.000 A 
ENDBRANCH  14  17
ENDBRANCH  11   6
ENDBRANCH   9  11
TORSDOF 7
ENDMDL
MODEL 9
REMARK VINA RESULT:      -2.4     16.117     18.749
REMARK  Name = 75536621
REMARK  7 active torsions:
REMARK  status: ('A' for Active; 'I' for Inactive)
REMARK    1  A    between atoms: O_3  and  C_8
REMARK    2  A    between atoms: N_5  and  C_7
REMARK    3  A    between atoms: N_5  and  C_12
REMARK    4  A    between atoms: N_6  and  C_11
REMARK    5  A    between atoms: C_9  and  C_11
REMARK    6  A    between atoms: C_12  and  C_13
REMARK    7  A    between atoms: C_14  and  C_17
REMARK                            x       y       z     vdW  Elec       q    Type
REMARK                         _______ _______ _______ _____ _____    ______ ____
ROOT
ATOM      2  O   UNL     1      17.404   8.012  20.153  0.00  0.00    -0.371 OA
ATOM      7  C   UNL     1      15.958   8.116  22.034  0.00  0.00    +0.111 C 
ATOM      8  C   UNL     1      15.583   6.912  21.188  0.00  0.00    +0.164 C 
ATOM      9  C   UNL     1      16.867   6.701  20.396  0.00  0.00    +0.165 C 
ATOM     10  C   UNL     1      16.762   8.941  21.044  0.00  0.00    +0.181 C 
ENDROOT
BRANCH   8   3
ATOM      3  O   UNL     1      15.252   5.779  21.967  0.00  0.00    -0.388 OA
ATOM     27  H   UNL     1      16.067   5.278  22.138  0.00  0.00    +0.210 HD
ENDBRANCH   8   3
BRANCH   7   5
ATOM      5  N   UNL     1      14.811   8.832  22.568  0.00  0.00    -0.305 NA
ATOM     26  H   UNL     1      15.126   9.722  22.956  0.00  0.00    +0.123 HD
BRANCH   5  12
ATOM     12  C   UNL     1      13.824   9.094  21.527  0.00  0.00    +0.116 C 
BRANCH  12  13
ATOM      1  F   UNL     1       8.975   6.398  22.507  0.00  0.00    -0.205 F 
ATOM     13  C   UNL     1      12.528   8.374  21.789  0.00  0.00    -0.033 A 
ATOM     15  C   UNL     1      12.404   7.023  21.466  0.00  0.00    +0.008 A 
ATOM     16  C   UNL     1      11.452   9.057  22.354  0.00  0.00    +0.008 A 
ATOM     18  C   UNL     1      11.203   6.355  21.708  0.00  0.00    +0.038 A 
ATOM     19  C   UNL     1      10.252   8.390  22.597  0.00  0.00    +0.038 A 
ATOM     20  C   UNL     1      10.127   7.039  22.274  0.00  0.00    +0.123 A 
ENDBRANCH  12  13
ENDBRANCH   5  12
ENDBRANCH   7   5
BRANCH   9  11
ATOM     11  C   UNL     1      16.647   5.984  19.076  0.00  0.00    +0.138 C 
BRANCH  11   6
ATOM      4  O   UNL     1      13.809   6.294  19.384  0.00  0.00    -0.270 OA
ATOM      6  N   UNL     1      15.769   6.725  18.219  0.00  0.00    -0.309 N 
ATOM     14  C   UNL     1      14.399   6.822  18.445  0.00  0.00    +0.244 C 
ATOM     28  H   UNL     1      16.181   7.128  17.383  0.00  0.00    +0.149 HD
BRANCH  14  17
ATOM     17  C   UNL     1      13.623   7.606  17.450  0.00  0.00    +0.037 A 
ATOM     21  C   UNL     1      14.209   7.972  16.238  0.00  0.00    +0.013 A 
ATOM     22  C   UNL     1      12.307   7.977  17.728  0.00  0.00    +0.013 A 
ATOM     23  C   UNL     1      13.480   8.708  15.304  0.00  0.00    +0.001 A 
ATOM     24  C   UNL     1      11.577   8.712  16.794  0.00  0.00    +0.001 A 
ATOM     25  C   UNL     1      12.163   9.076  15.582  0.00  0.00    +0.000 A 
ENDBRANCH  14  17
ENDBRANCH  11   6
ENDBRANCH   9  11
TORSDOF 7
ENDMDL
