MODEL 1
REMARK VINA RESULT:      -5.2      0.000      0.000
REMARK  Name = 11941759
REMARK  10 active torsions:
REMARK  status: ('A' for Active; 'I' for Inactive)
REMARK    1  A    between atoms: N_4  and  C_16
REMARK    2  A    between atoms: N_5  and  C_19
REMARK    3  A    between atoms: N_8  and  C_22
REMARK    4  A    between atoms: N_8  and  C_24
REMARK    5  A    between atoms: N_8  and  C_25
REMARK    6  A    between atoms: C_10  and  C_16
REMARK    7  A    between atoms: C_11  and  C_17
REMARK    8  A    between atoms: C_19  and  C_21
REMARK    9  A    between atoms: C_20  and  C_22
REMARK   10  A    between atoms: C_24  and  C_28
REMARK                            x       y       z     vdW  Elec       q    Type
REMARK                         _______ _______ _______ _____ _____    ______ ____
ROOT
ATOM      3  N   UNL     1      14.714  -6.862  31.871  0.00  0.00    -0.297 NA
ATOM      9  C   UNL     1      12.144  -6.678  31.505  0.00  0.00    +0.005 C 
ATOM     10  C   UNL     1      14.377  -7.193  30.460  0.00  0.00    +0.078 C 
ATOM     11  C   UNL     1      12.472  -7.577  32.713  0.00  0.00    +0.092 C 
ATOM     12  C   UNL     1      12.847  -7.241  30.254  0.00  0.00    +0.025 C 
ATOM     13  C   UNL     1      12.762  -5.299  31.797  0.00  0.00    +0.020 C 
ATOM     14  C   UNL     1      13.997  -7.772  32.799  0.00  0.00    +0.097 C 
ATOM     15  C   UNL     1      14.253  -5.475  32.136  0.00  0.00    +0.085 C 
ENDROOT
BRANCH  11  17
ATOM      1  O   UNL     1      12.334  -9.935  32.366  0.00  0.00    -0.275 OA
ATOM      5  N   UNL     1      10.389  -8.749  32.850  0.00  0.00    -0.308 N 
ATOM     17  C   UNL     1      11.749  -8.887  32.627  0.00  0.00    +0.218 C 
ATOM     34  H   UNL     1      10.009  -7.843  33.104  0.00  0.00    +0.149 HD
BRANCH   5  19
ATOM     19  C   UNL     1       9.464  -9.859  32.801  0.00  0.00    +0.178 C 
BRANCH  19  21
ATOM      2  O   UNL     1       7.816  -8.346  31.842  0.00  0.00    -0.466 OA
ATOM     21  C   UNL     1       8.331  -9.603  31.843  0.00  0.00    +0.122 A 
ATOM     23  C   UNL     1       7.674 -10.396  30.931  0.00  0.00    +0.046 A 
ATOM     26  C   UNL     1       6.692  -9.573  30.330  0.00  0.00    +0.041 A 
ATOM     27  C   UNL     1       6.818  -8.335  30.919  0.00  0.00    +0.195 A 
ENDBRANCH  19  21
ENDBRANCH   5  19
ENDBRANCH  11  17
BRANCH  10  16
ATOM     16  C   UNL     1      15.056  -8.480  29.987  0.00  0.00    +0.164 C 
BRANCH  16   4
ATOM      4  N   UNL     1      15.500  -8.379  28.605  0.00  0.00    -0.250 N 
ATOM      6  N   UNL     1      14.960  -9.099  27.628  0.00  0.00    -0.065 NA
ATOM      7  N   UNL     1      15.593  -8.766  26.492  0.00  0.00    -0.133 NA
ATOM     18  C   UNL     1      16.476  -7.593  28.059  0.00  0.00    +0.135 A 
ATOM     20  C   UNL     1      16.551  -7.824  26.708  0.00  0.00    +0.097 A 
BRANCH  20  22
ATOM     22  C   UNL     1      17.403  -7.268  25.660  0.00  0.00    +0.143 C 
BRANCH  22   8
ATOM      8  N   UNL     1      16.840  -6.062  25.023  0.00  0.00    -0.295 NA
ATOM     25  C   UNL     1      17.400  -5.899  23.686  0.00  0.00    +0.105 C 
BRANCH   8  24
ATOM     24  C   UNL     1      17.110  -4.891  25.847  0.00  0.00    +0.119 C 
BRANCH  24  28
ATOM     28  C   UNL     1      16.989  -3.612  25.062  0.00  0.00    -0.033 A 
ATOM     29  C   UNL     1      17.291  -2.392  25.667  0.00  0.00    +0.005 A 
ATOM     30  C   UNL     1      16.578  -3.647  23.731  0.00  0.00    +0.005 A 
ATOM     31  C   UNL     1      17.180  -1.207  24.940  0.00  0.00    +0.000 A 
ATOM     32  C   UNL     1      16.467  -2.463  23.003  0.00  0.00    +0.000 A 
ATOM     33  C   UNL     1      16.768  -1.242  23.608  0.00  0.00    +0.000 A 
ENDBRANCH  24  28
ENDBRANCH   8  24
ENDBRANCH  22   8
ENDBRANCH  20  22
ENDBRANCH  16   4
ENDBRANCH  10  16
TORSDOF 9
ENDMDL
MODEL 2
REMARK VINA RESULT:      -1.8     15.242     19.088
REMARK  Name = 11941759
REMARK  10 active torsions:
REMARK  status: ('A' for Active; 'I' for Inactive)
REMARK    1  A    between atoms: N_4  and  C_16
REMARK    2  A    between atoms: N_5  and  C_19
REMARK    3  A    between atoms: N_8  and  C_22
REMARK    4  A    between atoms: N_8  and  C_24
REMARK    5  A    between atoms: N_8  and  C_25
REMARK    6  A    between atoms: C_10  and  C_16
REMARK    7  A    between atoms: C_11  and  C_17
REMARK    8  A    between atoms: C_19  and  C_21
REMARK    9  A    between atoms: C_20  and  C_22
REMARK   10  A    between atoms: C_24  and  C_28
REMARK                            x       y       z     vdW  Elec       q    Type
REMARK                         _______ _______ _______ _____ _____    ______ ____
ROOT
ATOM      3  N   UNL     1      -3.433  -1.069  25.789  0.00  0.00    -0.297 NA
ATOM      9  C   UNL     1      -1.614  -2.435  24.525  0.00  0.00    +0.005 C 
ATOM     10  C   UNL     1      -3.981  -1.576  24.502  0.00  0.00    +0.078 C 
ATOM     11  C   UNL     1      -1.085  -1.046  24.931  0.00  0.00    +0.092 C 
ATOM     12  C   UNL     1      -2.879  -2.259  23.662  0.00  0.00    +0.025 C 
ATOM     13  C   UNL     1      -2.039  -3.146  25.822  0.00  0.00    +0.020 C 
ATOM     14  C   UNL     1      -2.236  -0.226  25.542  0.00  0.00    +0.097 C 
ATOM     15  C   UNL     1      -3.013  -2.241  26.598  0.00  0.00    +0.085 C 
ENDROOT
BRANCH  11  17
ATOM      1  O   UNL     1      -1.096   0.431  23.056  0.00  0.00    -0.275 OA
ATOM      5  N   UNL     1       0.872  -0.689  23.598  0.00  0.00    -0.308 N 
ATOM     17  C   UNL     1      -0.459  -0.342  23.766  0.00  0.00    +0.218 C 
ATOM     34  H   UNL     1       1.320  -1.305  24.270  0.00  0.00    +0.149 HD
BRANCH   5  19
ATOM     19  C   UNL     1       1.697  -0.167  22.533  0.00  0.00    +0.178 C 
BRANCH  19  21
ATOM      2  O   UNL     1       3.670  -1.170  23.545  0.00  0.00    -0.466 OA
ATOM     21  C   UNL     1       3.143  -0.075  22.937  0.00  0.00    +0.122 A 
ATOM     23  C   UNL     1       4.091   0.916  22.822  0.00  0.00    +0.046 A 
ATOM     26  C   UNL     1       5.275   0.396  23.397  0.00  0.00    +0.041 A 
ATOM     27  C   UNL     1       4.968  -0.875  23.822  0.00  0.00    +0.195 A 
ENDBRANCH  19  21
ENDBRANCH   5  19
ENDBRANCH  11  17
BRANCH  10  16
ATOM     16  C   UNL     1      -4.707  -0.486  23.710  0.00  0.00    +0.164 C 
BRANCH  16   4
ATOM      4  N   UNL     1      -4.909   0.715  24.504  0.00  0.00    -0.250 N 
ATOM      6  N   UNL     1      -5.973   0.887  25.282  0.00  0.00    -0.065 NA
ATOM      7  N   UNL     1      -5.848   2.088  25.869  0.00  0.00    -0.133 NA
ATOM     18  C   UNL     1      -4.121   1.827  24.618  0.00  0.00    +0.135 A 
ATOM     20  C   UNL     1      -4.703   2.717  25.486  0.00  0.00    +0.097 A 
BRANCH  20  22
ATOM     22  C   UNL     1      -4.298   4.038  25.960  0.00  0.00    +0.143 C 
BRANCH  22   8
ATOM      8  N   UNL     1      -3.724   4.891  24.902  0.00  0.00    -0.295 NA
ATOM     25  C   UNL     1      -3.630   4.143  23.654  0.00  0.00    +0.105 C 
BRANCH   8  24
ATOM     24  C   UNL     1      -2.415   5.382  25.315  0.00  0.00    +0.119 C 
BRANCH  24  28
ATOM     28  C   UNL     1      -1.379   4.289  25.311  0.00  0.00    -0.033 A 
ATOM     29  C   UNL     1      -1.249   3.448  26.415  0.00  0.00    +0.005 A 
ATOM     30  C   UNL     1      -0.550   4.118  24.203  0.00  0.00    +0.005 A 
ATOM     31  C   UNL     1      -0.290   2.435  26.412  0.00  0.00    +0.000 A 
ATOM     32  C   UNL     1       0.409   3.106  24.198  0.00  0.00    +0.000 A 
ATOM     33  C   UNL     1       0.539   2.264  25.304  0.00  0.00    +0.000 A 
ENDBRANCH  24  28
ENDBRANCH   8  24
ENDBRANCH  22   8
ENDBRANCH  20  22
ENDBRANCH  16   4
ENDBRANCH  10  16
TORSDOF 9
ENDMDL
MODEL 3
REMARK VINA RESULT:      -1.4     14.587     18.436
REMARK  Name = 11941759
REMARK  10 active torsions:
REMARK  status: ('A' for Active; 'I' for Inactive)
REMARK    1  A    between atoms: N_4  and  C_16
REMARK    2  A    between atoms: N_5  and  C_19
REMARK    3  A    between atoms: N_8  and  C_22
REMARK    4  A    between atoms: N_8  and  C_24
REMARK    5  A    between atoms: N_8  and  C_25
REMARK    6  A    between atoms: C_10  and  C_16
REMARK    7  A    between atoms: C_11  and  C_17
REMARK    8  A    between atoms: C_19  and  C_21
REMARK    9  A    between atoms: C_20  and  C_22
REMARK   10  A    between atoms: C_24  and  C_28
REMARK                            x       y       z     vdW  Elec       q    Type
REMARK                         _______ _______ _______ _____ _____    ______ ____
ROOT
ATOM      3  N   UNL     1      -3.484  -0.437  25.822  0.00  0.00    -0.297 NA
ATOM      9  C   UNL     1      -2.129  -1.961  24.205  0.00  0.00    +0.005 C 
ATOM     10  C   UNL     1      -4.219  -0.595  24.538  0.00  0.00    +0.078 C 
ATOM     11  C   UNL     1      -1.259  -0.811  24.747  0.00  0.00    +0.092 C 
ATOM     12  C   UNL     1      -3.367  -1.366  23.505  0.00  0.00    +0.025 C 
ATOM     13  C   UNL     1      -2.628  -2.755  25.425  0.00  0.00    +0.020 C 
ATOM     14  C   UNL     1      -2.139   0.141  25.579  0.00  0.00    +0.097 C 
ATOM     15  C   UNL     1      -3.307  -1.788  26.413  0.00  0.00    +0.085 C 
ENDROOT
BRANCH  11  17
ATOM      1  O   UNL     1      -1.126   0.752  22.948  0.00  0.00    -0.275 OA
ATOM      5  N   UNL     1       0.756  -0.507  23.490  0.00  0.00    -0.308 N 
ATOM     17  C   UNL     1      -0.557  -0.090  23.637  0.00  0.00    +0.218 C 
ATOM     34  H   UNL     1       1.147  -1.178  24.143  0.00  0.00    +0.149 HD
BRANCH   5  19
ATOM     19  C   UNL     1       1.642   0.016  22.476  0.00  0.00    +0.178 C 
BRANCH  19  21
ATOM      2  O   UNL     1       3.495  -1.158  23.530  0.00  0.00    -0.466 OA
ATOM     21  C   UNL     1       3.081  -0.019  22.915  0.00  0.00    +0.122 A 
ATOM     23  C   UNL     1       4.114   0.885  22.827  0.00  0.00    +0.046 A 
ATOM     26  C   UNL     1       5.234   0.263  23.428  0.00  0.00    +0.041 A 
ATOM     27  C   UNL     1       4.806  -0.979  23.839  0.00  0.00    +0.195 A 
ENDBRANCH  19  21
ENDBRANCH   5  19
ENDBRANCH  11  17
BRANCH  10  16
ATOM     16  C   UNL     1      -4.712   0.744  23.982  0.00  0.00    +0.164 C 
BRANCH  16   4
ATOM      4  N   UNL     1      -4.103   1.871  24.671  0.00  0.00    -0.250 N 
ATOM      6  N   UNL     1      -4.679   2.471  25.706  0.00  0.00    -0.065 NA
ATOM      7  N   UNL     1      -3.860   3.459  26.100  0.00  0.00    -0.133 NA
ATOM     18  C   UNL     1      -2.913   2.500  24.429  0.00  0.00    +0.135 A 
ATOM     20  C   UNL     1      -2.739   3.519  25.332  0.00  0.00    +0.097 A 
BRANCH  20  22
ATOM     22  C   UNL     1      -1.667   4.492  25.523  0.00  0.00    +0.143 C 
BRANCH  22   8
ATOM      8  N   UNL     1      -0.324   3.884  25.584  0.00  0.00    -0.295 NA
ATOM     25  C   UNL     1       0.178   3.648  24.236  0.00  0.00    +0.105 C 
BRANCH   8  24
ATOM     24  C   UNL     1      -0.374   2.642  26.346  0.00  0.00    +0.119 C 
BRANCH  24  28
ATOM     28  C   UNL     1       0.553   2.673  27.532  0.00  0.00    -0.033 A 
ATOM     29  C   UNL     1       1.901   2.981  27.355  0.00  0.00    +0.005 A 
ATOM     30  C   UNL     1       0.062   2.396  28.808  0.00  0.00    +0.005 A 
ATOM     31  C   UNL     1       2.760   3.010  28.454  0.00  0.00    +0.000 A 
ATOM     32  C   UNL     1       0.921   2.426  29.907  0.00  0.00    +0.000 A 
ATOM     33  C   UNL     1       2.270   2.733  29.729  0.00  0.00    +0.000 A 
ENDBRANCH  24  28
ENDBRANCH   8  24
ENDBRANCH  22   8
ENDBRANCH  20  22
ENDBRANCH  16   4
ENDBRANCH  10  16
TORSDOF 9
ENDMDL
