MODEL 1
REMARK VINA RESULT:       7.3      0.000      0.000
REMARK  Name = 11885096
REMARK  13 active torsions:
REMARK  status: ('A' for Active; 'I' for Inactive)
REMARK    1  A    between atoms: O_2  and  C_14
REMARK    2  A    between atoms: O_3  and  C_19
REMARK    3  A    between atoms: C_9  and  C_17
REMARK    4  A    between atoms: C_11  and  C_19
REMARK    5  A    between atoms: C_11  and  C_20
REMARK    6  A    between atoms: C_12  and  C_22
REMARK    7  A    between atoms: C_22  and  C_23
REMARK    8  A    between atoms: C_29  and  C_30
REMARK    9  A    between atoms: C_31  and  C_32
REMARK   10  A    between atoms: C_32  and  C_33
REMARK   11  A    between atoms: C_33  and  C_34
REMARK   12  A    between atoms: C_34  and  C_35
REMARK   13  A    between atoms: C_35  and  C_36
REMARK                            x       y       z     vdW  Elec       q    Type
REMARK                         _______ _______ _______ _____ _____    ______ ____
ROOT
ATOM      1  S   UNL     1       0.598   2.186  25.072  0.00  0.00    -0.057 S 
ATOM      5  O   UNL     1       1.542  -0.211  21.188  0.00  0.00    -0.275 OA
ATOM      6  N   UNL     1      -0.433   1.131  22.946  0.00  0.00    -0.229 NA
ATOM      8  N   UNL     1       1.949   0.896  23.230  0.00  0.00    -0.265 N 
ATOM      9  C   UNL     1      -3.911   2.045  24.338  0.00  0.00    -0.019 C 
ATOM     10  C   UNL     1      -3.356   3.331  25.095  0.00  0.00    +0.011 C 
ATOM     11  C   UNL     1      -4.373   4.117  26.008  0.00  0.00    +0.021 C 
ATOM     12  C   UNL     1      -2.884   1.681  23.168  0.00  0.00    +0.054 C 
ATOM     13  C   UNL     1      -5.284   2.375  23.697  0.00  0.00    +0.010 C 
ATOM     14  C   UNL     1      -5.706   4.323  25.233  0.00  0.00    +0.123 C 
ATOM     15  C   UNL     1      -1.990   3.043  25.782  0.00  0.00    +0.049 C 
ATOM     16  C   UNL     1      -6.269   3.030  24.655  0.00  0.00    +0.032 C 
ATOM     17  C   UNL     1      -4.079   0.823  25.273  0.00  0.00    +0.012 C 
ATOM     18  C   UNL     1      -1.462   1.706  23.667  0.00  0.00    +0.058 A 
ATOM     20  C   UNL     1      -3.795   5.529  26.313  0.00  0.00    +0.016 C 
ATOM     21  C   UNL     1      -1.081   2.338  24.833  0.00  0.00    +0.015 A 
ATOM     24  C   UNL     1       0.698   1.315  23.595  0.00  0.00    +0.165 A 
ATOM     31  C   UNL     1       2.297   0.172  22.074  0.00  0.00    +0.219 C 
ATOM     39  H   UNL     1       2.691   1.147  23.880  0.00  0.00    +0.157 HD
ENDROOT
BRANCH  14   2
ATOM      2  O   UNL     1      -6.692   4.917  26.076  0.00  0.00    -0.391 OA
ATOM     37  H   UNL     1      -6.823   5.834  25.785  0.00  0.00    +0.210 HD
ENDBRANCH  14   2
BRANCH  11  19
ATOM     19  C   UNL     1      -4.632   3.469  27.385  0.00  0.00    +0.165 C 
BRANCH  19   3
ATOM      3  O   UNL     1      -5.788   2.669  27.277  0.00  0.00    -0.394 OA
ATOM     38  H   UNL     1      -6.268   2.940  26.477  0.00  0.00    +0.209 HD
ENDBRANCH  19   3
ENDBRANCH  11  19
BRANCH  12  22
ATOM     22  C   UNL     1      -3.197   0.374  22.429  0.00  0.00    +0.106 C 
BRANCH  22  23
ATOM      4  O   UNL     1      -4.746  -0.713  23.855  0.00  0.00    -0.276 OA
ATOM      7  N   UNL     1      -2.602  -1.605  23.782  0.00  0.00    -0.301 N 
ATOM     23  C   UNL     1      -3.592  -0.694  23.419  0.00  0.00    +0.216 C 
ATOM     25  C   UNL     1      -2.920  -2.694  24.709  0.00  0.00    +0.108 C 
ATOM     26  C   UNL     1      -1.223  -1.608  23.282  0.00  0.00    +0.108 C 
ATOM     27  C   UNL     1      -1.959  -2.697  25.895  0.00  0.00    +0.022 C 
ATOM     28  C   UNL     1      -0.226  -1.590  24.439  0.00  0.00    +0.022 C 
ATOM     29  C   UNL     1      -0.497  -2.735  25.427  0.00  0.00    -0.011 C 
ATOM     30  C   UNL     1       0.457  -2.663  26.617  0.00  0.00    +0.007 C 
ENDBRANCH  22  23
ENDBRANCH  12  22
BRANCH  31  32
ATOM     32  C   UNL     1       3.795  -0.102  22.028  0.00  0.00    +0.096 C 
BRANCH  32  33
ATOM     33  C   UNL     1       4.603   0.899  22.851  0.00  0.00    +0.009 C 
BRANCH  33  34
ATOM     34  C   UNL     1       5.837   0.242  23.470  0.00  0.00    +0.000 C 
BRANCH  34  35
ATOM     35  C   UNL     1       5.446  -0.773  24.543  0.00  0.00    -0.003 C 
ATOM     36  C   UNL     1       4.703  -1.958  23.944  0.00  0.00    +0.004 C 
ENDBRANCH  34  35
ENDBRANCH  33  34
ENDBRANCH  32  33
ENDBRANCH  31  32
TORSDOF 9
ENDMDL
MODEL 2
REMARK VINA RESULT:       8.7      2.047      3.070
REMARK  Name = 11885096
REMARK  13 active torsions:
REMARK  status: ('A' for Active; 'I' for Inactive)
REMARK    1  A    between atoms: O_2  and  C_14
REMARK    2  A    between atoms: O_3  and  C_19
REMARK    3  A    between atoms: C_9  and  C_17
REMARK    4  A    between atoms: C_11  and  C_19
REMARK    5  A    between atoms: C_11  and  C_20
REMARK    6  A    between atoms: C_12  and  C_22
REMARK    7  A    between atoms: C_22  and  C_23
REMARK    8  A    between atoms: C_29  and  C_30
REMARK    9  A    between atoms: C_31  and  C_32
REMARK   10  A    between atoms: C_32  and  C_33
REMARK   11  A    between atoms: C_33  and  C_34
REMARK   12  A    between atoms: C_34  and  C_35
REMARK   13  A    between atoms: C_35  and  C_36
REMARK                            x       y       z     vdW  Elec       q    Type
REMARK                         _______ _______ _______ _____ _____    ______ ____
ROOT
ATOM      1  S   UNL     1       1.343   3.211  23.127  0.00  0.00    -0.057 S 
ATOM      5  O   UNL     1       3.233  -1.013  23.676  0.00  0.00    -0.275 OA
ATOM      6  N   UNL     1       0.956   0.841  24.089  0.00  0.00    -0.229 NA
ATOM      8  N   UNL     1       3.070   1.242  23.003  0.00  0.00    -0.265 N 
ATOM      9  C   UNL     1      -2.343   2.137  25.608  0.00  0.00    -0.019 C 
ATOM     10  C   UNL     1      -2.562   3.189  24.432  0.00  0.00    +0.011 C 
ATOM     11  C   UNL     1      -3.788   4.171  24.571  0.00  0.00    +0.021 C 
ATOM     12  C   UNL     1      -1.363   0.996  25.071  0.00  0.00    +0.054 C 
ATOM     13  C   UNL     1      -3.700   1.483  25.975  0.00  0.00    +0.010 C 
ATOM     14  C   UNL     1      -5.050   3.362  24.986  0.00  0.00    +0.123 C 
ATOM     15  C   UNL     1      -1.232   3.897  24.046  0.00  0.00    +0.049 C 
ATOM     16  C   UNL     1      -4.823   2.484  26.211  0.00  0.00    +0.032 C 
ATOM     17  C   UNL     1      -1.738   2.778  26.881  0.00  0.00    +0.012 C 
ATOM     18  C   UNL     1      -0.173   1.590  24.362  0.00  0.00    +0.058 A 
ATOM     20  C   UNL     1      -4.085   4.810  23.184  0.00  0.00    +0.016 C 
ATOM     21  C   UNL     1      -0.143   2.889  23.895  0.00  0.00    +0.015 A 
ATOM     24  C   UNL     1       1.824   1.594  23.449  0.00  0.00    +0.165 A 
ATOM     31  C   UNL     1       3.694  -0.013  23.138  0.00  0.00    +0.219 C 
ATOM     39  H   UNL     1       3.580   1.982  22.527  0.00  0.00    +0.157 HD
ENDROOT
BRANCH  14   2
ATOM      2  O   UNL     1      -6.146   4.238  25.246  0.00  0.00    -0.391 OA
ATOM     37  H   UNL     1      -6.173   4.903  24.538  0.00  0.00    +0.210 HD
ENDBRANCH  14   2
BRANCH  11  19
ATOM     19  C   UNL     1      -3.553   5.357  25.531  0.00  0.00    +0.165 C 
BRANCH  19   3
ATOM      3  O   UNL     1      -2.207   5.755  25.407  0.00  0.00    -0.394 OA
ATOM     38  H   UNL     1      -2.181   6.727  25.375  0.00  0.00    +0.209 HD
ENDBRANCH  19   3
ENDBRANCH  11  19
BRANCH  12  22
ATOM     22  C   UNL     1      -0.931  -0.025  26.132  0.00  0.00    +0.106 C 
BRANCH  22  23
ATOM      4  O   UNL     1       0.249  -1.869  25.226  0.00  0.00    -0.276 OA
ATOM      7  N   UNL     1      -2.065  -2.064  25.318  0.00  0.00    -0.301 N 
ATOM     23  C   UNL     1      -0.855  -1.401  25.519  0.00  0.00    +0.216 C 
ATOM     25  C   UNL     1      -2.069  -3.420  24.764  0.00  0.00    +0.108 C 
ATOM     26  C   UNL     1      -3.391  -1.535  25.656  0.00  0.00    +0.108 C 
ATOM     27  C   UNL     1      -2.966  -3.500  23.531  0.00  0.00    +0.022 C 
ATOM     28  C   UNL     1      -4.316  -1.577  24.441  0.00  0.00    +0.022 C 
ATOM     29  C   UNL     1      -4.381  -2.989  23.838  0.00  0.00    -0.011 C 
ATOM     30  C   UNL     1      -5.250  -3.004  22.582  0.00  0.00    +0.007 C 
ENDBRANCH  22  23
ENDBRANCH  12  22
BRANCH  31  32
ATOM     32  C   UNL     1       5.081  -0.007  22.508  0.00  0.00    +0.096 C 
BRANCH  32  33
ATOM     33  C   UNL     1       6.194  -0.209  23.534  0.00  0.00    +0.009 C 
BRANCH  33  34
ATOM     34  C   UNL     1       7.516  -0.573  22.856  0.00  0.00    +0.000 C 
BRANCH  34  35
ATOM     35  C   UNL     1       8.677   0.238  23.431  0.00  0.00    -0.003 C 
ATOM     36  C   UNL     1       9.995  -0.127  22.766  0.00  0.00    +0.004 C 
ENDBRANCH  34  35
ENDBRANCH  33  34
ENDBRANCH  32  33
ENDBRANCH  31  32
TORSDOF 9
ENDMDL
MODEL 3
REMARK VINA RESULT:      10.2      2.276      5.270
REMARK  Name = 11885096
REMARK  13 active torsions:
REMARK  status: ('A' for Active; 'I' for Inactive)
REMARK    1  A    between atoms: O_2  and  C_14
REMARK    2  A    between atoms: O_3  and  C_19
REMARK    3  A    between atoms: C_9  and  C_17
REMARK    4  A    between atoms: C_11  and  C_19
REMARK    5  A    between atoms: C_11  and  C_20
REMARK    6  A    between atoms: C_12  and  C_22
REMARK    7  A    between atoms: C_22  and  C_23
REMARK    8  A    between atoms: C_29  and  C_30
REMARK    9  A    between atoms: C_31  and  C_32
REMARK   10  A    between atoms: C_32  and  C_33
REMARK   11  A    between atoms: C_33  and  C_34
REMARK   12  A    between atoms: C_34  and  C_35
REMARK   13  A    between atoms: C_35  and  C_36
REMARK                            x       y       z     vdW  Elec       q    Type
REMARK                         _______ _______ _______ _____ _____    ______ ____
ROOT
ATOM      1  S   UNL     1       1.505  -1.728  22.866  0.00  0.00    -0.057 S 
ATOM      5  O   UNL     1       4.626   1.709  23.264  0.00  0.00    -0.275 OA
ATOM      6  N   UNL     1       1.852   0.723  23.616  0.00  0.00    -0.229 NA
ATOM      8  N   UNL     1       3.780  -0.429  22.743  0.00  0.00    -0.265 N 
ATOM      9  C   UNL     1      -1.953   0.947  24.201  0.00  0.00    -0.019 C 
ATOM     10  C   UNL     1      -2.064  -0.597  24.579  0.00  0.00    +0.011 C 
ATOM     11  C   UNL     1      -3.512  -1.169  24.827  0.00  0.00    +0.021 C 
ATOM     12  C   UNL     1      -0.438   1.401  24.429  0.00  0.00    +0.054 C 
ATOM     13  C   UNL     1      -2.859   1.776  25.147  0.00  0.00    +0.010 C 
ATOM     14  C   UNL     1      -4.297  -0.197  25.754  0.00  0.00    +0.123 C 
ATOM     15  C   UNL     1      -1.194  -1.478  23.637  0.00  0.00    +0.049 C 
ATOM     16  C   UNL     1      -4.281   1.245  25.261  0.00  0.00    +0.032 C 
ATOM     17  C   UNL     1      -2.363   1.237  22.737  0.00  0.00    +0.012 C 
ATOM     18  C   UNL     1       0.523   0.408  23.827  0.00  0.00    +0.058 A 
ATOM     20  C   UNL     1      -3.399  -2.529  25.574  0.00  0.00    +0.016 C 
ATOM     21  C   UNL     1       0.167  -0.884  23.496  0.00  0.00    +0.015 A 
ATOM     24  C   UNL     1       2.464  -0.323  23.105  0.00  0.00    +0.165 A 
ATOM     31  C   UNL     1       4.768   0.569  22.839  0.00  0.00    +0.219 C 
ATOM     39  H   UNL     1       4.050  -1.336  22.366  0.00  0.00    +0.157 HD
ENDROOT
BRANCH  14   2
ATOM      2  O   UNL     1      -5.652  -0.620  25.893  0.00  0.00    -0.391 OA
ATOM     37  H   UNL     1      -6.220   0.044  25.467  0.00  0.00    +0.210 HD
ENDBRANCH  14   2
BRANCH  11  19
ATOM     19  C   UNL     1      -4.312  -1.469  23.540  0.00  0.00    +0.165 C 
BRANCH  19   3
ATOM      3  O   UNL     1      -4.747  -2.809  23.603  0.00  0.00    -0.394 OA
ATOM     38  H   UNL     1      -4.337  -3.223  24.381  0.00  0.00    +0.209 HD
ENDBRANCH  19   3
ENDBRANCH  11  19
BRANCH  12  22
ATOM     22  C   UNL     1      -0.126   2.832  23.971  0.00  0.00    +0.106 C 
BRANCH  22  23
ATOM      4  O   UNL     1       0.144   3.986  26.023  0.00  0.00    -0.276 OA
ATOM      7  N   UNL     1      -1.771   4.477  24.802  0.00  0.00    -0.301 N 
ATOM     23  C   UNL     1      -0.565   3.815  25.027  0.00  0.00    +0.216 C 
ATOM     25  C   UNL     1      -2.245   5.476  25.763  0.00  0.00    +0.108 C 
ATOM     26  C   UNL     1      -2.635   4.295  23.630  0.00  0.00    +0.108 C 
ATOM     27  C   UNL     1      -3.661   5.149  26.234  0.00  0.00    +0.022 C 
ATOM     28  C   UNL     1      -4.060   3.946  24.057  0.00  0.00    +0.022 C 
ATOM     29  C   UNL     1      -4.617   4.983  25.044  0.00  0.00    -0.011 C 
ATOM     30  C   UNL     1      -6.012   4.585  25.520  0.00  0.00    +0.007 C 
ENDBRANCH  22  23
ENDBRANCH  12  22
BRANCH  31  32
ATOM     32  C   UNL     1       6.113   0.061  22.333  0.00  0.00    +0.096 C 
BRANCH  32  33
ATOM     33  C   UNL     1       7.091  -0.244  23.466  0.00  0.00    +0.009 C 
BRANCH  33  34
ATOM     34  C   UNL     1       8.432  -0.741  22.924  0.00  0.00    +0.000 C 
BRANCH  34  35
ATOM     35  C   UNL     1       9.505   0.343  23.019  0.00  0.00    -0.003 C 
ATOM     36  C   UNL     1       9.963   0.549  24.454  0.00  0.00    +0.004 C 
ENDBRANCH  34  35
ENDBRANCH  33  34
ENDBRANCH  32  33
ENDBRANCH  31  32
TORSDOF 9
ENDMDL
MODEL 4
REMARK VINA RESULT:      10.4      1.249      1.858
REMARK  Name = 11885096
REMARK  13 active torsions:
REMARK  status: ('A' for Active; 'I' for Inactive)
REMARK    1  A    between atoms: O_2  and  C_14
REMARK    2  A    between atoms: O_3  and  C_19
REMARK    3  A    between atoms: C_9  and  C_17
REMARK    4  A    between atoms: C_11  and  C_19
REMARK    5  A    between atoms: C_11  and  C_20
REMARK    6  A    between atoms: C_12  and  C_22
REMARK    7  A    between atoms: C_22  and  C_23
REMARK    8  A    between atoms: C_29  and  C_30
REMARK    9  A    between atoms: C_31  and  C_32
REMARK   10  A    between atoms: C_32  and  C_33
REMARK   11  A    between atoms: C_33  and  C_34
REMARK   12  A    between atoms: C_34  and  C_35
REMARK   13  A    between atoms: C_35  and  C_36
REMARK                            x       y       z     vdW  Elec       q    Type
REMARK                         _______ _______ _______ _____ _____    ______ ____
ROOT
ATOM      1  S   UNL     1       1.121   2.603  25.471  0.00  0.00    -0.057 S 
ATOM      5  O   UNL     1       2.535   0.468  21.577  0.00  0.00    -0.275 OA
ATOM      6  N   UNL     1       0.344   1.632  23.202  0.00  0.00    -0.229 NA
ATOM      8  N   UNL     1       2.696   1.473  23.705  0.00  0.00    -0.265 N 
ATOM      9  C   UNL     1      -3.288   2.331  24.293  0.00  0.00    -0.019 C 
ATOM     10  C   UNL     1      -2.864   3.593  25.167  0.00  0.00    +0.011 C 
ATOM     11  C   UNL     1      -3.997   4.286  26.017  0.00  0.00    +0.021 C 
ATOM     12  C   UNL     1      -2.139   2.074  23.212  0.00  0.00    +0.054 C 
ATOM     13  C   UNL     1      -4.606   2.644  23.539  0.00  0.00    +0.010 C 
ATOM     14  C   UNL     1      -5.258   4.484  25.127  0.00  0.00    +0.123 C 
ATOM     15  C   UNL     1      -1.559   3.319  25.969  0.00  0.00    +0.049 C 
ATOM     16  C   UNL     1      -5.706   3.205  24.429  0.00  0.00    +0.032 C 
ATOM     17  C   UNL     1      -3.490   1.053  25.142  0.00  0.00    +0.012 C 
ATOM     18  C   UNL     1      -0.773   2.125  23.848  0.00  0.00    +0.058 A 
ATOM     20  C   UNL     1      -3.513   5.699  26.451  0.00  0.00    +0.016 C 
ATOM     21  C   UNL     1      -0.533   2.704  25.077  0.00  0.00    +0.015 A 
ATOM     24  C   UNL     1       1.398   1.822  23.966  0.00  0.00    +0.165 A 
ATOM     31  C   UNL     1       3.185   0.829  22.552  0.00  0.00    +0.219 C 
ATOM     39  H   UNL     1       3.361   1.715  24.436  0.00  0.00    +0.157 HD
ENDROOT
BRANCH  14   2
ATOM      2  O   UNL     1      -6.345   4.991  25.900  0.00  0.00    -0.391 OA
ATOM     37  H   UNL     1      -6.975   4.266  26.043  0.00  0.00    +0.210 HD
ENDBRANCH  14   2
BRANCH  11  19
ATOM     19  C   UNL     1      -4.358   3.551  27.326  0.00  0.00    +0.165 C 
BRANCH  19   3
ATOM      3  O   UNL     1      -5.496   2.757  27.078  0.00  0.00    -0.394 OA
ATOM     38  H   UNL     1      -5.644   2.734  26.117  0.00  0.00    +0.209 HD
ENDBRANCH  19   3
ENDBRANCH  11  19
BRANCH  12  22
ATOM     22  C   UNL     1      -2.322   0.800  22.377  0.00  0.00    +0.106 C 
BRANCH  22  23
ATOM      4  O   UNL     1      -0.363  -0.481  22.744  0.00  0.00    -0.276 OA
ATOM      7  N   UNL     1      -2.280  -1.176  23.860  0.00  0.00    -0.301 N 
ATOM     23  C   UNL     1      -1.561  -0.340  23.007  0.00  0.00    +0.216 C 
ATOM     25  C   UNL     1      -1.600  -2.280  24.540  0.00  0.00    +0.108 C 
ATOM     26  C   UNL     1      -3.702  -1.033  24.192  0.00  0.00    +0.108 C 
ATOM     27  C   UNL     1      -2.310  -3.605  24.269  0.00  0.00    +0.022 C 
ATOM     28  C   UNL     1      -4.455  -2.333  23.914  0.00  0.00    +0.022 C 
ATOM     29  C   UNL     1      -3.799  -3.522  24.633  0.00  0.00    -0.011 C 
ATOM     30  C   UNL     1      -4.516  -4.826  24.290  0.00  0.00    +0.007 C 
ENDBRANCH  22  23
ENDBRANCH  12  22
BRANCH  31  32
ATOM     32  C   UNL     1       4.691   0.616  22.638  0.00  0.00    +0.096 C 
BRANCH  32  33
ATOM     33  C   UNL     1       5.232   0.801  24.054  0.00  0.00    +0.009 C 
BRANCH  33  34
ATOM     34  C   UNL     1       5.753  -0.518  24.627  0.00  0.00    +0.000 C 
BRANCH  34  35
ATOM     35  C   UNL     1       5.303  -1.708  23.779  0.00  0.00    -0.003 C 
ATOM     36  C   UNL     1       3.843  -2.050  24.031  0.00  0.00    +0.004 C 
ENDBRANCH  34  35
ENDBRANCH  33  34
ENDBRANCH  32  33
ENDBRANCH  31  32
TORSDOF 9
ENDMDL
