MODEL 1
REMARK VINA RESULT:      -4.8      0.000      0.000
REMARK  Name = 26743732
REMARK  7 active torsions:
REMARK  status: ('A' for Active; 'I' for Inactive)
REMARK    1  A    between atoms: O_4  and  C_13
REMARK    2  A    between atoms: O_6  and  C_28
REMARK    3  A    between atoms: O_6  and  C_29
REMARK    4  A    between atoms: N_7  and  C_15
REMARK    5  A    between atoms: C_11  and  C_16
REMARK    6  A    between atoms: C_15  and  C_17
REMARK    7  A    between atoms: C_18  and  C_21
REMARK                            x       y       z     vdW  Elec       q    Type
REMARK                         _______ _______ _______ _____ _____    ______ ____
ROOT
ATOM      5  O   UNL     1      -2.063   2.645  25.667  0.00  0.00    -0.336 OA
ATOM      8  N   UNL     1      -1.747   1.821  23.609  0.00  0.00    -0.190 NA
ATOM      9  N   UNL     1      -0.711   2.290  25.594  0.00  0.00    -0.056 NA
ATOM     16  C   UNL     1      -2.599   2.335  24.458  0.00  0.00    +0.245 A 
ATOM     18  C   UNL     1      -0.602   1.813  24.351  0.00  0.00    +0.202 A 
ENDROOT
BRANCH  18  21
ATOM     21  C   UNL     1       0.636   1.318  23.820  0.00  0.00    +0.023 A 
ATOM     24  C   UNL     1       0.750  -0.019  23.442  0.00  0.00    +0.015 A 
ATOM     25  C   UNL     1       1.728   2.176  23.684  0.00  0.00    +0.015 A 
ATOM     26  C   UNL     1       1.953  -0.500  22.928  0.00  0.00    +0.046 A 
ATOM     27  C   UNL     1       2.932   1.696  23.170  0.00  0.00    +0.046 A 
ATOM     28  C   UNL     1       3.045   0.358  22.792  0.00  0.00    +0.130 A 
BRANCH  28   6
ATOM      6  O   UNL     1       4.220  -0.110  22.289  0.00  0.00    -0.406 OA
BRANCH   6  29
ATOM      1  F   UNL     1       5.151  -1.299  23.967  0.00  0.00    -0.133 F 
ATOM      2  F   UNL     1       6.480  -0.407  22.479  0.00  0.00    -0.133 F 
ATOM      3  F   UNL     1       5.443   0.867  23.957  0.00  0.00    -0.133 F 
ATOM     29  C   UNL     1       5.333  -0.222  23.169  0.00  0.00    +0.575 C 
ENDBRANCH   6  29
ENDBRANCH  28   6
ENDBRANCH  18  21
BRANCH  16  11
ATOM      7  N   UNL     1      -4.937   1.665  24.989  0.00  0.00    -0.285 NA
ATOM     11  C   UNL     1      -4.074   2.629  24.278  0.00  0.00    +0.149 C 
ATOM     12  C   UNL     1      -4.479   4.006  24.836  0.00  0.00    +0.061 C 
ATOM     13  C   UNL     1      -5.607   3.717  25.819  0.00  0.00    +0.130 C 
ATOM     14  C   UNL     1      -6.158   2.386  25.346  0.00  0.00    +0.116 C 
BRANCH  13   4
ATOM      4  O   UNL     1      -6.586   4.737  25.774  0.00  0.00    -0.390 OA
ATOM     30  H   UNL     1      -6.615   5.074  24.862  0.00  0.00    +0.210 HD
ENDBRANCH  13   4
BRANCH   7  15
ATOM     15  C   UNL     1      -5.218   0.463  24.215  0.00  0.00    +0.122 C 
BRANCH  15  17
ATOM     10  N   UNL     1      -2.592  -1.552  26.052  0.00  0.00    -0.263 NA
ATOM     17  C   UNL     1      -4.287  -0.665  24.574  0.00  0.00    -0.015 A 
ATOM     19  C   UNL     1      -4.239  -1.825  23.810  0.00  0.00    +0.008 A 
ATOM     20  C   UNL     1      -3.450  -0.579  25.675  0.00  0.00    +0.115 A 
ATOM     22  C   UNL     1      -3.369  -2.850  24.166  0.00  0.00    +0.020 A 
ATOM     23  C   UNL     1      -2.573  -2.665  25.285  0.00  0.00    +0.111 A 
ENDBRANCH  15  17
ENDBRANCH   7  15
ENDBRANCH  16  11
TORSDOF 7
ENDMDL
MODEL 2
REMARK VINA RESULT:      -2.5     14.842     16.577
REMARK  Name = 26743732
REMARK  7 active torsions:
REMARK  status: ('A' for Active; 'I' for Inactive)
REMARK    1  A    between atoms: O_4  and  C_13
REMARK    2  A    between atoms: O_6  and  C_28
REMARK    3  A    between atoms: O_6  and  C_29
REMARK    4  A    between atoms: N_7  and  C_15
REMARK    5  A    between atoms: C_11  and  C_16
REMARK    6  A    between atoms: C_15  and  C_17
REMARK    7  A    between atoms: C_18  and  C_21
REMARK                            x       y       z     vdW  Elec       q    Type
REMARK                         _______ _______ _______ _____ _____    ______ ____
ROOT
ATOM      5  O   UNL     1      -7.168 -10.771  13.852  0.00  0.00    -0.336 OA
ATOM      8  N   UNL     1      -6.224 -10.394  11.856  0.00  0.00    -0.190 NA
ATOM      9  N   UNL     1      -5.793 -10.649  14.089  0.00  0.00    -0.056 NA
ATOM     16  C   UNL     1      -7.335 -10.609  12.513  0.00  0.00    +0.245 A 
ATOM     18  C   UNL     1      -5.305 -10.428  12.865  0.00  0.00    +0.202 A 
ENDROOT
BRANCH  18  21
ATOM     21  C   UNL     1      -3.905 -10.238  12.615  0.00  0.00    +0.023 A 
ATOM     24  C   UNL     1      -3.471  -9.816  11.359  0.00  0.00    +0.015 A 
ATOM     25  C   UNL     1      -2.978 -10.478  13.629  0.00  0.00    +0.015 A 
ATOM     26  C   UNL     1      -2.110  -9.633  11.116  0.00  0.00    +0.046 A 
ATOM     27  C   UNL     1      -1.616 -10.295  13.386  0.00  0.00    +0.046 A 
ATOM     28  C   UNL     1      -1.182  -9.874  12.129  0.00  0.00    +0.130 A 
BRANCH  28   6
ATOM      6  O   UNL     1       0.146  -9.695  11.893  0.00  0.00    -0.406 OA
BRANCH   6  29
ATOM      1  F   UNL     1       0.146  -8.470   9.997  0.00  0.00    -0.133 F 
ATOM      2  F   UNL     1       0.021  -7.411  11.905  0.00  0.00    -0.133 F 
ATOM      3  F   UNL     1       1.911  -8.373  11.283  0.00  0.00    -0.133 F 
ATOM     29  C   UNL     1       0.565  -8.479  11.283  0.00  0.00    +0.575 C 
ENDBRANCH   6  29
ENDBRANCH  28   6
ENDBRANCH  18  21
BRANCH  16  11
ATOM      7  N   UNL     1      -9.675  -9.782  12.701  0.00  0.00    -0.285 NA
ATOM     11  C   UNL     1      -8.755 -10.696  11.995  0.00  0.00    +0.149 C 
ATOM     12  C   UNL     1      -8.872 -10.305  10.511  0.00  0.00    +0.061 C 
ATOM     13  C   UNL     1      -9.915  -9.194  10.477  0.00  0.00    +0.130 C 
ATOM     14  C   UNL     1     -10.720  -9.424  11.742  0.00  0.00    +0.116 C 
BRANCH  13   4
ATOM      4  O   UNL     1     -10.720  -9.296   9.318  0.00  0.00    -0.390 OA
ATOM     30  H   UNL     1     -10.179  -9.010   8.561  0.00  0.00    +0.210 HD
ENDBRANCH  13   4
BRANCH   7  15
ATOM     15  C   UNL     1     -10.227 -10.351  13.923  0.00  0.00    +0.122 C 
BRANCH  15  17
ATOM     10  N   UNL     1      -9.748  -8.994  17.425  0.00  0.00    -0.263 NA
ATOM     17  C   UNL     1     -10.156  -9.381  15.074  0.00  0.00    -0.015 A 
ATOM     19  C   UNL     1     -10.420  -8.029  14.888  0.00  0.00    +0.008 A 
ATOM     20  C   UNL     1      -9.828  -9.809  16.350  0.00  0.00    +0.115 A 
ATOM     22  C   UNL     1     -10.349  -7.158  15.970  0.00  0.00    +0.020 A 
ATOM     23  C   UNL     1     -10.012  -7.686  17.206  0.00  0.00    +0.111 A 
ENDBRANCH  15  17
ENDBRANCH   7  15
ENDBRANCH  16  11
TORSDOF 7
ENDMDL
MODEL 3
REMARK VINA RESULT:      -2.2      1.299      1.646
REMARK  Name = 26743732
REMARK  7 active torsions:
REMARK  status: ('A' for Active; 'I' for Inactive)
REMARK    1  A    between atoms: O_4  and  C_13
REMARK    2  A    between atoms: O_6  and  C_28
REMARK    3  A    between atoms: O_6  and  C_29
REMARK    4  A    between atoms: N_7  and  C_15
REMARK    5  A    between atoms: C_11  and  C_16
REMARK    6  A    between atoms: C_15  and  C_17
REMARK    7  A    between atoms: C_18  and  C_21
REMARK                            x       y       z     vdW  Elec       q    Type
REMARK                         _______ _______ _______ _____ _____    ______ ____
ROOT
ATOM      5  O   UNL     1      -3.153   2.421  22.141  0.00  0.00    -0.336 OA
ATOM      8  N   UNL     1      -2.243   1.440  23.938  0.00  0.00    -0.190 NA
ATOM      9  N   UNL     1      -1.846   2.077  21.776  0.00  0.00    -0.056 NA
ATOM     16  C   UNL     1      -3.305   2.011  23.428  0.00  0.00    +0.245 A 
ATOM     18  C   UNL     1      -1.374   1.504  22.887  0.00  0.00    +0.202 A 
ENDROOT
BRANCH  18  21
ATOM     21  C   UNL     1      -0.040   0.985  22.981  0.00  0.00    +0.023 A 
ATOM     24  C   UNL     1       0.310  -0.173  22.288  0.00  0.00    +0.015 A 
ATOM     25  C   UNL     1       0.907   1.639  23.769  0.00  0.00    +0.015 A 
ATOM     26  C   UNL     1       1.607  -0.678  22.381  0.00  0.00    +0.046 A 
ATOM     27  C   UNL     1       2.204   1.135  23.863  0.00  0.00    +0.046 A 
ATOM     28  C   UNL     1       2.554  -0.024  23.170  0.00  0.00    +0.130 A 
BRANCH  28   6
ATOM      6  O   UNL     1       3.820  -0.515  23.261  0.00  0.00    -0.406 OA
BRANCH   6  29
ATOM      1  F   UNL     1       5.237   0.698  24.531  0.00  0.00    -0.133 F 
ATOM      2  F   UNL     1       5.990  -0.125  22.652  0.00  0.00    -0.133 F 
ATOM      3  F   UNL     1       4.559   1.559  22.640  0.00  0.00    -0.133 F 
ATOM     29  C   UNL     1       4.904   0.407  23.253  0.00  0.00    +0.575 C 
ENDBRANCH   6  29
ENDBRANCH  28   6
ENDBRANCH  18  21
BRANCH  16  11
ATOM      7  N   UNL     1      -4.794   1.623  25.385  0.00  0.00    -0.285 NA
ATOM     11  C   UNL     1      -4.654   2.271  24.065  0.00  0.00    +0.149 C 
ATOM     12  C   UNL     1      -4.909   3.766  24.330  0.00  0.00    +0.061 C 
ATOM     13  C   UNL     1      -5.229   3.853  25.818  0.00  0.00    +0.130 C 
ATOM     14  C   UNL     1      -5.712   2.457  26.160  0.00  0.00    +0.116 C 
BRANCH  13   4
ATOM      4  O   UNL     1      -6.225   4.827  26.061  0.00  0.00    -0.390 OA
ATOM     30  H   UNL     1      -6.394   4.841  27.019  0.00  0.00    +0.210 HD
ENDBRANCH  13   4
BRANCH   7  15
ATOM     15  C   UNL     1      -5.247   0.241  25.302  0.00  0.00    +0.122 C 
BRANCH  15  17
ATOM     10  N   UNL     1      -3.162  -2.569  23.857  0.00  0.00    -0.263 NA
ATOM     17  C   UNL     1      -4.101  -0.712  25.088  0.00  0.00    -0.015 A 
ATOM     19  C   UNL     1      -2.958  -0.647  25.877  0.00  0.00    +0.008 A 
ATOM     20  C   UNL     1      -4.153  -1.683  24.101  0.00  0.00    +0.115 A 
ATOM     22  C   UNL     1      -1.916  -1.542  25.656  0.00  0.00    +0.020 A 
ATOM     23  C   UNL     1      -2.067  -2.475  24.644  0.00  0.00    +0.111 A 
ENDBRANCH  15  17
ENDBRANCH   7  15
ENDBRANCH  16  11
TORSDOF 7
ENDMDL
MODEL 4
REMARK VINA RESULT:      -1.8      1.815      3.717
REMARK  Name = 26743732
REMARK  7 active torsions:
REMARK  status: ('A' for Active; 'I' for Inactive)
REMARK    1  A    between atoms: O_4  and  C_13
REMARK    2  A    between atoms: O_6  and  C_28
REMARK    3  A    between atoms: O_6  and  C_29
REMARK    4  A    between atoms: N_7  and  C_15
REMARK    5  A    between atoms: C_11  and  C_16
REMARK    6  A    between atoms: C_15  and  C_17
REMARK    7  A    between atoms: C_18  and  C_21
REMARK                            x       y       z     vdW  Elec       q    Type
REMARK                         _______ _______ _______ _____ _____    ______ ____
ROOT
ATOM      5  O   UNL     1      -3.027  -0.823  24.812  0.00  0.00    -0.336 OA
ATOM      8  N   UNL     1      -1.883   1.094  24.621  0.00  0.00    -0.190 NA
ATOM      9  N   UNL     1      -1.772  -1.169  24.295  0.00  0.00    -0.056 NA
ATOM     16  C   UNL     1      -3.008   0.526  24.974  0.00  0.00    +0.245 A 
ATOM     18  C   UNL     1      -1.156   0.014  24.211  0.00  0.00    +0.202 A 
ENDROOT
BRANCH  18  21
ATOM     21  C   UNL     1       0.186   0.152  23.721  0.00  0.00    +0.023 A 
ATOM     24  C   UNL     1       0.735  -0.834  22.901  0.00  0.00    +0.015 A 
ATOM     25  C   UNL     1       0.941   1.272  24.066  0.00  0.00    +0.015 A 
ATOM     26  C   UNL     1       2.039  -0.700  22.427  0.00  0.00    +0.046 A 
ATOM     27  C   UNL     1       2.246   1.407  23.591  0.00  0.00    +0.046 A 
ATOM     28  C   UNL     1       2.796   0.420  22.772  0.00  0.00    +0.130 A 
BRANCH  28   6
ATOM      6  O   UNL     1       4.068   0.552  22.309  0.00  0.00    -0.406 OA
BRANCH   6  29
ATOM      1  F   UNL     1       6.204  -0.175  22.383  0.00  0.00    -0.133 F 
ATOM      2  F   UNL     1       5.513   1.149  23.979  0.00  0.00    -0.133 F 
ATOM      3  F   UNL     1       4.804  -0.942  23.876  0.00  0.00    -0.133 F 
ATOM     29  C   UNL     1       5.140   0.147  23.153  0.00  0.00    +0.575 C 
ENDBRANCH   6  29
ENDBRANCH  28   6
ENDBRANCH  18  21
BRANCH  16  11
ATOM      7  N   UNL     1      -4.328   2.613  25.289  0.00  0.00    -0.285 NA
ATOM     11  C   UNL     1      -4.268   1.157  25.529  0.00  0.00    +0.149 C 
ATOM     12  C   UNL     1      -5.548   0.597  24.883  0.00  0.00    +0.061 C 
ATOM     13  C   UNL     1      -6.286   1.818  24.347  0.00  0.00    +0.130 C 
ATOM     14  C   UNL     1      -5.746   2.958  25.191  0.00  0.00    +0.116 C 
BRANCH  13   4
ATOM      4  O   UNL     1      -7.684   1.668  24.501  0.00  0.00    -0.390 OA
ATOM     30  H   UNL     1      -8.099   2.509  24.240  0.00  0.00    +0.210 HD
ENDBRANCH  13   4
BRANCH   7  15
ATOM     15  C   UNL     1      -3.645   3.394  26.312  0.00  0.00    +0.122 C 
BRANCH  15  17
ATOM     10  N   UNL     1      -0.015   3.963  25.402  0.00  0.00    -0.263 NA
ATOM     17  C   UNL     1      -2.401   4.053  25.776  0.00  0.00    -0.015 A 
ATOM     19  C   UNL     1      -2.456   5.309  25.183  0.00  0.00    +0.008 A 
ATOM     20  C   UNL     1      -1.168   3.428  25.860  0.00  0.00    +0.115 A 
ATOM     22  C   UNL     1      -1.290   5.893  24.698  0.00  0.00    +0.020 A 
ATOM     23  C   UNL     1      -0.107   5.185  24.831  0.00  0.00    +0.111 A 
ENDBRANCH  15  17
ENDBRANCH   7  15
ENDBRANCH  16  11
TORSDOF 7
ENDMDL
