MODEL 1
REMARK VINA RESULT:      -0.1      0.000      0.000
REMARK  Name = 71693898
REMARK  8 active torsions:
REMARK  status: ('A' for Active; 'I' for Inactive)
REMARK    1  A    between atoms: O_1  and  C_9
REMARK    2  A    between atoms: O_2  and  C_11
REMARK    3  A    between atoms: O_4  and  C_18
REMARK    4  A    between atoms: O_4  and  C_25
REMARK    5  A    between atoms: N_5  and  C_8
REMARK    6  A    between atoms: C_7  and  C_12
REMARK    7  A    between atoms: C_15  and  C_19
REMARK    8  A    between atoms: C_22  and  C_26
REMARK                            x       y       z     vdW  Elec       q    Type
REMARK                         _______ _______ _______ _____ _____    ______ ____
ROOT
ATOM      7  C   UNL     1      -2.205  -0.643  25.575  0.00  0.00    +0.044 C 
ATOM      8  C   UNL     1      -1.592  -1.258  24.296  0.00  0.00    +0.112 C 
ATOM      9  C   UNL     1      -1.800  -2.759  24.488  0.00  0.00    +0.164 C 
ATOM     10  C   UNL     1      -3.214  -1.693  26.107  0.00  0.00    +0.044 C 
ATOM     11  C   UNL     1      -3.195  -2.839  25.098  0.00  0.00    +0.145 C 
ENDROOT
BRANCH   7  12
ATOM     12  C   UNL     1      -2.797   0.732  25.346  0.00  0.00    -0.042 A 
ATOM     13  C   UNL     1      -1.994   1.867  25.469  0.00  0.00    +0.007 A 
ATOM     14  C   UNL     1      -4.145   0.863  25.013  0.00  0.00    +0.007 A 
ATOM     16  C   UNL     1      -2.540   3.133  25.258  0.00  0.00    +0.046 A 
ATOM     17  C   UNL     1      -4.691   2.129  24.801  0.00  0.00    +0.046 A 
ATOM     18  C   UNL     1      -3.889   3.264  24.924  0.00  0.00    +0.120 A 
BRANCH  18   4
ATOM      4  O   UNL     1      -4.421   4.500  24.718  0.00  0.00    -0.495 OA
ATOM     25  C   UNL     1      -5.650   4.796  25.380  0.00  0.00    +0.277 C 
ENDBRANCH  18   4
ENDBRANCH   7  12
BRANCH   8   5
ATOM      3  O   UNL     1      -0.483   0.747  22.565  0.00  0.00    -0.270 OA
ATOM      5  N   UNL     1      -0.199  -0.923  24.149  0.00  0.00    -0.305 N 
ATOM     15  C   UNL     1       0.246   0.067  23.282  0.00  0.00    +0.244 C 
ATOM     27  H   UNL     1       0.454  -1.376  24.781  0.00  0.00    +0.149 HD
BRANCH  15  19
ATOM     19  C   UNL     1       1.716   0.273  23.228  0.00  0.00    +0.038 A 
ATOM     20  C   UNL     1       2.580  -0.785  23.517  0.00  0.00    +0.032 A 
ATOM     21  C   UNL     1       2.233   1.523  22.890  0.00  0.00    +0.013 A 
ATOM     22  C   UNL     1       3.959  -0.591  23.467  0.00  0.00    +0.052 A 
ATOM     23  C   UNL     1       3.614   1.716  22.840  0.00  0.00    +0.002 A 
ATOM     24  C   UNL     1       4.477   0.658  23.128  0.00  0.00    +0.019 A 
BRANCH  22  26
ATOM      6  N   UNL     1       5.563  -2.554  23.998  0.00  0.00    -0.191 NA
ATOM     26  C   UNL     1       4.844  -1.675  23.760  0.00  0.00    +0.099 C 
ENDBRANCH  22  26
ENDBRANCH  15  19
ENDBRANCH   8   5
BRANCH   9   1
ATOM      1  O   UNL     1      -1.736  -3.471  23.266  0.00  0.00    -0.387 OA
ATOM     28  H   UNL     1      -0.867  -3.290  22.869  0.00  0.00    +0.210 HD
ENDBRANCH   9   1
BRANCH  11   2
ATOM      2  O   UNL     1      -4.197  -2.597  24.114  0.00  0.00    -0.389 OA
ATOM     29  H   UNL     1      -4.819  -3.344  24.142  0.00  0.00    +0.210 HD
ENDBRANCH  11   2
TORSDOF 7
ENDMDL
MODEL 2
REMARK VINA RESULT:       2.1      2.624      7.057
REMARK  Name = 71693898
REMARK  8 active torsions:
REMARK  status: ('A' for Active; 'I' for Inactive)
REMARK    1  A    between atoms: O_1  and  C_9
REMARK    2  A    between atoms: O_2  and  C_11
REMARK    3  A    between atoms: O_4  and  C_18
REMARK    4  A    between atoms: O_4  and  C_25
REMARK    5  A    between atoms: N_5  and  C_8
REMARK    6  A    between atoms: C_7  and  C_12
REMARK    7  A    between atoms: C_15  and  C_19
REMARK    8  A    between atoms: C_22  and  C_26
REMARK                            x       y       z     vdW  Elec       q    Type
REMARK                         _______ _______ _______ _____ _____    ______ ____
ROOT
ATOM      7  C   UNL     1      -0.291  -0.740  23.529  0.00  0.00    +0.044 C 
ATOM      8  C   UNL     1      -0.874  -0.335  24.901  0.00  0.00    +0.112 C 
ATOM      9  C   UNL     1      -1.941  -1.397  25.162  0.00  0.00    +0.164 C 
ATOM     10  C   UNL     1      -0.594  -2.252  23.370  0.00  0.00    +0.044 C 
ATOM     11  C   UNL     1      -1.280  -2.678  24.666  0.00  0.00    +0.145 C 
ENDROOT
BRANCH   7  12
ATOM     12  C   UNL     1       1.172  -0.376  23.376  0.00  0.00    -0.042 A 
ATOM     13  C   UNL     1       1.532   0.903  22.952  0.00  0.00    +0.007 A 
ATOM     14  C   UNL     1       2.157  -1.322  23.659  0.00  0.00    +0.007 A 
ATOM     16  C   UNL     1       2.880   1.237  22.812  0.00  0.00    +0.046 A 
ATOM     17  C   UNL     1       3.505  -0.988  23.519  0.00  0.00    +0.046 A 
ATOM     18  C   UNL     1       3.865   0.291  23.096  0.00  0.00    +0.120 A 
BRANCH  18   4
ATOM      4  O   UNL     1       5.180   0.618  22.959  0.00  0.00    -0.495 OA
ATOM     25  C   UNL     1       6.131  -0.241  23.587  0.00  0.00    +0.277 C 
ENDBRANCH  18   4
ENDBRANCH   7  12
BRANCH   8   5
ATOM      3  O   UNL     1       0.376   2.067  25.858  0.00  0.00    -0.270 OA
ATOM      5  N   UNL     1      -1.432   0.994  24.880  0.00  0.00    -0.305 N 
ATOM     15  C   UNL     1      -0.750   2.100  25.368  0.00  0.00    +0.244 C 
ATOM     27  H   UNL     1      -2.320   1.114  24.402  0.00  0.00    +0.149 HD
BRANCH  15  19
ATOM     19  C   UNL     1      -1.474   3.395  25.298  0.00  0.00    +0.038 A 
ATOM     20  C   UNL     1      -2.860   3.429  25.460  0.00  0.00    +0.032 A 
ATOM     21  C   UNL     1      -0.770   4.577  25.070  0.00  0.00    +0.013 A 
ATOM     22  C   UNL     1      -3.540   4.644  25.393  0.00  0.00    +0.052 A 
ATOM     23  C   UNL     1      -1.451   5.793  25.003  0.00  0.00    +0.002 A 
ATOM     24  C   UNL     1      -2.837   5.826  25.165  0.00  0.00    +0.019 A 
BRANCH  22  26
ATOM      6  N   UNL     1      -6.111   4.708  25.696  0.00  0.00    -0.191 NA
ATOM     26  C   UNL     1      -4.959   4.679  25.560  0.00  0.00    +0.099 C 
ENDBRANCH  22  26
ENDBRANCH  15  19
ENDBRANCH   8   5
BRANCH   9   1
ATOM      1  O   UNL     1      -2.277  -1.494  26.533  0.00  0.00    -0.387 OA
ATOM     28  H   UNL     1      -2.482  -0.596  26.847  0.00  0.00    +0.210 HD
ENDBRANCH   9   1
BRANCH  11   2
ATOM      2  O   UNL     1      -0.286  -3.127  25.583  0.00  0.00    -0.389 OA
ATOM     29  H   UNL     1      -0.078  -2.384  26.174  0.00  0.00    +0.210 HD
ENDBRANCH  11   2
TORSDOF 7
ENDMDL
MODEL 3
REMARK VINA RESULT:       2.7      1.845      4.547
REMARK  Name = 71693898
REMARK  8 active torsions:
REMARK  status: ('A' for Active; 'I' for Inactive)
REMARK    1  A    between atoms: O_1  and  C_9
REMARK    2  A    between atoms: O_2  and  C_11
REMARK    3  A    between atoms: O_4  and  C_18
REMARK    4  A    between atoms: O_4  and  C_25
REMARK    5  A    between atoms: N_5  and  C_8
REMARK    6  A    between atoms: C_7  and  C_12
REMARK    7  A    between atoms: C_15  and  C_19
REMARK    8  A    between atoms: C_22  and  C_26
REMARK                            x       y       z     vdW  Elec       q    Type
REMARK                         _______ _______ _______ _____ _____    ______ ____
ROOT
ATOM      7  C   UNL     1      -2.535   1.975  23.746  0.00  0.00    +0.044 C 
ATOM      8  C   UNL     1      -1.266   2.387  24.526  0.00  0.00    +0.112 C 
ATOM      9  C   UNL     1      -1.402   3.904  24.651  0.00  0.00    +0.164 C 
ATOM     10  C   UNL     1      -3.566   3.108  23.987  0.00  0.00    +0.044 C 
ATOM     11  C   UNL     1      -2.888   4.094  24.935  0.00  0.00    +0.145 C 
ENDROOT
BRANCH   7  12
ATOM     12  C   UNL     1      -3.031   0.591  24.111  0.00  0.00    -0.042 A 
ATOM     13  C   UNL     1      -3.567  -0.240  23.127  0.00  0.00    +0.007 A 
ATOM     14  C   UNL     1      -2.952   0.149  25.432  0.00  0.00    +0.007 A 
ATOM     16  C   UNL     1      -4.023  -1.514  23.464  0.00  0.00    +0.046 A 
ATOM     17  C   UNL     1      -3.409  -1.125  25.769  0.00  0.00    +0.046 A 
ATOM     18  C   UNL     1      -3.944  -1.957  24.784  0.00  0.00    +0.120 A 
BRANCH  18   4
ATOM      4  O   UNL     1      -4.390  -3.201  25.113  0.00  0.00    -0.495 OA
ATOM     25  C   UNL     1      -3.993  -4.277  24.265  0.00  0.00    +0.277 C 
ENDBRANCH  18   4
ENDBRANCH   7  12
BRANCH   8   5
ATOM      3  O   UNL     1      -0.100  -0.234  24.411  0.00  0.00    -0.270 OA
ATOM      5  N   UNL     1      -0.060   2.011  23.833  0.00  0.00    -0.305 N 
ATOM     15  C   UNL     1       0.430   0.711  23.834  0.00  0.00    +0.244 C 
ATOM     27  H   UNL     1       0.380   2.720  23.254  0.00  0.00    +0.149 HD
BRANCH  15  19
ATOM     19  C   UNL     1       1.699   0.493  23.094  0.00  0.00    +0.038 A 
ATOM     20  C   UNL     1       2.923   0.683  23.737  0.00  0.00    +0.032 A 
ATOM     21  C   UNL     1       1.668   0.101  21.755  0.00  0.00    +0.013 A 
ATOM     22  C   UNL     1       4.114   0.479  23.042  0.00  0.00    +0.052 A 
ATOM     23  C   UNL     1       2.860  -0.102  21.060  0.00  0.00    +0.002 A 
ATOM     24  C   UNL     1       4.084   0.087  21.704  0.00  0.00    +0.019 A 
BRANCH  22  26
ATOM      6  N   UNL     1       6.386   0.825  24.235  0.00  0.00    -0.191 NA
ATOM     26  C   UNL     1       5.368   0.670  23.700  0.00  0.00    +0.099 C 
ENDBRANCH  22  26
ENDBRANCH  15  19
ENDBRANCH   8   5
BRANCH   9   1
ATOM      1  O   UNL     1      -0.610   4.429  25.700  0.00  0.00    -0.387 OA
ATOM     28  H   UNL     1       0.322   4.337  25.436  0.00  0.00    +0.210 HD
ENDBRANCH   9   1
BRANCH  11   2
ATOM      2  O   UNL     1      -3.202   3.729  26.276  0.00  0.00    -0.389 OA
ATOM     29  H   UNL     1      -2.510   4.102  26.849  0.00  0.00    +0.210 HD
ENDBRANCH  11   2
TORSDOF 7
ENDMDL
MODEL 4
REMARK VINA RESULT:       3.8      2.470      7.003
REMARK  Name = 71693898
REMARK  8 active torsions:
REMARK  status: ('A' for Active; 'I' for Inactive)
REMARK    1  A    between atoms: O_1  and  C_9
REMARK    2  A    between atoms: O_2  and  C_11
REMARK    3  A    between atoms: O_4  and  C_18
REMARK    4  A    between atoms: O_4  and  C_25
REMARK    5  A    between atoms: N_5  and  C_8
REMARK    6  A    between atoms: C_7  and  C_12
REMARK    7  A    between atoms: C_15  and  C_19
REMARK    8  A    between atoms: C_22  and  C_26
REMARK                            x       y       z     vdW  Elec       q    Type
REMARK                         _______ _______ _______ _____ _____    ______ ____
ROOT
ATOM      7  C   UNL     1      -1.104  -0.745  23.530  0.00  0.00    +0.044 C 
ATOM      8  C   UNL     1      -1.550  -0.485  24.986  0.00  0.00    +0.112 C 
ATOM      9  C   UNL     1      -2.520  -1.631  25.271  0.00  0.00    +0.164 C 
ATOM     10  C   UNL     1      -1.339  -2.256  23.278  0.00  0.00    +0.044 C 
ATOM     11  C   UNL     1      -1.850  -2.825  24.600  0.00  0.00    +0.145 C 
ENDROOT
BRANCH   7  12
ATOM     12  C   UNL     1       0.310  -0.278  23.251  0.00  0.00    -0.042 A 
ATOM     13  C   UNL     1       1.072  -0.910  22.269  0.00  0.00    +0.007 A 
ATOM     14  C   UNL     1       0.849   0.784  23.978  0.00  0.00    +0.007 A 
ATOM     16  C   UNL     1       2.374  -0.480  22.012  0.00  0.00    +0.046 A 
ATOM     17  C   UNL     1       2.151   1.214  23.721  0.00  0.00    +0.046 A 
ATOM     18  C   UNL     1       2.913   0.583  22.738  0.00  0.00    +0.120 A 
BRANCH  18   4
ATOM      4  O   UNL     1       4.184   1.002  22.488  0.00  0.00    -0.495 OA
ATOM     25  C   UNL     1       5.226   0.416  23.266  0.00  0.00    +0.277 C 
ENDBRANCH  18   4
ENDBRANCH   7  12
BRANCH   8   5
ATOM      3  O   UNL     1      -4.338   0.113  24.647  0.00  0.00    -0.270 OA
ATOM      5  N   UNL     1      -2.179   0.802  25.137  0.00  0.00    -0.305 N 
ATOM     15  C   UNL     1      -3.542   0.996  24.952  0.00  0.00    +0.244 C 
ATOM     27  H   UNL     1      -1.600   1.562  25.483  0.00  0.00    +0.149 HD
BRANCH  15  19
ATOM     19  C   UNL     1      -4.030   2.389  25.119  0.00  0.00    +0.038 A 
ATOM     20  C   UNL     1      -3.133   3.456  25.051  0.00  0.00    +0.032 A 
ATOM     21  C   UNL     1      -5.385   2.631  25.346  0.00  0.00    +0.013 A 
ATOM     22  C   UNL     1      -3.591   4.763  25.209  0.00  0.00    +0.052 A 
ATOM     23  C   UNL     1      -5.843   3.939  25.505  0.00  0.00    +0.002 A 
ATOM     24  C   UNL     1      -4.945   5.005  25.436  0.00  0.00    +0.019 A 
BRANCH  22  26
ATOM      6  N   UNL     1      -1.927   6.743  25.077  0.00  0.00    -0.191 NA
ATOM     26  C   UNL     1      -2.673   5.856  25.137  0.00  0.00    +0.099 C 
ENDBRANCH  22  26
ENDBRANCH  15  19
ENDBRANCH   8   5
BRANCH   9   1
ATOM      1  O   UNL     1      -2.694  -1.855  26.657  0.00  0.00    -0.387 OA
ATOM     28  H   UNL     1      -3.504  -1.389  26.929  0.00  0.00    +0.210 HD
ENDBRANCH   9   1
BRANCH  11   2
ATOM      2  O   UNL     1      -0.736  -3.279  25.363  0.00  0.00    -0.389 OA
ATOM     29  H   UNL     1      -0.320  -4.005  24.867  0.00  0.00    +0.210 HD
ENDBRANCH  11   2
TORSDOF 7
ENDMDL
MODEL 5
REMARK VINA RESULT:       3.8      3.654      6.251
REMARK  Name = 71693898
REMARK  8 active torsions:
REMARK  status: ('A' for Active; 'I' for Inactive)
REMARK    1  A    between atoms: O_1  and  C_9
REMARK    2  A    between atoms: O_2  and  C_11
REMARK    3  A    between atoms: O_4  and  C_18
REMARK    4  A    between atoms: O_4  and  C_25
REMARK    5  A    between atoms: N_5  and  C_8
REMARK    6  A    between atoms: C_7  and  C_12
REMARK    7  A    between atoms: C_15  and  C_19
REMARK    8  A    between atoms: C_22  and  C_26
REMARK                            x       y       z     vdW  Elec       q    Type
REMARK                         _______ _______ _______ _____ _____    ______ ____
ROOT
ATOM      7  C   UNL     1      -1.904   2.004  24.418  0.00  0.00    +0.044 C 
ATOM      8  C   UNL     1      -2.359   2.812  25.655  0.00  0.00    +0.112 C 
ATOM      9  C   UNL     1      -2.597   4.214  25.096  0.00  0.00    +0.164 C 
ATOM     10  C   UNL     1      -2.458   2.767  23.188  0.00  0.00    +0.044 C 
ATOM     11  C   UNL     1      -3.257   3.941  23.749  0.00  0.00    +0.145 C 
ENDROOT
BRANCH   7  12
ATOM     12  C   UNL     1      -2.307   0.546  24.483  0.00  0.00    -0.042 A 
ATOM     13  C   UNL     1      -3.621   0.172  24.200  0.00  0.00    +0.007 A 
ATOM     14  C   UNL     1      -1.363  -0.423  24.825  0.00  0.00    +0.007 A 
ATOM     16  C   UNL     1      -3.991  -1.172  24.259  0.00  0.00    +0.046 A 
ATOM     17  C   UNL     1      -1.734  -1.767  24.884  0.00  0.00    +0.046 A 
ATOM     18  C   UNL     1      -3.047  -2.141  24.601  0.00  0.00    +0.120 A 
BRANCH  18   4
ATOM      4  O   UNL     1      -3.409  -3.452  24.659  0.00  0.00    -0.495 OA
ATOM     25  C   UNL     1      -4.343  -3.912  23.683  0.00  0.00    +0.277 C 
ENDBRANCH  18   4
ENDBRANCH   7  12
BRANCH   8   5
ATOM      3  O   UNL     1       0.480   2.545  25.318  0.00  0.00    -0.270 OA
ATOM      5  N   UNL     1      -1.365   2.810  26.698  0.00  0.00    -0.305 N 
ATOM     15  C   UNL     1      -0.007   2.675  26.437  0.00  0.00    +0.244 C 
ATOM     27  H   UNL     1      -1.684   3.010  27.641  0.00  0.00    +0.149 HD
BRANCH  15  19
ATOM     19  C   UNL     1       0.885   2.665  27.624  0.00  0.00    +0.038 A 
ATOM     20  C   UNL     1       0.344   2.526  28.903  0.00  0.00    +0.032 A 
ATOM     21  C   UNL     1       2.265   2.798  27.461  0.00  0.00    +0.013 A 
ATOM     22  C   UNL     1       1.182   2.518  30.017  0.00  0.00    +0.052 A 
ATOM     23  C   UNL     1       3.102   2.790  28.577  0.00  0.00    +0.002 A 
ATOM     24  C   UNL     1       2.561   2.650  29.855  0.00  0.00    +0.019 A 
BRANCH  22  26
ATOM      6  N   UNL     1       0.179   2.255  32.390  0.00  0.00    -0.191 NA
ATOM     26  C   UNL     1       0.629   2.373  31.327  0.00  0.00    +0.099 C 
ENDBRANCH  22  26
ENDBRANCH  15  19
ENDBRANCH   8   5
BRANCH   9   1
ATOM      1  O   UNL     1      -3.438   4.988  25.930  0.00  0.00    -0.387 OA
ATOM     28  H   UNL     1      -4.342   4.641  25.835  0.00  0.00    +0.210 HD
ENDBRANCH   9   1
BRANCH  11   2
ATOM      2  O   UNL     1      -4.611   3.534  23.918  0.00  0.00    -0.389 OA
ATOM     29  H   UNL     1      -4.904   3.141  23.078  0.00  0.00    +0.210 HD
ENDBRANCH  11   2
TORSDOF 7
ENDMDL
