MODEL 1
REMARK VINA RESULT:       2.9      0.000      0.000
REMARK  Name = 11912967
REMARK  3 active torsions:
REMARK  status: ('A' for Active; 'I' for Inactive)
REMARK    1  A    between atoms: N_6  and  C_13
REMARK    2  A    between atoms: N_7  and  C_14
REMARK    3  A    between atoms: C_23  and  C_26
REMARK                            x       y       z     vdW  Elec       q    Type
REMARK                         _______ _______ _______ _____ _____    ______ ____
ROOT
ATOM      1  O   UNL     1      -0.865   3.108  23.070  0.00  0.00    -0.370 OA
ATOM      2  O   UNL     1      -0.406   4.505  25.799  0.00  0.00    -0.370 OA
ATOM     11  C   UNL     1      -0.863   3.187  25.444  0.00  0.00    +0.171 C 
ATOM     12  C   UNL     1      -1.723   3.332  24.202  0.00  0.00    +0.171 C 
ATOM     13  C   UNL     1       0.300   2.333  24.993  0.00  0.00    +0.131 C 
ATOM     14  C   UNL     1      -2.177   4.772  24.235  0.00  0.00    +0.130 C 
ATOM     15  C   UNL     1       0.443   2.744  23.535  0.00  0.00    +0.185 C 
ATOM     16  C   UNL     1      -1.022   5.469  24.932  0.00  0.00    +0.185 C 
ENDROOT
BRANCH  13   6
ATOM      3  O   UNL     1      -1.897   1.252  26.382  0.00  0.00    -0.253 OA
ATOM      4  O   UNL     1      -2.248  -3.565  25.389  0.00  0.00    -0.377 OA
ATOM      6  N   UNL     1      -0.040   0.929  25.073  0.00  0.00    -0.292 N 
ATOM      8  N   UNL     1      -1.341  -0.916  25.774  0.00  0.00    -0.281 N 
ATOM     17  C   UNL     1      -1.146   0.475  25.783  0.00  0.00    +0.303 C 
ATOM     19  C   UNL     1      -2.376  -1.497  26.632  0.00  0.00    +0.137 C 
ATOM     20  C   UNL     1      -0.497  -1.906  25.089  0.00  0.00    +0.137 C 
ATOM     21  C   UNL     1      -3.150  -2.579  25.896  0.00  0.00    +0.179 C 
ATOM     22  C   UNL     1      -1.351  -2.988  24.439  0.00  0.00    +0.179 C 
ATOM     30  H   UNL     1       0.652   0.275  24.735  0.00  0.00    +0.151 HD
ENDBRANCH  13   6
BRANCH  14   7
ATOM      7  N   UNL     1      -3.384   4.892  25.023  0.00  0.00    -0.306 N 
ATOM      9  N   UNL     1      -3.990   2.658  24.638  0.00  0.00    -0.211 NA
ATOM     10  N   UNL     1      -5.372   4.099  25.985  0.00  0.00    -0.223 NA
ATOM     18  C   UNL     1      -4.275   3.852  25.221  0.00  0.00    +0.216 A 
ATOM     23  C   UNL     1      -4.879   1.667  24.852  0.00  0.00    +0.111 A 
ATOM     24  C   UNL     1      -6.219   3.064  26.158  0.00  0.00    +0.116 A 
ATOM     25  C   UNL     1      -6.022   1.813  25.611  0.00  0.00    +0.051 A 
ATOM     31  H   UNL     1      -3.580   5.762  25.505  0.00  0.00    +0.149 HD
BRANCH  23  26
ATOM      5  O   UNL     1      -3.499   0.458  23.364  0.00  0.00    -0.461 OA
ATOM     26  C   UNL     1      -4.550   0.415  24.221  0.00  0.00    +0.153 A 
ATOM     27  C   UNL     1      -5.074  -0.852  24.289  0.00  0.00    +0.051 A 
ATOM     28  C   UNL     1      -4.293  -1.644  23.415  0.00  0.00    +0.042 A 
ATOM     29  C   UNL     1      -3.347  -0.802  22.876  0.00  0.00    +0.196 A 
ENDBRANCH  23  26
ENDBRANCH  14   7
TORSDOF 3
ENDMDL
MODEL 2
REMARK VINA RESULT:       3.5      2.263      5.372
REMARK  Name = 11912967
REMARK  3 active torsions:
REMARK  status: ('A' for Active; 'I' for Inactive)
REMARK    1  A    between atoms: N_6  and  C_13
REMARK    2  A    between atoms: N_7  and  C_14
REMARK    3  A    between atoms: C_23  and  C_26
REMARK                            x       y       z     vdW  Elec       q    Type
REMARK                         _______ _______ _______ _____ _____    ______ ____
ROOT
ATOM      1  O   UNL     1      -1.573  -1.509  25.971  0.00  0.00    -0.370 OA
ATOM      2  O   UNL     1      -3.703  -2.768  24.102  0.00  0.00    -0.370 OA
ATOM     11  C   UNL     1      -2.636  -1.831  23.871  0.00  0.00    +0.171 C 
ATOM     12  C   UNL     1      -2.555  -0.934  25.092  0.00  0.00    +0.171 C 
ATOM     13  C   UNL     1      -1.304  -2.547  23.847  0.00  0.00    +0.131 C 
ATOM     14  C   UNL     1      -3.930  -1.033  25.711  0.00  0.00    +0.130 C 
ATOM     15  C   UNL     1      -0.977  -2.648  25.329  0.00  0.00    +0.185 C 
ATOM     16  C   UNL     1      -4.366  -2.436  25.331  0.00  0.00    +0.185 C 
ENDROOT
BRANCH  13   6
ATOM      3  O   UNL     1       0.005  -0.312  24.949  0.00  0.00    -0.253 OA
ATOM      4  O   UNL     1       3.566   1.172  21.879  0.00  0.00    -0.377 OA
ATOM      6  N   UNL     1      -0.306  -1.741  23.181  0.00  0.00    -0.292 N 
ATOM      8  N   UNL     1       1.241   0.039  23.019  0.00  0.00    -0.281 N 
ATOM     17  C   UNL     1       0.296  -0.649  23.797  0.00  0.00    +0.303 C 
ATOM     19  C   UNL     1       1.798   1.298  23.520  0.00  0.00    +0.137 C 
ATOM     20  C   UNL     1       1.642  -0.295  21.644  0.00  0.00    +0.137 C 
ATOM     21  C   UNL     1       3.295   1.371  23.267  0.00  0.00    +0.179 C 
ATOM     22  C   UNL     1       3.146  -0.128  21.463  0.00  0.00    +0.179 C 
ATOM     30  H   UNL     1      -0.183  -1.898  22.190  0.00  0.00    +0.151 HD
ENDBRANCH  13   6
BRANCH  14   7
ATOM      7  N   UNL     1      -4.812  -0.054  25.114  0.00  0.00    -0.306 N 
ATOM      9  N   UNL     1      -3.178   1.629  25.189  0.00  0.00    -0.211 NA
ATOM     10  N   UNL     1      -5.370   2.071  24.291  0.00  0.00    -0.223 NA
ATOM     18  C   UNL     1      -4.442   1.254  24.857  0.00  0.00    +0.216 A 
ATOM     23  C   UNL     1      -2.851   2.910  24.924  0.00  0.00    +0.111 A 
ATOM     24  C   UNL     1      -4.976   3.339  24.053  0.00  0.00    +0.116 A 
ATOM     25  C   UNL     1      -3.718   3.819  24.351  0.00  0.00    +0.051 A 
ATOM     31  H   UNL     1      -5.739  -0.336  24.815  0.00  0.00    +0.149 HD
BRANCH  23  26
ATOM      5  O   UNL     1      -0.882   2.420  26.133  0.00  0.00    -0.461 OA
ATOM     26  C   UNL     1      -1.508   3.277  25.286  0.00  0.00    +0.153 A 
ATOM     27  C   UNL     1      -0.688   4.330  24.964  0.00  0.00    +0.051 A 
ATOM     28  C   UNL     1       0.525   4.107  25.658  0.00  0.00    +0.042 A 
ATOM     29  C   UNL     1       0.357   2.932  26.354  0.00  0.00    +0.196 A 
ENDBRANCH  23  26
ENDBRANCH  14   7
TORSDOF 3
ENDMDL
MODEL 3
REMARK VINA RESULT:       4.8      2.972      5.894
REMARK  Name = 11912967
REMARK  3 active torsions:
REMARK  status: ('A' for Active; 'I' for Inactive)
REMARK    1  A    between atoms: N_6  and  C_13
REMARK    2  A    between atoms: N_7  and  C_14
REMARK    3  A    between atoms: C_23  and  C_26
REMARK                            x       y       z     vdW  Elec       q    Type
REMARK                         _______ _______ _______ _____ _____    ______ ____
ROOT
ATOM      1  O   UNL     1      -1.338  -1.342  26.111  0.00  0.00    -0.370 OA
ATOM      2  O   UNL     1      -2.975  -1.207  23.481  0.00  0.00    -0.370 OA
ATOM     11  C   UNL     1      -1.615  -0.862  23.801  0.00  0.00    +0.171 C 
ATOM     12  C   UNL     1      -1.620  -0.268  25.197  0.00  0.00    +0.171 C 
ATOM     13  C   UNL     1      -0.774  -2.112  23.932  0.00  0.00    +0.131 C 
ATOM     14  C   UNL     1      -3.039   0.216  25.385  0.00  0.00    +0.130 C 
ATOM     15  C   UNL     1      -1.067  -2.537  25.362  0.00  0.00    +0.185 C 
ATOM     16  C   UNL     1      -3.838  -0.757  24.537  0.00  0.00    +0.185 C 
ENDROOT
BRANCH  13   6
ATOM      3  O   UNL     1       0.291   0.016  22.428  0.00  0.00    -0.253 OA
ATOM      4  O   UNL     1       5.141   0.335  23.256  0.00  0.00    -0.377 OA
ATOM      6  N   UNL     1       0.630  -1.795  23.795  0.00  0.00    -0.292 N 
ATOM      8  N   UNL     1       2.469  -0.548  22.988  0.00  0.00    -0.281 N 
ATOM     17  C   UNL     1       1.076  -0.723  23.030  0.00  0.00    +0.303 C 
ATOM     19  C   UNL     1       3.037   0.446  22.075  0.00  0.00    +0.137 C 
ATOM     20  C   UNL     1       3.469  -1.380  23.674  0.00  0.00    +0.137 C 
ATOM     21  C   UNL     1       4.151   1.231  22.747  0.00  0.00    +0.179 C 
ATOM     22  C   UNL     1       4.583  -0.518  24.257  0.00  0.00    +0.179 C 
ATOM     30  H   UNL     1       1.286  -2.483  24.139  0.00  0.00    +0.151 HD
ENDBRANCH  13   6
BRANCH  14   7
ATOM      7  N   UNL     1      -3.174   1.560  24.867  0.00  0.00    -0.306 N 
ATOM      9  N   UNL     1      -1.321   2.334  26.082  0.00  0.00    -0.211 NA
ATOM     10  N   UNL     1      -2.569   3.817  24.650  0.00  0.00    -0.223 NA
ATOM     18  C   UNL     1      -2.330   2.601  25.210  0.00  0.00    +0.216 A 
ATOM     23  C   UNL     1      -0.517   3.371  26.393  0.00  0.00    +0.111 A 
ATOM     24  C   UNL     1      -1.726   4.809  25.006  0.00  0.00    +0.116 A 
ATOM     25  C   UNL     1      -0.673   4.643  25.880  0.00  0.00    +0.051 A 
ATOM     31  H   UNL     1      -3.890   1.759  24.178  0.00  0.00    +0.149 HD
BRANCH  23  26
ATOM      5  O   UNL     1       0.139   2.490  28.484  0.00  0.00    -0.461 OA
ATOM     26  C   UNL     1       0.540   3.058  27.318  0.00  0.00    +0.153 A 
ATOM     27  C   UNL     1       1.904   3.207  27.292  0.00  0.00    +0.051 A 
ATOM     28  C   UNL     1       2.377   2.697  28.525  0.00  0.00    +0.042 A 
ATOM     29  C   UNL     1       1.265   2.273  29.215  0.00  0.00    +0.196 A 
ENDBRANCH  23  26
ENDBRANCH  14   7
TORSDOF 3
ENDMDL
MODEL 4
REMARK VINA RESULT:       5.6      1.824      4.336
REMARK  Name = 11912967
REMARK  3 active torsions:
REMARK  status: ('A' for Active; 'I' for Inactive)
REMARK    1  A    between atoms: N_6  and  C_13
REMARK    2  A    between atoms: N_7  and  C_14
REMARK    3  A    between atoms: C_23  and  C_26
REMARK                            x       y       z     vdW  Elec       q    Type
REMARK                         _______ _______ _______ _____ _____    ______ ____
ROOT
ATOM      1  O   UNL     1      -5.043   2.481  27.099  0.00  0.00    -0.370 OA
ATOM      2  O   UNL     1      -5.725   4.210  24.616  0.00  0.00    -0.370 OA
ATOM     11  C   UNL     1      -5.053   2.946  24.769  0.00  0.00    +0.171 C 
ATOM     12  C   UNL     1      -4.233   3.026  26.042  0.00  0.00    +0.171 C 
ATOM     13  C   UNL     1      -6.057   1.849  25.042  0.00  0.00    +0.131 C 
ATOM     14  C   UNL     1      -4.028   4.507  26.255  0.00  0.00    +0.130 C 
ATOM     15  C   UNL     1      -6.271   1.986  26.541  0.00  0.00    +0.185 C 
ATOM     16  C   UNL     1      -5.281   5.108  25.645  0.00  0.00    +0.185 C 
ENDROOT
BRANCH  13   6
ATOM      3  O   UNL     1      -3.667   1.391  23.627  0.00  0.00    -0.253 OA
ATOM      4  O   UNL     1      -2.552  -3.408  23.814  0.00  0.00    -0.377 OA
ATOM      6  N   UNL     1      -5.486   0.553  24.747  0.00  0.00    -0.292 N 
ATOM      8  N   UNL     1      -3.874  -0.910  23.826  0.00  0.00    -0.281 N 
ATOM     17  C   UNL     1      -4.297   0.412  24.040  0.00  0.00    +0.303 C 
ATOM     19  C   UNL     1      -2.729  -1.160  22.947  0.00  0.00    +0.137 C 
ATOM     20  C   UNL     1      -4.564  -2.126  24.282  0.00  0.00    +0.137 C 
ATOM     21  C   UNL     1      -1.811  -2.219  23.536  0.00  0.00    +0.179 C 
ATOM     22  C   UNL     1      -3.563  -3.157  24.791  0.00  0.00    +0.179 C 
ATOM     30  H   UNL     1      -6.070  -0.252  24.928  0.00  0.00    +0.151 HD
ENDBRANCH  13   6
BRANCH  14   7
ATOM      7  N   UNL     1      -2.856   4.952  25.533  0.00  0.00    -0.306 N 
ATOM      9  N   UNL     1      -1.880   2.818  25.581  0.00  0.00    -0.211 NA
ATOM     10  N   UNL     1      -0.759   4.668  24.519  0.00  0.00    -0.223 NA
ATOM     18  C   UNL     1      -1.800   4.122  25.201  0.00  0.00    +0.216 A 
ATOM     23  C   UNL     1      -0.834   2.038  25.241  0.00  0.00    +0.111 A 
ATOM     24  C   UNL     1       0.253   3.831  24.212  0.00  0.00    +0.116 A 
ATOM     25  C   UNL     1       0.270   2.494  24.549  0.00  0.00    +0.051 A 
ATOM     31  H   UNL     1      -2.809   5.908  25.200  0.00  0.00    +0.149 HD
BRANCH  23  26
ATOM      5  O   UNL     1      -0.066  -0.190  25.074  0.00  0.00    -0.461 OA
ATOM     26  C   UNL     1      -0.946   0.665  25.656  0.00  0.00    +0.153 A 
ATOM     27  C   UNL     1      -1.767  -0.002  26.532  0.00  0.00    +0.051 A 
ATOM     28  C   UNL     1      -1.365  -1.358  26.489  0.00  0.00    +0.042 A 
ATOM     29  C   UNL     1      -0.327  -1.421  25.587  0.00  0.00    +0.196 A 
ENDBRANCH  23  26
ENDBRANCH  14   7
TORSDOF 3
ENDMDL
MODEL 5
REMARK VINA RESULT:       5.8      2.227      4.855
REMARK  Name = 11912967
REMARK  3 active torsions:
REMARK  status: ('A' for Active; 'I' for Inactive)
REMARK    1  A    between atoms: N_6  and  C_13
REMARK    2  A    between atoms: N_7  and  C_14
REMARK    3  A    between atoms: C_23  and  C_26
REMARK                            x       y       z     vdW  Elec       q    Type
REMARK                         _______ _______ _______ _____ _____    ______ ____
ROOT
ATOM      1  O   UNL     1      -0.951  -1.138  25.074  0.00  0.00    -0.370 OA
ATOM      2  O   UNL     1      -2.304   0.705  22.980  0.00  0.00    -0.370 OA
ATOM     11  C   UNL     1      -1.695   0.965  24.257  0.00  0.00    +0.171 C 
ATOM     12  C   UNL     1      -2.039  -0.202  25.163  0.00  0.00    +0.171 C 
ATOM     13  C   UNL     1      -0.189   0.913  24.141  0.00  0.00    +0.131 C 
ATOM     14  C   UNL     1      -3.285  -0.792  24.545  0.00  0.00    +0.130 C 
ATOM     15  C   UNL     1       0.082  -0.580  24.246  0.00  0.00    +0.185 C 
ATOM     16  C   UNL     1      -3.101  -0.485  23.070  0.00  0.00    +0.185 C 
ENDROOT
BRANCH  13   6
ATOM      3  O   UNL     1      -1.214   1.063  26.758  0.00  0.00    -0.253 OA
ATOM      4  O   UNL     1       2.122   3.191  29.699  0.00  0.00    -0.377 OA
ATOM      6  N   UNL     1       0.431   1.601  25.252  0.00  0.00    -0.292 N 
ATOM      8  N   UNL     1       0.575   2.344  27.491  0.00  0.00    -0.281 N 
ATOM     17  C   UNL     1      -0.142   1.629  26.518  0.00  0.00    +0.303 C 
ATOM     19  C   UNL     1      -0.034   2.570  28.804  0.00  0.00    +0.137 C 
ATOM     20  C   UNL     1       1.853   3.043  27.288  0.00  0.00    +0.137 C 
ATOM     21  C   UNL     1       0.979   2.362  29.918  0.00  0.00    +0.179 C 
ATOM     22  C   UNL     1       2.778   2.836  28.481  0.00  0.00    +0.179 C 
ATOM     30  H   UNL     1       1.212   2.204  25.033  0.00  0.00    +0.151 HD
ENDBRANCH  13   6
BRANCH  14   7
ATOM      7  N   UNL     1      -4.458  -0.116  25.055  0.00  0.00    -0.306 N 
ATOM      9  N   UNL     1      -3.413   1.984  24.989  0.00  0.00    -0.211 NA
ATOM     10  N   UNL     1      -5.685   1.757  25.756  0.00  0.00    -0.223 NA
ATOM     18  C   UNL     1      -4.520   1.249  25.273  0.00  0.00    +0.216 A 
ATOM     23  C   UNL     1      -3.509   3.311  25.212  0.00  0.00    +0.111 A 
ATOM     24  C   UNL     1      -5.712   3.091  25.957  0.00  0.00    +0.116 A 
ATOM     25  C   UNL     1      -4.644   3.926  25.700  0.00  0.00    +0.051 A 
ATOM     31  H   UNL     1      -5.305  -0.646  25.222  0.00  0.00    +0.149 HD
BRANCH  23  26
ATOM      5  O   UNL     1      -1.617   3.616  23.831  0.00  0.00    -0.461 OA
ATOM     26  C   UNL     1      -2.321   4.062  24.902  0.00  0.00    +0.153 A 
ATOM     27  C   UNL     1      -1.717   5.161  25.460  0.00  0.00    +0.051 A 
ATOM     28  C   UNL     1      -0.562   5.410  24.680  0.00  0.00    +0.042 A 
ATOM     29  C   UNL     1      -0.546   4.442  23.702  0.00  0.00    +0.196 A 
ENDBRANCH  23  26
ENDBRANCH  14   7
TORSDOF 3
ENDMDL
MODEL 6
REMARK VINA RESULT:       6.4      2.143      3.499
REMARK  Name = 11912967
REMARK  3 active torsions:
REMARK  status: ('A' for Active; 'I' for Inactive)
REMARK    1  A    between atoms: N_6  and  C_13
REMARK    2  A    between atoms: N_7  and  C_14
REMARK    3  A    between atoms: C_23  and  C_26
REMARK                            x       y       z     vdW  Elec       q    Type
REMARK                         _______ _______ _______ _____ _____    ______ ____
ROOT
ATOM      1  O   UNL     1      -2.059   4.956  24.451  0.00  0.00    -0.370 OA
ATOM      2  O   UNL     1      -3.008   3.357  26.932  0.00  0.00    -0.370 OA
ATOM     11  C   UNL     1      -2.510   2.952  25.645  0.00  0.00    +0.171 C 
ATOM     12  C   UNL     1      -3.056   3.934  24.625  0.00  0.00    +0.171 C 
ATOM     13  C   UNL     1      -1.011   3.143  25.578  0.00  0.00    +0.131 C 
ATOM     14  C   UNL     1      -4.283   4.511  25.290  0.00  0.00    +0.130 C 
ATOM     15  C   UNL     1      -0.899   4.618  25.226  0.00  0.00    +0.185 C 
ATOM     16  C   UNL     1      -3.922   4.452  26.763  0.00  0.00    +0.185 C 
ENDROOT
BRANCH  13   6
ATOM      3  O   UNL     1       1.680   2.345  25.380  0.00  0.00    -0.253 OA
ATOM      4  O   UNL     1       2.177  -0.808  21.622  0.00  0.00    -0.377 OA
ATOM      6  N   UNL     1      -0.445   2.343  24.515  0.00  0.00    -0.292 N 
ATOM      8  N   UNL     1       1.303   1.217  23.390  0.00  0.00    -0.281 N 
ATOM     17  C   UNL     1       0.900   1.990  24.490  0.00  0.00    +0.303 C 
ATOM     19  C   UNL     1       2.728   0.944  23.191  0.00  0.00    +0.137 C 
ATOM     20  C   UNL     1       0.440   0.755  22.292  0.00  0.00    +0.137 C 
ATOM     21  C   UNL     1       2.955  -0.502  22.781  0.00  0.00    +0.179 C 
ATOM     22  C   UNL     1       0.783  -0.677  21.900  0.00  0.00    +0.179 C 
ATOM     30  H   UNL     1      -1.026   2.190  23.703  0.00  0.00    +0.151 HD
ENDBRANCH  13   6
BRANCH  14   7
ATOM      7  N   UNL     1      -5.431   3.672  25.022  0.00  0.00    -0.306 N 
ATOM      9  N   UNL     1      -4.136   1.714  25.006  0.00  0.00    -0.211 NA
ATOM     10  N   UNL     1      -6.514   1.627  24.632  0.00  0.00    -0.223 NA
ATOM     18  C   UNL     1      -5.358   2.297  24.882  0.00  0.00    +0.216 A 
ATOM     23  C   UNL     1      -4.102   0.374  24.865  0.00  0.00    +0.111 A 
ATOM     24  C   UNL     1      -6.408   0.289  24.502  0.00  0.00    +0.116 A 
ATOM     25  C   UNL     1      -5.217  -0.399  24.610  0.00  0.00    +0.051 A 
ATOM     31  H   UNL     1      -6.354   4.089  24.979  0.00  0.00    +0.149 HD
BRANCH  23  26
ATOM      5  O   UNL     1      -2.178   0.014  26.188  0.00  0.00    -0.461 OA
ATOM     26  C   UNL     1      -2.796  -0.214  25.001  0.00  0.00    +0.153 A 
ATOM     27  C   UNL     1      -2.004  -0.976  24.178  0.00  0.00    +0.051 A 
ATOM     28  C   UNL     1      -0.818  -1.235  24.907  0.00  0.00    +0.042 A 
ATOM     29  C   UNL     1      -0.974  -0.612  26.124  0.00  0.00    +0.196 A 
ENDBRANCH  23  26
ENDBRANCH  14   7
TORSDOF 3
ENDMDL
MODEL 7
REMARK VINA RESULT:       6.4      1.788      4.337
REMARK  Name = 11912967
REMARK  3 active torsions:
REMARK  status: ('A' for Active; 'I' for Inactive)
REMARK    1  A    between atoms: N_6  and  C_13
REMARK    2  A    between atoms: N_7  and  C_14
REMARK    3  A    between atoms: C_23  and  C_26
REMARK                            x       y       z     vdW  Elec       q    Type
REMARK                         _______ _______ _______ _____ _____    ______ ____
ROOT
ATOM      1  O   UNL     1      -3.222   3.666  26.667  0.00  0.00    -0.370 OA
ATOM      2  O   UNL     1      -3.599   4.978  23.883  0.00  0.00    -0.370 OA
ATOM     11  C   UNL     1      -3.405   3.615  24.299  0.00  0.00    +0.171 C 
ATOM     12  C   UNL     1      -2.434   3.636  25.464  0.00  0.00    +0.171 C 
ATOM     13  C   UNL     1      -4.681   3.059  24.889  0.00  0.00    +0.131 C 
ATOM     14  C   UNL     1      -1.689   4.940  25.297  0.00  0.00    +0.130 C 
ATOM     15  C   UNL     1      -4.613   3.570  26.320  0.00  0.00    +0.185 C 
ATOM     16  C   UNL     1      -2.723   5.832  24.634  0.00  0.00    +0.185 C 
ENDROOT
BRANCH  13   6
ATOM      3  O   UNL     1      -3.384   1.445  22.983  0.00  0.00    -0.253 OA
ATOM      4  O   UNL     1      -3.573  -3.264  24.430  0.00  0.00    -0.377 OA
ATOM      6  N   UNL     1      -4.656   1.613  24.885  0.00  0.00    -0.292 N 
ATOM      8  N   UNL     1      -4.061  -0.509  24.031  0.00  0.00    -0.281 N 
ATOM     17  C   UNL     1      -3.990   0.888  23.904  0.00  0.00    +0.303 C 
ATOM     19  C   UNL     1      -3.537  -1.352  22.954  0.00  0.00    +0.137 C 
ATOM     20  C   UNL     1      -4.759  -1.249  25.093  0.00  0.00    +0.137 C 
ATOM     21  C   UNL     1      -2.758  -2.531  23.514  0.00  0.00    +0.179 C 
ATOM     22  C   UNL     1      -3.938  -2.450  25.545  0.00  0.00    +0.179 C 
ATOM     30  H   UNL     1      -5.281   1.147  25.527  0.00  0.00    +0.151 HD
ENDBRANCH  13   6
BRANCH  14   7
ATOM      7  N   UNL     1      -0.553   4.751  24.421  0.00  0.00    -0.306 N 
ATOM      9  N   UNL     1      -0.480   2.441  24.832  0.00  0.00    -0.211 NA
ATOM     10  N   UNL     1       1.102   3.484  23.344  0.00  0.00    -0.223 NA
ATOM     18  C   UNL     1       0.041   3.522  24.192  0.00  0.00    +0.216 A 
ATOM     23  C   UNL     1       0.123   1.260  24.585  0.00  0.00    +0.111 A 
ATOM     24  C   UNL     1       1.657   2.271  23.143  0.00  0.00    +0.116 A 
ATOM     25  C   UNL     1       1.206   1.113  23.741  0.00  0.00    +0.051 A 
ATOM     31  H   UNL     1      -0.190   5.540  23.899  0.00  0.00    +0.149 HD
BRANCH  23  26
ATOM      5  O   UNL     1       0.025  -1.079  24.897  0.00  0.00    -0.461 OA
ATOM     26  C   UNL     1      -0.449   0.135  25.276  0.00  0.00    +0.153 A 
ATOM     27  C   UNL     1      -1.395   0.003  26.262  0.00  0.00    +0.051 A 
ATOM     28  C   UNL     1      -1.513  -1.386  26.507  0.00  0.00    +0.042 A 
ATOM     29  C   UNL     1      -0.628  -2.001  25.652  0.00  0.00    +0.196 A 
ENDBRANCH  23  26
ENDBRANCH  14   7
TORSDOF 3
ENDMDL
MODEL 8
REMARK VINA RESULT:       6.8      2.086      6.513
REMARK  Name = 11912967
REMARK  3 active torsions:
REMARK  status: ('A' for Active; 'I' for Inactive)
REMARK    1  A    between atoms: N_6  and  C_13
REMARK    2  A    between atoms: N_7  and  C_14
REMARK    3  A    between atoms: C_23  and  C_26
REMARK                            x       y       z     vdW  Elec       q    Type
REMARK                         _______ _______ _______ _____ _____    ______ ____
ROOT
ATOM      1  O   UNL     1      -3.483  -1.678  23.935  0.00  0.00    -0.370 OA
ATOM      2  O   UNL     1      -1.151  -1.484  25.969  0.00  0.00    -0.370 OA
ATOM     11  C   UNL     1      -1.790  -0.511  25.124  0.00  0.00    +0.171 C 
ATOM     12  C   UNL     1      -2.130  -1.205  23.819  0.00  0.00    +0.171 C 
ATOM     13  C   UNL     1      -3.133  -0.119  25.697  0.00  0.00    +0.131 C 
ATOM     14  C   UNL     1      -1.173  -2.373  23.764  0.00  0.00    +0.130 C 
ATOM     15  C   UNL     1      -4.028  -1.239  25.189  0.00  0.00    +0.185 C 
ATOM     16  C   UNL     1      -0.965  -2.702  25.231  0.00  0.00    +0.185 C 
ENDROOT
BRANCH  13   6
ATOM      3  O   UNL     1      -5.407   1.325  26.511  0.00  0.00    -0.253 OA
ATOM      4  O   UNL     1      -5.449   5.711  24.258  0.00  0.00    -0.377 OA
ATOM      6  N   UNL     1      -3.571   1.144  25.147  0.00  0.00    -0.292 N 
ATOM      8  N   UNL     1      -5.011   3.010  24.968  0.00  0.00    -0.281 N 
ATOM     17  C   UNL     1      -4.711   1.796  25.606  0.00  0.00    +0.303 C 
ATOM     19  C   UNL     1      -6.280   3.679  25.265  0.00  0.00    +0.137 C 
ATOM     20  C   UNL     1      -4.236   3.637  23.886  0.00  0.00    +0.137 C 
ATOM     21  C   UNL     1      -6.084   5.178  25.422  0.00  0.00    +0.179 C 
ATOM     22  C   UNL     1      -4.149   5.145  24.087  0.00  0.00    +0.179 C 
ATOM     30  H   UNL     1      -3.113   1.454  24.301  0.00  0.00    +0.151 HD
ENDBRANCH  13   6
BRANCH  14   7
ATOM      7  N   UNL     1       0.075  -1.961  23.160  0.00  0.00    -0.306 N 
ATOM      9  N   UNL     1      -0.106   0.220  24.009  0.00  0.00    -0.211 NA
ATOM     10  N   UNL     1       1.783  -0.431  22.663  0.00  0.00    -0.223 NA
ATOM     18  C   UNL     1       0.600  -0.686  23.281  0.00  0.00    +0.216 A 
ATOM     23  C   UNL     1       0.435   1.451  24.107  0.00  0.00    +0.111 A 
ATOM     24  C   UNL     1       2.266   0.821  22.801  0.00  0.00    +0.116 A 
ATOM     25  C   UNL     1       1.630   1.813  23.518  0.00  0.00    +0.051 A 
ATOM     31  H   UNL     1       0.635  -2.641  22.658  0.00  0.00    +0.149 HD
BRANCH  23  26
ATOM      5  O   UNL     1      -0.558   2.026  26.172  0.00  0.00    -0.461 OA
ATOM     26  C   UNL     1      -0.335   2.388  24.882  0.00  0.00    +0.153 A 
ATOM     27  C   UNL     1      -0.915   3.601  24.609  0.00  0.00    +0.051 A 
ATOM     28  C   UNL     1      -1.537   4.016  25.811  0.00  0.00    +0.042 A 
ATOM     29  C   UNL     1      -1.291   3.024  26.731  0.00  0.00    +0.196 A 
ENDBRANCH  23  26
ENDBRANCH  14   7
TORSDOF 3
ENDMDL
