MODEL 1
REMARK VINA RESULT:       3.1      0.000      0.000
REMARK  Name = 51137545
REMARK  8 active torsions:
REMARK  status: ('A' for Active; 'I' for Inactive)
REMARK    1  A    between atoms: N_4  and  C_13
REMARK    2  A    between atoms: N_7  and  C_16
REMARK    3  A    between atoms: N_8  and  C_25
REMARK    4  A    between atoms: N_8  and  C_28
REMARK    5  A    between atoms: N_8  and  C_29
REMARK    6  A    between atoms: C_9  and  C_14
REMARK    7  A    between atoms: C_13  and  C_15
REMARK    8  A    between atoms: C_18  and  C_19
REMARK                            x       y       z     vdW  Elec       q    Type
REMARK                         _______ _______ _______ _____ _____    ______ ____
ROOT
ATOM      4  N   UNL     1      -5.371   1.437  24.738  0.00  0.00    -0.297 NA
ATOM      9  C   UNL     1      -4.351  -0.673  24.646  0.00  0.00    +0.092 C 
ATOM     10  C   UNL     1      -4.821  -0.391  26.083  0.00  0.00    +0.029 C 
ATOM     11  C   UNL     1      -4.383   0.695  23.951  0.00  0.00    +0.097 C 
ATOM     12  C   UNL     1      -5.063   1.112  26.131  0.00  0.00    +0.085 C 
ENDROOT
BRANCH   9  14
ATOM      1  O   UNL     1      -1.942  -0.573  24.219  0.00  0.00    -0.420 OA
ATOM      5  N   UNL     1      -2.697  -2.620  24.711  0.00  0.00    -0.112 NA
ATOM      6  N   UNL     1      -1.334  -2.708  24.495  0.00  0.00    -0.107 NA
ATOM     14  C   UNL     1      -3.008  -1.357  24.539  0.00  0.00    +0.222 A 
ATOM     18  C   UNL     1      -0.936  -1.489  24.211  0.00  0.00    +0.248 A 
BRANCH  18  19
ATOM     19  C   UNL     1       0.369  -0.985  23.900  0.00  0.00    +0.039 A 
ATOM     23  C   UNL     1       1.497  -1.766  24.155  0.00  0.00    +0.015 A 
ATOM     24  C   UNL     1       0.512   0.285  23.341  0.00  0.00    +0.015 A 
ATOM     25  C   UNL     1       2.910  -0.004  23.294  0.00  0.00    +0.029 A 
ATOM     26  C   UNL     1       2.767  -1.275  23.853  0.00  0.00    +0.024 A 
ATOM     27  C   UNL     1       1.782   0.775  23.039  0.00  0.00    +0.024 A 
BRANCH  25   8
ATOM      8  N   UNL     1       4.194   0.491  22.989  0.00  0.00    -0.336 N 
ATOM     28  C   UNL     1       4.348   1.678  22.170  0.00  0.00    +0.129 C 
ATOM     29  C   UNL     1       5.377  -0.175  23.496  0.00  0.00    +0.129 C 
ENDBRANCH  25   8
ENDBRANCH  18  19
ENDBRANCH   9  14
BRANCH   4  13
ATOM     13  C   UNL     1      -5.324   2.869  24.479  0.00  0.00    +0.121 C 
BRANCH  13  15
ATOM     15  C   UNL     1      -3.972   3.451  24.794  0.00  0.00    -0.003 A 
ATOM     16  C   UNL     1      -2.957   3.487  23.838  0.00  0.00    +0.131 A 
ATOM     17  C   UNL     1      -3.743   3.961  26.072  0.00  0.00    +0.007 A 
ATOM     20  C   UNL     1      -1.714   4.033  24.159  0.00  0.00    +0.033 A 
ATOM     21  C   UNL     1      -2.501   4.507  26.394  0.00  0.00    +0.000 A 
ATOM     22  C   UNL     1      -1.486   4.543  25.438  0.00  0.00    +0.002 A 
BRANCH  16   7
ATOM      2  O   UNL     1      -4.049   3.494  21.806  0.00  0.00    -0.126 OA
ATOM      3  O   UNL     1      -2.462   2.013  22.134  0.00  0.00    -0.126 OA
ATOM      7  N   UNL     1      -3.166   2.972  22.529  0.00  0.00    +0.057 N 
ENDBRANCH  16   7
ENDBRANCH  13  15
ENDBRANCH   4  13
TORSDOF 6
ENDMDL
MODEL 2
REMARK VINA RESULT:       3.9      1.570      1.942
REMARK  Name = 51137545
REMARK  8 active torsions:
REMARK  status: ('A' for Active; 'I' for Inactive)
REMARK    1  A    between atoms: N_4  and  C_13
REMARK    2  A    between atoms: N_7  and  C_16
REMARK    3  A    between atoms: N_8  and  C_25
REMARK    4  A    between atoms: N_8  and  C_28
REMARK    5  A    between atoms: N_8  and  C_29
REMARK    6  A    between atoms: C_9  and  C_14
REMARK    7  A    between atoms: C_13  and  C_15
REMARK    8  A    between atoms: C_18  and  C_19
REMARK                            x       y       z     vdW  Elec       q    Type
REMARK                         _______ _______ _______ _____ _____    ______ ____
ROOT
ATOM      4  N   UNL     1      -4.987   0.751  24.255  0.00  0.00    -0.297 NA
ATOM      9  C   UNL     1      -3.771  -1.244  24.464  0.00  0.00    +0.092 C 
ATOM     10  C   UNL     1      -4.335  -0.838  25.837  0.00  0.00    +0.029 C 
ATOM     11  C   UNL     1      -3.897   0.021  23.604  0.00  0.00    +0.097 C 
ATOM     12  C   UNL     1      -4.718   0.628  25.688  0.00  0.00    +0.085 C 
ENDROOT
BRANCH   9  14
ATOM      1  O   UNL     1      -1.366  -0.965  24.097  0.00  0.00    -0.420 OA
ATOM      5  N   UNL     1      -1.946  -2.990  24.849  0.00  0.00    -0.112 NA
ATOM      6  N   UNL     1      -0.572  -2.971  24.687  0.00  0.00    -0.107 NA
ATOM     14  C   UNL     1      -2.366  -1.799  24.493  0.00  0.00    +0.222 A 
ATOM     18  C   UNL     1      -0.279  -1.770  24.246  0.00  0.00    +0.248 A 
BRANCH  18  19
ATOM     19  C   UNL     1       0.985  -1.187  23.906  0.00  0.00    +0.039 A 
ATOM     23  C   UNL     1       2.169  -1.849  24.230  0.00  0.00    +0.015 A 
ATOM     24  C   UNL     1       1.031   0.044  23.249  0.00  0.00    +0.015 A 
ATOM     25  C   UNL     1       3.445  -0.051  23.242  0.00  0.00    +0.029 A 
ATOM     26  C   UNL     1       3.399  -1.281  23.898  0.00  0.00    +0.024 A 
ATOM     27  C   UNL     1       2.262   0.611  22.918  0.00  0.00    +0.024 A 
BRANCH  25   8
ATOM      8  N   UNL     1       4.689   0.523  22.907  0.00  0.00    -0.336 N 
ATOM     28  C   UNL     1       4.750   1.817  22.257  0.00  0.00    +0.129 C 
ATOM     29  C   UNL     1       5.924  -0.171  23.216  0.00  0.00    +0.129 C 
ENDBRANCH  25   8
ENDBRANCH  18  19
ENDBRANCH   9  14
BRANCH   4  13
ATOM     13  C   UNL     1      -5.061   2.139  23.823  0.00  0.00    +0.121 C 
BRANCH  13  15
ATOM     15  C   UNL     1      -3.956   2.971  24.416  0.00  0.00    -0.003 A 
ATOM     16  C   UNL     1      -4.198   3.856  25.466  0.00  0.00    +0.131 A 
ATOM     17  C   UNL     1      -2.668   2.844  23.895  0.00  0.00    +0.007 A 
ATOM     20  C   UNL     1      -3.154   4.614  25.996  0.00  0.00    +0.033 A 
ATOM     21  C   UNL     1      -1.624   3.601  24.424  0.00  0.00    +0.000 A 
ATOM     22  C   UNL     1      -1.866   4.487  25.474  0.00  0.00    +0.002 A 
BRANCH  16   7
ATOM      2  O   UNL     1      -6.184   5.007  25.694  0.00  0.00    -0.126 OA
ATOM      3  O   UNL     1      -5.935   3.126  26.797  0.00  0.00    -0.126 OA
ATOM      7  N   UNL     1      -5.503   4.004  26.013  0.00  0.00    +0.057 N 
ENDBRANCH  16   7
ENDBRANCH  13  15
ENDBRANCH   4  13
TORSDOF 6
ENDMDL
MODEL 3
REMARK VINA RESULT:       5.6     14.005     15.267
REMARK  Name = 51137545
REMARK  8 active torsions:
REMARK  status: ('A' for Active; 'I' for Inactive)
REMARK    1  A    between atoms: N_4  and  C_13
REMARK    2  A    between atoms: N_7  and  C_16
REMARK    3  A    between atoms: N_8  and  C_25
REMARK    4  A    between atoms: N_8  and  C_28
REMARK    5  A    between atoms: N_8  and  C_29
REMARK    6  A    between atoms: C_9  and  C_14
REMARK    7  A    between atoms: C_13  and  C_15
REMARK    8  A    between atoms: C_18  and  C_19
REMARK                            x       y       z     vdW  Elec       q    Type
REMARK                         _______ _______ _______ _____ _____    ______ ____
ROOT
ATOM      4  N   UNL     1      -6.015 -10.235  14.688  0.00  0.00    -0.297 NA
ATOM      9  C   UNL     1      -4.280 -10.781  13.208  0.00  0.00    +0.092 C 
ATOM     10  C   UNL     1      -3.745 -10.781  14.650  0.00  0.00    +0.029 C 
ATOM     11  C   UNL     1      -5.621 -10.040  13.291  0.00  0.00    +0.097 C 
ATOM     12  C   UNL     1      -4.789 -10.021  15.458  0.00  0.00    +0.085 C 
ENDROOT
BRANCH   9  14
ATOM      1  O   UNL     1      -2.199  -9.616  12.652  0.00  0.00    -0.420 OA
ATOM      5  N   UNL     1      -3.455 -10.138  10.876  0.00  0.00    -0.112 NA
ATOM      6  N   UNL     1      -2.321  -9.490  10.422  0.00  0.00    -0.107 NA
ATOM     14  C   UNL     1      -3.341 -10.189  12.182  0.00  0.00    +0.222 A 
ATOM     18  C   UNL     1      -1.618  -9.204  11.493  0.00  0.00    +0.248 A 
BRANCH  18  19
ATOM     19  C   UNL     1      -0.356  -8.537  11.626  0.00  0.00    +0.039 A 
ATOM     23  C   UNL     1       0.727  -8.930  10.839  0.00  0.00    +0.015 A 
ATOM     24  C   UNL     1      -0.211  -7.495  12.543  0.00  0.00    +0.015 A 
ATOM     25  C   UNL     1       2.100  -7.239  11.886  0.00  0.00    +0.029 A 
ATOM     26  C   UNL     1       1.955  -8.281  10.969  0.00  0.00    +0.024 A 
ATOM     27  C   UNL     1       1.017  -6.847  12.672  0.00  0.00    +0.024 A 
BRANCH  25   8
ATOM      8  N   UNL     1       3.342  -6.584  12.017  0.00  0.00    -0.336 N 
ATOM     28  C   UNL     1       3.397  -5.157  12.266  0.00  0.00    +0.129 C 
ATOM     29  C   UNL     1       4.580  -7.331  11.913  0.00  0.00    +0.129 C 
ENDBRANCH  25   8
ENDBRANCH  18  19
ENDBRANCH   9  14
BRANCH   4  13
ATOM     13  C   UNL     1      -7.087  -9.336  15.092  0.00  0.00    +0.121 C 
BRANCH  13  15
ATOM     15  C   UNL     1      -7.751  -9.793  16.364  0.00  0.00    -0.003 A 
ATOM     16  C   UNL     1      -9.136  -9.743  16.516  0.00  0.00    +0.131 A 
ATOM     17  C   UNL     1      -6.952 -10.272  17.402  0.00  0.00    +0.007 A 
ATOM     20  C   UNL     1      -9.723 -10.173  17.707  0.00  0.00    +0.033 A 
ATOM     21  C   UNL     1      -7.538 -10.702  18.592  0.00  0.00    +0.000 A 
ATOM     22  C   UNL     1      -8.923 -10.652  18.745  0.00  0.00    +0.002 A 
BRANCH  16   7
ATOM      2  O   UNL     1     -10.112  -8.020  15.334  0.00  0.00    -0.126 OA
ATOM      3  O   UNL     1     -10.542 -10.083  14.719  0.00  0.00    -0.126 OA
ATOM      7  N   UNL     1      -9.971  -9.258  15.472  0.00  0.00    +0.057 N 
ENDBRANCH  16   7
ENDBRANCH  13  15
ENDBRANCH   4  13
TORSDOF 6
ENDMDL
MODEL 4
REMARK VINA RESULT:       6.2      2.052      3.772
REMARK  Name = 51137545
REMARK  8 active torsions:
REMARK  status: ('A' for Active; 'I' for Inactive)
REMARK    1  A    between atoms: N_4  and  C_13
REMARK    2  A    between atoms: N_7  and  C_16
REMARK    3  A    between atoms: N_8  and  C_25
REMARK    4  A    between atoms: N_8  and  C_28
REMARK    5  A    between atoms: N_8  and  C_29
REMARK    6  A    between atoms: C_9  and  C_14
REMARK    7  A    between atoms: C_13  and  C_15
REMARK    8  A    between atoms: C_18  and  C_19
REMARK                            x       y       z     vdW  Elec       q    Type
REMARK                         _______ _______ _______ _____ _____    ______ ____
ROOT
ATOM      4  N   UNL     1      -2.438   4.219  25.599  0.00  0.00    -0.297 NA
ATOM      9  C   UNL     1      -0.566   2.818  25.417  0.00  0.00    +0.092 C 
ATOM     10  C   UNL     1      -0.161   4.264  25.084  0.00  0.00    +0.029 C 
ATOM     11  C   UNL     1      -2.099   2.817  25.344  0.00  0.00    +0.097 C 
ATOM     12  C   UNL     1      -1.473   4.988  24.813  0.00  0.00    +0.085 C 
ENDROOT
BRANCH   9  14
ATOM      1  O   UNL     1       1.426   1.681  24.559  0.00  0.00    -0.420 OA
ATOM      5  N   UNL     1      -0.501   0.888  23.743  0.00  0.00    -0.112 NA
ATOM      6  N   UNL     1       0.533   0.162  23.180  0.00  0.00    -0.107 NA
ATOM     14  C   UNL     1       0.067   1.762  24.541  0.00  0.00    +0.222 A 
ATOM     18  C   UNL     1       1.638   0.660  23.684  0.00  0.00    +0.248 A 
BRANCH  18  19
ATOM     19  C   UNL     1       3.008   0.299  23.461  0.00  0.00    +0.039 A 
ATOM     23  C   UNL     1       3.884   1.216  22.880  0.00  0.00    +0.015 A 
ATOM     24  C   UNL     1       3.464  -0.968  23.825  0.00  0.00    +0.015 A 
ATOM     25  C   UNL     1       5.673  -0.402  23.027  0.00  0.00    +0.029 A 
ATOM     26  C   UNL     1       5.217   0.865  22.663  0.00  0.00    +0.024 A 
ATOM     27  C   UNL     1       4.796  -1.318  23.608  0.00  0.00    +0.024 A 
BRANCH  25   8
ATOM      8  N   UNL     1       7.020  -0.757  22.807  0.00  0.00    -0.336 N 
ATOM     28  C   UNL     1       7.352  -1.918  22.004  0.00  0.00    +0.129 C 
ATOM     29  C   UNL     1       8.090   0.040  23.373  0.00  0.00    +0.129 C 
ENDBRANCH  25   8
ENDBRANCH  18  19
ENDBRANCH   9  14
BRANCH   4  13
ATOM     13  C   UNL     1      -3.815   4.530  25.245  0.00  0.00    +0.121 C 
BRANCH  13  15
ATOM     15  C   UNL     1      -4.688   3.304  25.262  0.00  0.00    -0.003 A 
ATOM     16  C   UNL     1      -4.713   2.415  24.187  0.00  0.00    +0.131 A 
ATOM     17  C   UNL     1      -5.484   3.064  26.383  0.00  0.00    +0.007 A 
ATOM     20  C   UNL     1      -5.533   1.287  24.233  0.00  0.00    +0.033 A 
ATOM     21  C   UNL     1      -6.303   1.937  26.428  0.00  0.00    +0.000 A 
ATOM     22  C   UNL     1      -6.328   1.048  25.354  0.00  0.00    +0.002 A 
BRANCH  16   7
ATOM      2  O   UNL     1      -3.995   3.741  22.442  0.00  0.00    -0.126 OA
ATOM      3  O   UNL     1      -3.144   1.728  22.643  0.00  0.00    -0.126 OA
ATOM      7  N   UNL     1      -3.911   2.639  23.034  0.00  0.00    +0.057 N 
ENDBRANCH  16   7
ENDBRANCH  13  15
ENDBRANCH   4  13
TORSDOF 6
ENDMDL
MODEL 5
REMARK VINA RESULT:       6.6      2.359      3.790
REMARK  Name = 51137545
REMARK  8 active torsions:
REMARK  status: ('A' for Active; 'I' for Inactive)
REMARK    1  A    between atoms: N_4  and  C_13
REMARK    2  A    between atoms: N_7  and  C_16
REMARK    3  A    between atoms: N_8  and  C_25
REMARK    4  A    between atoms: N_8  and  C_28
REMARK    5  A    between atoms: N_8  and  C_29
REMARK    6  A    between atoms: C_9  and  C_14
REMARK    7  A    between atoms: C_13  and  C_15
REMARK    8  A    between atoms: C_18  and  C_19
REMARK                            x       y       z     vdW  Elec       q    Type
REMARK                         _______ _______ _______ _____ _____    ______ ____
ROOT
ATOM      4  N   UNL     1      -3.340  -0.800  24.714  0.00  0.00    -0.297 NA
ATOM      9  C   UNL     1      -1.122  -0.826  23.955  0.00  0.00    +0.092 C 
ATOM     10  C   UNL     1      -1.212  -1.556  25.306  0.00  0.00    +0.029 C 
ATOM     11  C   UNL     1      -2.435  -0.040  23.850  0.00  0.00    +0.097 C 
ATOM     12  C   UNL     1      -2.546  -1.123  25.899  0.00  0.00    +0.085 C 
ENDROOT
BRANCH   9  14
ATOM      1  O   UNL     1       1.295  -0.595  23.635  0.00  0.00    -0.420 OA
ATOM      5  N   UNL     1       0.199   1.352  23.752  0.00  0.00    -0.112 NA
ATOM      6  N   UNL     1       1.543   1.627  23.571  0.00  0.00    -0.107 NA
ATOM     14  C   UNL     1       0.102   0.044  23.782  0.00  0.00    +0.222 A 
ATOM     18  C   UNL     1       2.143   0.462  23.509  0.00  0.00    +0.248 A 
BRANCH  18  19
ATOM     19  C   UNL     1       3.528   0.137  23.332  0.00  0.00    +0.039 A 
ATOM     23  C   UNL     1       4.386   1.050  22.718  0.00  0.00    +0.015 A 
ATOM     24  C   UNL     1       4.018  -1.092  23.775  0.00  0.00    +0.015 A 
ATOM     25  C   UNL     1       6.224  -0.496  22.988  0.00  0.00    +0.029 A 
ATOM     26  C   UNL     1       5.733   0.733  22.546  0.00  0.00    +0.024 A 
ATOM     27  C   UNL     1       5.366  -1.408  23.602  0.00  0.00    +0.024 A 
BRANCH  25   8
ATOM      8  N   UNL     1       7.586  -0.815  22.813  0.00  0.00    -0.336 N 
ATOM     28  C   UNL     1       7.974  -1.969  22.025  0.00  0.00    +0.129 C 
ATOM     29  C   UNL     1       8.616   0.010  23.413  0.00  0.00    +0.129 C 
ENDBRANCH  25   8
ENDBRANCH  18  19
ENDBRANCH   9  14
BRANCH   4  13
ATOM     13  C   UNL     1      -4.549  -0.058  25.042  0.00  0.00    +0.121 C 
BRANCH  13  15
ATOM     15  C   UNL     1      -4.277   1.415  25.194  0.00  0.00    -0.003 A 
ATOM     16  C   UNL     1      -5.306   2.319  25.459  0.00  0.00    +0.131 A 
ATOM     17  C   UNL     1      -2.965   1.871  25.065  0.00  0.00    +0.007 A 
ATOM     20  C   UNL     1      -5.023   3.678  25.595  0.00  0.00    +0.033 A 
ATOM     21  C   UNL     1      -2.682   3.230  25.201  0.00  0.00    +0.000 A 
ATOM     22  C   UNL     1      -3.711   4.134  25.465  0.00  0.00    +0.002 A 
BRANCH  16   7
ATOM      2  O   UNL     1      -7.376   1.821  24.572  0.00  0.00    -0.126 OA
ATOM      3  O   UNL     1      -7.074   1.558  26.730  0.00  0.00    -0.126 OA
ATOM      7  N   UNL     1      -6.651   1.878  25.594  0.00  0.00    +0.057 N 
ENDBRANCH  16   7
ENDBRANCH  13  15
ENDBRANCH   4  13
TORSDOF 6
ENDMDL
