MODEL 1
REMARK VINA RESULT:      -2.7      0.000      0.000
REMARK  Name = 45784160
REMARK  11 active torsions:
REMARK  status: ('A' for Active; 'I' for Inactive)
REMARK    1  A    between atoms: N_3  and  C_13
REMARK    2  A    between atoms: N_6  and  C_29
REMARK    3  A    between atoms: C_8  and  C_12
REMARK    4  A    between atoms: C_9  and  C_13
REMARK    5  A    between atoms: C_11  and  C_19
REMARK    6  A    between atoms: C_12  and  C_21
REMARK    7  A    between atoms: C_12  and  C_22
REMARK    8  A    between atoms: C_14  and  C_23
REMARK    9  A    between atoms: C_15  and  C_20
REMARK   10  A    between atoms: C_19  and  C_24
REMARK   11  A    between atoms: C_25  and  C_26
REMARK                            x       y       z     vdW  Elec       q    Type
REMARK                         _______ _______ _______ _____ _____    ______ ____
ROOT
ATOM      8  C   UNL     1      -3.800   2.601  25.005  0.00  0.00    +0.000 C 
ATOM      9  C   UNL     1      -3.460   2.864  23.517  0.00  0.00    +0.032 C 
ATOM     10  C   UNL     1      -3.391   3.802  25.871  0.00  0.00    +0.012 C 
ATOM     11  C   UNL     1      -1.886   4.112  25.761  0.00  0.00    +0.024 C 
ATOM     14  C   UNL     1      -1.417   4.124  24.321  0.00  0.00    -0.073 C 
ATOM     16  C   UNL     1      -2.140   3.573  23.330  0.00  0.00    -0.022 C 
ATOM     23  C   UNL     1      -0.117   4.825  24.037  0.00  0.00    +0.039 C 
ENDROOT
BRANCH   8  12
ATOM     12  C   UNL     1      -5.290   2.302  25.205  0.00  0.00    -0.013 C 
ATOM     21  C   UNL     1      -5.474   1.097  26.121  0.00  0.00    +0.007 C 
ATOM     22  C   UNL     1      -6.007   3.525  25.768  0.00  0.00    +0.007 C 
ENDBRANCH   8  12
BRANCH   9  13
ATOM     13  C   UNL     1      -3.460   1.561  22.711  0.00  0.00    +0.112 C 
BRANCH  13   3
ATOM      1  O   UNL     1      -4.717  -0.961  23.428  0.00  0.00    -0.276 OA
ATOM      3  N   UNL     1      -2.896   0.492  23.474  0.00  0.00    -0.315 N 
ATOM     20  C   UNL     1      -3.574  -0.685  23.771  0.00  0.00    +0.216 C 
ATOM     30  H   UNL     1      -1.930   0.578  23.779  0.00  0.00    +0.149 HD
BRANCH  20  15
ATOM     15  C   UNL     1      -2.790  -1.665  24.580  0.00  0.00    +0.075 C 
ATOM     17  C   UNL     1      -3.234  -1.976  25.979  0.00  0.00    +0.013 C 
ATOM     18  C   UNL     1      -3.395  -3.002  24.896  0.00  0.00    +0.013 C 
ENDBRANCH  20  15
ENDBRANCH  13   3
ENDBRANCH   9  13
BRANCH  11  19
ATOM     19  C   UNL     1      -1.057   3.132  26.600  0.00  0.00    +0.105 C 
BRANCH  19  24
ATOM      2  O   UNL     1       0.551   2.251  24.992  0.00  0.00    -0.419 OA
ATOM      4  N   UNL     1      -0.983   0.767  25.659  0.00  0.00    -0.112 NA
ATOM      5  N   UNL     1      -0.145   0.138  24.757  0.00  0.00    -0.106 NA
ATOM     24  C   UNL     1      -0.539   1.997  25.765  0.00  0.00    +0.218 A 
ATOM     25  C   UNL     1       0.735   1.042  24.394  0.00  0.00    +0.266 A 
BRANCH  25  26
ATOM      6  N   UNL     1       1.660  -0.010  22.362  0.00  0.00    -0.329 N 
ATOM      7  N   UNL     1       3.750   0.740  22.356  0.00  0.00    -0.243 NA
ATOM     26  C   UNL     1       1.776   0.786  23.468  0.00  0.00    +0.125 A 
ATOM     27  C   UNL     1       3.074   1.236  23.442  0.00  0.00    +0.143 A 
ATOM     28  C   UNL     1       2.869  -0.007  21.727  0.00  0.00    +0.199 A 
ATOM     29  C   UNL     1       0.487  -0.731  21.923  0.00  0.00    +0.150 C 
ENDBRANCH  25  26
ENDBRANCH  19  24
ENDBRANCH  11  19
TORSDOF 7
ENDMDL
MODEL 2
REMARK VINA RESULT:      -1.9      2.176      4.599
REMARK  Name = 45784160
REMARK  11 active torsions:
REMARK  status: ('A' for Active; 'I' for Inactive)
REMARK    1  A    between atoms: N_3  and  C_13
REMARK    2  A    between atoms: N_6  and  C_29
REMARK    3  A    between atoms: C_8  and  C_12
REMARK    4  A    between atoms: C_9  and  C_13
REMARK    5  A    between atoms: C_11  and  C_19
REMARK    6  A    between atoms: C_12  and  C_21
REMARK    7  A    between atoms: C_12  and  C_22
REMARK    8  A    between atoms: C_14  and  C_23
REMARK    9  A    between atoms: C_15  and  C_20
REMARK   10  A    between atoms: C_19  and  C_24
REMARK   11  A    between atoms: C_25  and  C_26
REMARK                            x       y       z     vdW  Elec       q    Type
REMARK                         _______ _______ _______ _____ _____    ______ ____
ROOT
ATOM      8  C   UNL     1      -3.136  -1.272  24.413  0.00  0.00    +0.000 C 
ATOM      9  C   UNL     1      -3.534  -0.265  25.522  0.00  0.00    +0.032 C 
ATOM     10  C   UNL     1      -1.647  -1.630  24.523  0.00  0.00    +0.012 C 
ATOM     11  C   UNL     1      -0.739  -0.391  24.407  0.00  0.00    +0.024 C 
ATOM     14  C   UNL     1      -1.227   0.748  25.278  0.00  0.00    -0.073 C 
ATOM     16  C   UNL     1      -2.475   0.781  25.778  0.00  0.00    -0.022 C 
ATOM     23  C   UNL     1      -0.233   1.830  25.599  0.00  0.00    +0.039 C 
ENDROOT
BRANCH   8  12
ATOM     12  C   UNL     1      -3.982  -2.548  24.472  0.00  0.00    -0.013 C 
ATOM     21  C   UNL     1      -4.402  -2.974  23.069  0.00  0.00    +0.007 C 
ATOM     22  C   UNL     1      -3.213  -3.665  25.170  0.00  0.00    +0.007 C 
ENDBRANCH   8  12
BRANCH   9  13
ATOM     13  C   UNL     1      -4.864   0.423  25.193  0.00  0.00    +0.112 C 
BRANCH  13   3
ATOM      1  O   UNL     1      -5.926   2.656  26.722  0.00  0.00    -0.276 OA
ATOM      3  N   UNL     1      -4.667   1.818  24.949  0.00  0.00    -0.315 N 
ATOM     20  C   UNL     1      -5.217   2.822  25.737  0.00  0.00    +0.216 C 
ATOM     30  H   UNL     1      -4.056   2.090  24.184  0.00  0.00    +0.149 HD
BRANCH  20  15
ATOM     15  C   UNL     1      -4.878   4.210  25.299  0.00  0.00    +0.075 C 
ATOM     17  C   UNL     1      -3.534   4.777  25.649  0.00  0.00    +0.013 C 
ATOM     18  C   UNL     1      -3.845   4.407  24.229  0.00  0.00    +0.013 C 
ENDBRANCH  20  15
ENDBRANCH  13   3
ENDBRANCH   9  13
BRANCH  11  19
ATOM     19  C   UNL     1      -0.598   0.055  22.947  0.00  0.00    +0.105 C 
BRANCH  19  24
ATOM      2  O   UNL     1       1.794   0.125  23.420  0.00  0.00    -0.419 OA
ATOM      4  N   UNL     1       1.296  -0.270  21.275  0.00  0.00    -0.112 NA
ATOM      5  N   UNL     1       2.673  -0.257  21.398  0.00  0.00    -0.106 NA
ATOM     24  C   UNL     1       0.825  -0.043  22.478  0.00  0.00    +0.218 A 
ATOM     25  C   UNL     1       2.919  -0.024  22.666  0.00  0.00    +0.266 A 
BRANCH  25  26
ATOM      6  N   UNL     1       4.900  -0.962  23.798  0.00  0.00    -0.329 N 
ATOM      7  N   UNL     1       6.272   0.783  23.865  0.00  0.00    -0.243 NA
ATOM     26  C   UNL     1       4.227   0.067  23.200  0.00  0.00    +0.125 A 
ATOM     27  C   UNL     1       5.094   1.132  23.254  0.00  0.00    +0.143 A 
ATOM     28  C   UNL     1       6.122  -0.485  24.180  0.00  0.00    +0.199 A 
ATOM     29  C   UNL     1       4.429  -2.313  24.000  0.00  0.00    +0.150 C 
ENDBRANCH  25  26
ENDBRANCH  19  24
ENDBRANCH  11  19
TORSDOF 7
ENDMDL
MODEL 3
REMARK VINA RESULT:      -1.8      2.295      6.446
REMARK  Name = 45784160
REMARK  11 active torsions:
REMARK  status: ('A' for Active; 'I' for Inactive)
REMARK    1  A    between atoms: N_3  and  C_13
REMARK    2  A    between atoms: N_6  and  C_29
REMARK    3  A    between atoms: C_8  and  C_12
REMARK    4  A    between atoms: C_9  and  C_13
REMARK    5  A    between atoms: C_11  and  C_19
REMARK    6  A    between atoms: C_12  and  C_21
REMARK    7  A    between atoms: C_12  and  C_22
REMARK    8  A    between atoms: C_14  and  C_23
REMARK    9  A    between atoms: C_15  and  C_20
REMARK   10  A    between atoms: C_19  and  C_24
REMARK   11  A    between atoms: C_25  and  C_26
REMARK                            x       y       z     vdW  Elec       q    Type
REMARK                         _______ _______ _______ _____ _____    ______ ____
ROOT
ATOM      8  C   UNL     1      -0.807   0.488  24.533  0.00  0.00    +0.000 C 
ATOM      9  C   UNL     1       0.132  -0.653  24.066  0.00  0.00    +0.032 C 
ATOM     10  C   UNL     1      -1.769  -0.018  25.617  0.00  0.00    +0.012 C 
ATOM     11  C   UNL     1      -2.636  -1.192  25.125  0.00  0.00    +0.024 C 
ATOM     14  C   UNL     1      -1.809  -2.241  24.411  0.00  0.00    -0.073 C 
ATOM     16  C   UNL     1      -0.569  -1.986  23.957  0.00  0.00    -0.022 C 
ATOM     23  C   UNL     1      -2.423  -3.607  24.270  0.00  0.00    +0.039 C 
ENDROOT
BRANCH   8  12
ATOM     12  C   UNL     1      -0.020   1.693  25.059  0.00  0.00    -0.013 C 
ATOM     21  C   UNL     1      -0.210   2.896  24.141  0.00  0.00    +0.007 C 
ATOM     22  C   UNL     1      -0.447   2.027  26.485  0.00  0.00    +0.007 C 
ENDBRANCH   8  12
BRANCH   9  13
ATOM     13  C   UNL     1       0.794  -0.312  22.727  0.00  0.00    +0.112 C 
BRANCH  13   3
ATOM      1  O   UNL     1       2.882   1.694  23.004  0.00  0.00    -0.276 OA
ATOM      3  N   UNL     1       2.206  -0.526  22.790  0.00  0.00    -0.315 N 
ATOM     20  C   UNL     1       3.137   0.498  22.923  0.00  0.00    +0.216 C 
ATOM     30  H   UNL     1       2.547  -1.484  22.780  0.00  0.00    +0.149 HD
BRANCH  20  15
ATOM     15  C   UNL     1       4.558   0.043  22.969  0.00  0.00    +0.075 C 
ATOM     17  C   UNL     1       5.407   0.422  24.148  0.00  0.00    +0.013 C 
ATOM     18  C   UNL     1       4.960  -1.000  23.970  0.00  0.00    +0.013 C 
ENDBRANCH  20  15
ENDBRANCH  13   3
ENDBRANCH   9  13
BRANCH  11  19
ATOM     19  C   UNL     1      -3.783  -0.697  24.236  0.00  0.00    +0.105 C 
BRANCH  19  24
ATOM      2  O   UNL     1      -3.263   1.685  24.314  0.00  0.00    -0.419 OA
ATOM      4  N   UNL     1      -5.286   1.163  25.112  0.00  0.00    -0.112 NA
ATOM      5  N   UNL     1      -5.127   2.532  25.217  0.00  0.00    -0.106 NA
ATOM     24  C   UNL     1      -4.176   0.711  24.580  0.00  0.00    +0.218 A 
ATOM     25  C   UNL     1      -3.932   2.792  24.739  0.00  0.00    +0.266 A 
BRANCH  25  26
ATOM      6  N   UNL     1      -2.801   4.754  25.720  0.00  0.00    -0.329 N 
ATOM      7  N   UNL     1      -2.702   6.149  23.994  0.00  0.00    -0.243 NA
ATOM     26  C   UNL     1      -3.389   4.098  24.674  0.00  0.00    +0.125 A 
ATOM     27  C   UNL     1      -3.315   4.980  23.621  0.00  0.00    +0.143 A 
ATOM     28  C   UNL     1      -2.406   5.980  25.264  0.00  0.00    +0.199 A 
ATOM     29  C   UNL     1      -2.620   4.264  27.067  0.00  0.00    +0.150 C 
ENDBRANCH  25  26
ENDBRANCH  19  24
ENDBRANCH  11  19
TORSDOF 7
ENDMDL
MODEL 4
REMARK VINA RESULT:      -1.5      1.846      3.197
REMARK  Name = 45784160
REMARK  11 active torsions:
REMARK  status: ('A' for Active; 'I' for Inactive)
REMARK    1  A    between atoms: N_3  and  C_13
REMARK    2  A    between atoms: N_6  and  C_29
REMARK    3  A    between atoms: C_8  and  C_12
REMARK    4  A    between atoms: C_9  and  C_13
REMARK    5  A    between atoms: C_11  and  C_19
REMARK    6  A    between atoms: C_12  and  C_21
REMARK    7  A    between atoms: C_12  and  C_22
REMARK    8  A    between atoms: C_14  and  C_23
REMARK    9  A    between atoms: C_15  and  C_20
REMARK   10  A    between atoms: C_19  and  C_24
REMARK   11  A    between atoms: C_25  and  C_26
REMARK                            x       y       z     vdW  Elec       q    Type
REMARK                         _______ _______ _______ _____ _____    ______ ____
ROOT
ATOM      8  C   UNL     1      -2.384   3.144  25.010  0.00  0.00    +0.000 C 
ATOM      9  C   UNL     1      -3.696   3.243  24.192  0.00  0.00    +0.032 C 
ATOM     10  C   UNL     1      -1.164   3.254  24.084  0.00  0.00    +0.012 C 
ATOM     11  C   UNL     1      -1.151   2.154  23.005  0.00  0.00    +0.024 C 
ATOM     14  C   UNL     1      -2.501   2.008  22.333  0.00  0.00    -0.073 C 
ATOM     16  C   UNL     1      -3.625   2.513  22.872  0.00  0.00    -0.022 C 
ATOM     23  C   UNL     1      -2.523   1.308  21.003  0.00  0.00    +0.039 C 
ENDROOT
BRANCH   8  12
ATOM     12  C   UNL     1      -2.309   4.222  26.097  0.00  0.00    -0.013 C 
ATOM     21  C   UNL     1      -2.047   5.589  25.473  0.00  0.00    +0.007 C 
ATOM     22  C   UNL     1      -3.592   4.239  26.920  0.00  0.00    +0.007 C 
ENDBRANCH   8  12
BRANCH   9  13
ATOM     13  C   UNL     1      -4.891   2.724  24.999  0.00  0.00    +0.112 C 
BRANCH  13   3
ATOM      1  O   UNL     1      -3.138   0.521  25.727  0.00  0.00    -0.276 OA
ATOM      3  N   UNL     1      -5.099   1.330  24.761  0.00  0.00    -0.315 N 
ATOM     20  C   UNL     1      -4.202   0.340  25.145  0.00  0.00    +0.216 C 
ATOM     30  H   UNL     1      -5.971   1.042  24.325  0.00  0.00    +0.149 HD
BRANCH  20  15
ATOM     15  C   UNL     1      -4.623  -1.049  24.796  0.00  0.00    +0.075 C 
ATOM     17  C   UNL     1      -4.022  -1.712  23.590  0.00  0.00    +0.013 C 
ATOM     18  C   UNL     1      -3.646  -2.175  24.967  0.00  0.00    +0.013 C 
ENDBRANCH  20  15
ENDBRANCH  13   3
ENDBRANCH   9  13
BRANCH  11  19
ATOM     19  C   UNL     1      -0.680   0.816  23.587  0.00  0.00    +0.105 C 
BRANCH  19  24
ATOM      2  O   UNL     1       1.746   0.613  23.743  0.00  0.00    -0.419 OA
ATOM      4  N   UNL     1       0.882  -0.173  21.836  0.00  0.00    -0.112 NA
ATOM      5  N   UNL     1       2.252  -0.350  21.788  0.00  0.00    -0.106 NA
ATOM     24  C   UNL     1       0.632   0.391  22.993  0.00  0.00    +0.218 A 
ATOM     25  C   UNL     1       2.715   0.123  22.921  0.00  0.00    +0.266 A 
BRANCH  25  26
ATOM      6  N   UNL     1       4.777  -0.952  23.746  0.00  0.00    -0.329 N 
ATOM      7  N   UNL     1       6.252   0.704  23.621  0.00  0.00    -0.243 NA
ATOM     26  C   UNL     1       4.090   0.125  23.260  0.00  0.00    +0.125 A 
ATOM     27  C   UNL     1       5.022   1.134  23.192  0.00  0.00    +0.143 A 
ATOM     28  C   UNL     1       6.070  -0.557  23.948  0.00  0.00    +0.199 A 
ATOM     29  C   UNL     1       4.258  -2.275  24.007  0.00  0.00    +0.150 C 
ENDBRANCH  25  26
ENDBRANCH  19  24
ENDBRANCH  11  19
TORSDOF 7
ENDMDL
MODEL 5
REMARK VINA RESULT:      -1.2      2.249      6.773
REMARK  Name = 45784160
REMARK  11 active torsions:
REMARK  status: ('A' for Active; 'I' for Inactive)
REMARK    1  A    between atoms: N_3  and  C_13
REMARK    2  A    between atoms: N_6  and  C_29
REMARK    3  A    between atoms: C_8  and  C_12
REMARK    4  A    between atoms: C_9  and  C_13
REMARK    5  A    between atoms: C_11  and  C_19
REMARK    6  A    between atoms: C_12  and  C_21
REMARK    7  A    between atoms: C_12  and  C_22
REMARK    8  A    between atoms: C_14  and  C_23
REMARK    9  A    between atoms: C_15  and  C_20
REMARK   10  A    between atoms: C_19  and  C_24
REMARK   11  A    between atoms: C_25  and  C_26
REMARK                            x       y       z     vdW  Elec       q    Type
REMARK                         _______ _______ _______ _____ _____    ______ ____
ROOT
ATOM      8  C   UNL     1      -1.156   0.980  25.167  0.00  0.00    +0.000 C 
ATOM      9  C   UNL     1       0.195   0.425  24.649  0.00  0.00    +0.032 C 
ATOM     10  C   UNL     1      -1.870  -0.069  26.033  0.00  0.00    +0.012 C 
ATOM     11  C   UNL     1      -2.142  -1.374  25.262  0.00  0.00    +0.024 C 
ATOM     14  C   UNL     1      -0.919  -1.844  24.501  0.00  0.00    -0.073 C 
ATOM     16  C   UNL     1       0.121  -1.029  24.249  0.00  0.00    -0.022 C 
ATOM     23  C   UNL     1      -0.898  -3.286  24.076  0.00  0.00    +0.039 C 
ENDROOT
BRANCH   8  12
ATOM     12  C   UNL     1      -0.970   2.273  25.967  0.00  0.00    -0.013 C 
ATOM     21  C   UNL     1       0.407   2.301  26.623  0.00  0.00    +0.007 C 
ATOM     22  C   UNL     1      -1.167   3.489  25.067  0.00  0.00    +0.007 C 
ENDBRANCH   8  12
BRANCH   9  13
ATOM     13  C   UNL     1       0.718   1.254  23.472  0.00  0.00    +0.112 C 
BRANCH  13   3
ATOM      1  O   UNL     1       2.648  -0.281  21.930  0.00  0.00    -0.276 OA
ATOM      3  N   UNL     1       2.144   1.352  23.514  0.00  0.00    -0.315 N 
ATOM     20  C   UNL     1       2.994   0.574  22.737  0.00  0.00    +0.216 C 
ATOM     30  H   UNL     1       2.558   2.062  24.113  0.00  0.00    +0.149 HD
BRANCH  20  15
ATOM     15  C   UNL     1       4.447   0.847  22.942  0.00  0.00    +0.075 C 
ATOM     17  C   UNL     1       5.082   0.468  24.248  0.00  0.00    +0.013 C 
ATOM     18  C   UNL     1       5.406  -0.306  23.004  0.00  0.00    +0.013 C 
ENDBRANCH  20  15
ENDBRANCH  13   3
ENDBRANCH   9  13
BRANCH  11  19
ATOM     19  C   UNL     1      -3.346  -1.221  24.325  0.00  0.00    +0.105 C 
BRANCH  19  24
ATOM      2  O   UNL     1      -4.350   0.923  24.912  0.00  0.00    -0.419 OA
ATOM      4  N   UNL     1      -3.243   0.932  22.969  0.00  0.00    -0.112 NA
ATOM      5  N   UNL     1      -3.756   2.200  23.174  0.00  0.00    -0.106 NA
ATOM     24  C   UNL     1      -3.614   0.222  24.007  0.00  0.00    +0.218 A 
ATOM     25  C   UNL     1      -4.394   2.148  24.320  0.00  0.00    +0.266 A 
BRANCH  25  26
ATOM      6  N   UNL     1      -6.052   3.177  25.830  0.00  0.00    -0.329 N 
ATOM      7  N   UNL     1      -5.775   5.343  25.425  0.00  0.00    -0.243 NA
ATOM     26  C   UNL     1      -5.066   3.259  24.886  0.00  0.00    +0.125 A 
ATOM     27  C   UNL     1      -4.914   4.605  24.653  0.00  0.00    +0.143 A 
ATOM     28  C   UNL     1      -6.446   4.452  26.122  0.00  0.00    +0.199 A 
ATOM     29  C   UNL     1      -6.595   1.978  26.425  0.00  0.00    +0.150 C 
ENDBRANCH  25  26
ENDBRANCH  19  24
ENDBRANCH  11  19
TORSDOF 7
ENDMDL
MODEL 6
REMARK VINA RESULT:      -1.1      1.746      4.861
REMARK  Name = 45784160
REMARK  11 active torsions:
REMARK  status: ('A' for Active; 'I' for Inactive)
REMARK    1  A    between atoms: N_3  and  C_13
REMARK    2  A    between atoms: N_6  and  C_29
REMARK    3  A    between atoms: C_8  and  C_12
REMARK    4  A    between atoms: C_9  and  C_13
REMARK    5  A    between atoms: C_11  and  C_19
REMARK    6  A    between atoms: C_12  and  C_21
REMARK    7  A    between atoms: C_12  and  C_22
REMARK    8  A    between atoms: C_14  and  C_23
REMARK    9  A    between atoms: C_15  and  C_20
REMARK   10  A    between atoms: C_19  and  C_24
REMARK   11  A    between atoms: C_25  and  C_26
REMARK                            x       y       z     vdW  Elec       q    Type
REMARK                         _______ _______ _______ _____ _____    ______ ____
ROOT
ATOM      8  C   UNL     1      -2.592   2.475  23.749  0.00  0.00    +0.000 C 
ATOM      9  C   UNL     1      -1.354   2.949  24.551  0.00  0.00    +0.032 C 
ATOM     10  C   UNL     1      -3.686   3.553  23.763  0.00  0.00    +0.012 C 
ATOM     11  C   UNL     1      -4.137   3.906  25.193  0.00  0.00    +0.024 C 
ATOM     14  C   UNL     1      -2.958   4.127  26.117  0.00  0.00    -0.073 C 
ATOM     16  C   UNL     1      -1.719   3.704  25.808  0.00  0.00    -0.022 C 
ATOM     23  C   UNL     1      -3.224   4.886  27.388  0.00  0.00    +0.039 C 
ENDROOT
BRANCH   8  12
ATOM     12  C   UNL     1      -2.231   2.122  22.302  0.00  0.00    -0.013 C 
ATOM     21  C   UNL     1      -2.334   0.617  22.080  0.00  0.00    +0.007 C 
ATOM     22  C   UNL     1      -3.133   2.876  21.329  0.00  0.00    +0.007 C 
ENDBRANCH   8  12
BRANCH   9  13
ATOM     13  C   UNL     1      -0.443   1.770  24.909  0.00  0.00    +0.112 C 
BRANCH  13   3
ATOM      1  O   UNL     1       0.874  -0.145  23.161  0.00  0.00    -0.276 OA
ATOM      3  N   UNL     1       0.831   1.903  24.273  0.00  0.00    -0.315 N 
ATOM     20  C   UNL     1       1.386   0.930  23.450  0.00  0.00    +0.216 C 
ATOM     30  H   UNL     1       1.340   2.774  24.396  0.00  0.00    +0.149 HD
BRANCH  20  15
ATOM     15  C   UNL     1       2.726   1.281  22.891  0.00  0.00    +0.075 C 
ATOM     17  C   UNL     1       3.923   0.478  23.310  0.00  0.00    +0.013 C 
ATOM     18  C   UNL     1       3.380   0.346  21.917  0.00  0.00    +0.013 C 
ENDBRANCH  20  15
ENDBRANCH  13   3
ENDBRANCH   9  13
BRANCH  11  19
ATOM     19  C   UNL     1      -5.082   2.837  25.754  0.00  0.00    +0.105 C 
BRANCH  19  24
ATOM      2  O   UNL     1      -3.529   0.959  25.639  0.00  0.00    -0.419 OA
ATOM      4  N   UNL     1      -5.405   0.669  24.456  0.00  0.00    -0.112 NA
ATOM      5  N   UNL     1      -4.625  -0.462  24.302  0.00  0.00    -0.106 NA
ATOM     24  C   UNL     1      -4.727   1.469  25.244  0.00  0.00    +0.218 A 
ATOM     25  C   UNL     1      -3.540  -0.249  25.009  0.00  0.00    +0.266 A 
BRANCH  25  26
ATOM      6  N   UNL     1      -2.534  -2.476  24.666  0.00  0.00    -0.329 N 
ATOM      7  N   UNL     1      -0.503  -2.211  25.526  0.00  0.00    -0.243 NA
ATOM     26  C   UNL     1      -2.480  -1.183  25.108  0.00  0.00    +0.125 A 
ATOM     27  C   UNL     1      -1.218  -1.045  25.635  0.00  0.00    +0.143 A 
ATOM     28  C   UNL     1      -1.326  -3.052  24.938  0.00  0.00    +0.199 A 
ATOM     29  C   UNL     1      -3.649  -3.134  24.025  0.00  0.00    +0.150 C 
ENDBRANCH  25  26
ENDBRANCH  19  24
ENDBRANCH  11  19
TORSDOF 7
ENDMDL
MODEL 7
REMARK VINA RESULT:      -0.3      2.027      4.690
REMARK  Name = 45784160
REMARK  11 active torsions:
REMARK  status: ('A' for Active; 'I' for Inactive)
REMARK    1  A    between atoms: N_3  and  C_13
REMARK    2  A    between atoms: N_6  and  C_29
REMARK    3  A    between atoms: C_8  and  C_12
REMARK    4  A    between atoms: C_9  and  C_13
REMARK    5  A    between atoms: C_11  and  C_19
REMARK    6  A    between atoms: C_12  and  C_21
REMARK    7  A    between atoms: C_12  and  C_22
REMARK    8  A    between atoms: C_14  and  C_23
REMARK    9  A    between atoms: C_15  and  C_20
REMARK   10  A    between atoms: C_19  and  C_24
REMARK   11  A    between atoms: C_25  and  C_26
REMARK                            x       y       z     vdW  Elec       q    Type
REMARK                         _______ _______ _______ _____ _____    ______ ____
ROOT
ATOM      8  C   UNL     1      -2.963   1.144  23.768  0.00  0.00    +0.000 C 
ATOM      9  C   UNL     1      -4.331   0.811  24.415  0.00  0.00    +0.032 C 
ATOM     10  C   UNL     1      -2.465  -0.041  22.927  0.00  0.00    +0.012 C 
ATOM     11  C   UNL     1      -2.309  -1.325  23.764  0.00  0.00    +0.024 C 
ATOM     14  C   UNL     1      -3.520  -1.577  24.638  0.00  0.00    -0.073 C 
ATOM     16  C   UNL     1      -4.420  -0.614  24.907  0.00  0.00    -0.022 C 
ATOM     23  C   UNL     1      -3.699  -2.976  25.161  0.00  0.00    +0.039 C 
ENDROOT
BRANCH   8  12
ATOM     12  C   UNL     1      -3.037   2.402  22.897  0.00  0.00    -0.013 C 
ATOM     21  C   UNL     1      -2.416   2.141  21.529  0.00  0.00    +0.007 C 
ATOM     22  C   UNL     1      -4.483   2.867  22.755  0.00  0.00    +0.007 C 
ENDBRANCH   8  12
BRANCH   9  13
ATOM     13  C   UNL     1      -4.645   1.770  25.568  0.00  0.00    +0.112 C 
BRANCH  13   3
ATOM      1  O   UNL     1      -4.491   4.669  25.384  0.00  0.00    -0.276 OA
ATOM      3  N   UNL     1      -3.520   2.604  25.856  0.00  0.00    -0.315 N 
ATOM     20  C   UNL     1      -3.536   3.989  25.739  0.00  0.00    +0.216 C 
ATOM     30  H   UNL     1      -2.674   2.162  26.208  0.00  0.00    +0.149 HD
BRANCH  20  15
ATOM     15  C   UNL     1      -2.248   4.657  26.094  0.00  0.00    +0.075 C 
ATOM     17  C   UNL     1      -0.977   4.172  25.460  0.00  0.00    +0.013 C 
ATOM     18  C   UNL     1      -1.554   5.500  25.066  0.00  0.00    +0.013 C 
ENDBRANCH  20  15
ENDBRANCH  13   3
ENDBRANCH   9  13
BRANCH  11  19
ATOM     19  C   UNL     1      -1.026  -1.285  24.602  0.00  0.00    +0.105 C 
BRANCH  19  24
ATOM      2  O   UNL     1       1.386  -1.048  24.325  0.00  0.00    -0.419 OA
ATOM      4  N   UNL     1       0.189  -0.317  22.584  0.00  0.00    -0.112 NA
ATOM      5  N   UNL     1       1.526  -0.123  22.293  0.00  0.00    -0.106 NA
ATOM     24  C   UNL     1       0.155  -0.859  23.778  0.00  0.00    +0.218 A 
ATOM     25  C   UNL     1       2.189  -0.564  23.337  0.00  0.00    +0.266 A 
BRANCH  25  26
ATOM      6  N   UNL     1       4.391   0.505  23.032  0.00  0.00    -0.329 N 
ATOM      7  N   UNL     1       5.777  -1.045  23.813  0.00  0.00    -0.243 NA
ATOM     26  C   UNL     1       3.601  -0.538  23.430  0.00  0.00    +0.125 A 
ATOM     27  C   UNL     1       4.479  -1.481  23.908  0.00  0.00    +0.143 A 
ATOM     28  C   UNL     1       5.688   0.154  23.281  0.00  0.00    +0.199 A 
ATOM     29  C   UNL     1       3.961   1.756  22.452  0.00  0.00    +0.150 C 
ENDBRANCH  25  26
ENDBRANCH  19  24
ENDBRANCH  11  19
TORSDOF 7
ENDMDL
MODEL 8
REMARK VINA RESULT:      -0.2      1.869      4.483
REMARK  Name = 45784160
REMARK  11 active torsions:
REMARK  status: ('A' for Active; 'I' for Inactive)
REMARK    1  A    between atoms: N_3  and  C_13
REMARK    2  A    between atoms: N_6  and  C_29
REMARK    3  A    between atoms: C_8  and  C_12
REMARK    4  A    between atoms: C_9  and  C_13
REMARK    5  A    between atoms: C_11  and  C_19
REMARK    6  A    between atoms: C_12  and  C_21
REMARK    7  A    between atoms: C_12  and  C_22
REMARK    8  A    between atoms: C_14  and  C_23
REMARK    9  A    between atoms: C_15  and  C_20
REMARK   10  A    between atoms: C_19  and  C_24
REMARK   11  A    between atoms: C_25  and  C_26
REMARK                            x       y       z     vdW  Elec       q    Type
REMARK                         _______ _______ _______ _____ _____    ______ ____
ROOT
ATOM      8  C   UNL     1      -3.779   2.433  24.360  0.00  0.00    +0.000 C 
ATOM      9  C   UNL     1      -4.528   3.608  25.038  0.00  0.00    +0.032 C 
ATOM     10  C   UNL     1      -4.746   1.278  24.066  0.00  0.00    +0.012 C 
ATOM     11  C   UNL     1      -5.429   0.750  25.342  0.00  0.00    +0.024 C 
ATOM     14  C   UNL     1      -5.962   1.877  26.203  0.00  0.00    -0.073 C 
ATOM     16  C   UNL     1      -5.557   3.150  26.043  0.00  0.00    -0.022 C 
ATOM     23  C   UNL     1      -7.006   1.516  27.223  0.00  0.00    +0.039 C 
ENDROOT
BRANCH   8  12
ATOM     12  C   UNL     1      -3.086   2.872  23.065  0.00  0.00    -0.013 C 
ATOM     21  C   UNL     1      -2.576   1.657  22.297  0.00  0.00    +0.007 C 
ATOM     22  C   UNL     1      -4.038   3.697  22.205  0.00  0.00    +0.007 C 
ENDBRANCH   8  12
BRANCH   9  13
ATOM     13  C   UNL     1      -3.548   4.573  25.713  0.00  0.00    +0.112 C 
BRANCH  13   3
ATOM      1  O   UNL     1      -0.956   5.398  24.682  0.00  0.00    -0.276 OA
ATOM      3  N   UNL     1      -2.283   3.943  25.929  0.00  0.00    -0.315 N 
ATOM     20  C   UNL     1      -1.087   4.409  25.394  0.00  0.00    +0.216 C 
ATOM     30  H   UNL     1      -2.248   3.134  26.545  0.00  0.00    +0.149 HD
BRANCH  20  15
ATOM     15  C   UNL     1       0.112   3.595  25.752  0.00  0.00    +0.075 C 
ATOM     17  C   UNL     1      -0.075   2.317  26.516  0.00  0.00    +0.013 C 
ATOM     18  C   UNL     1       0.331   2.276  25.071  0.00  0.00    +0.013 C 
ENDBRANCH  20  15
ENDBRANCH  13   3
ENDBRANCH   9  13
BRANCH  11  19
ATOM     19  C   UNL     1      -4.481  -0.151  26.143  0.00  0.00    +0.105 C 
BRANCH  19  24
ATOM      2  O   UNL     1      -2.257  -0.221  25.142  0.00  0.00    -0.419 OA
ATOM      4  N   UNL     1      -3.586  -1.915  24.539  0.00  0.00    -0.112 NA
ATOM      5  N   UNL     1      -2.370  -2.080  23.903  0.00  0.00    -0.106 NA
ATOM     24  C   UNL     1      -3.475  -0.819  25.250  0.00  0.00    +0.218 A 
ATOM     25  C   UNL     1      -1.625  -1.069  24.284  0.00  0.00    +0.266 A 
BRANCH  25  26
ATOM      6  N   UNL     1       0.800  -1.516  24.360  0.00  0.00    -0.329 N 
ATOM      7  N   UNL     1       1.574  -0.179  22.765  0.00  0.00    -0.243 NA
ATOM     26  C   UNL     1      -0.293  -0.876  23.846  0.00  0.00    +0.125 A 
ATOM     27  C   UNL     1       0.211  -0.056  22.863  0.00  0.00    +0.143 A 
ATOM     28  C   UNL     1       1.897  -1.066  23.681  0.00  0.00    +0.199 A 
ATOM     29  C   UNL     1       0.819  -2.493  25.425  0.00  0.00    +0.150 C 
ENDBRANCH  25  26
ENDBRANCH  19  24
ENDBRANCH  11  19
TORSDOF 7
ENDMDL
MODEL 9
REMARK VINA RESULT:       1.0      2.332      5.018
REMARK  Name = 45784160
REMARK  11 active torsions:
REMARK  status: ('A' for Active; 'I' for Inactive)
REMARK    1  A    between atoms: N_3  and  C_13
REMARK    2  A    between atoms: N_6  and  C_29
REMARK    3  A    between atoms: C_8  and  C_12
REMARK    4  A    between atoms: C_9  and  C_13
REMARK    5  A    between atoms: C_11  and  C_19
REMARK    6  A    between atoms: C_12  and  C_21
REMARK    7  A    between atoms: C_12  and  C_22
REMARK    8  A    between atoms: C_14  and  C_23
REMARK    9  A    between atoms: C_15  and  C_20
REMARK   10  A    between atoms: C_19  and  C_24
REMARK   11  A    between atoms: C_25  and  C_26
REMARK                            x       y       z     vdW  Elec       q    Type
REMARK                         _______ _______ _______ _____ _____    ______ ____
ROOT
ATOM      8  C   UNL     1      -2.400   2.611  23.803  0.00  0.00    +0.000 C 
ATOM      9  C   UNL     1      -1.298   3.361  24.593  0.00  0.00    +0.032 C 
ATOM     10  C   UNL     1      -3.662   3.477  23.688  0.00  0.00    +0.012 C 
ATOM     11  C   UNL     1      -4.229   3.867  25.066  0.00  0.00    +0.024 C 
ATOM     14  C   UNL     1      -3.147   4.370  25.999  0.00  0.00    -0.073 C 
ATOM     16  C   UNL     1      -1.841   4.146  25.764  0.00  0.00    -0.022 C 
ATOM     23  C   UNL     1      -3.595   5.176  27.186  0.00  0.00    +0.039 C 
ENDROOT
BRANCH   8  12
ATOM     12  C   UNL     1      -1.921   2.204  22.406  0.00  0.00    -0.013 C 
ATOM     21  C   UNL     1      -1.356   0.787  22.428  0.00  0.00    +0.007 C 
ATOM     22  C   UNL     1      -3.061   2.316  21.399  0.00  0.00    +0.007 C 
ENDBRANCH   8  12
BRANCH   9  13
ATOM     13  C   UNL     1      -0.214   2.396  25.083  0.00  0.00    +0.112 C 
BRANCH  13   3
ATOM      1  O   UNL     1      -0.040   1.262  27.755  0.00  0.00    -0.276 OA
ATOM      3  N   UNL     1       0.472   2.935  26.216  0.00  0.00    -0.315 N 
ATOM     20  C   UNL     1       0.502   2.322  27.463  0.00  0.00    +0.216 C 
ATOM     30  H   UNL     1       1.004   3.792  26.091  0.00  0.00    +0.149 HD
BRANCH  20  15
ATOM     15  C   UNL     1       1.280   3.062  28.500  0.00  0.00    +0.075 C 
ATOM     17  C   UNL     1       1.470   2.437  29.852  0.00  0.00    +0.013 C 
ATOM     18  C   UNL     1       2.630   2.548  28.906  0.00  0.00    +0.013 C 
ENDBRANCH  20  15
ENDBRANCH  13   3
ENDBRANCH   9  13
BRANCH  11  19
ATOM     19  C   UNL     1      -4.999   2.701  25.696  0.00  0.00    +0.105 C 
BRANCH  19  24
ATOM      2  O   UNL     1      -3.369   0.889  25.595  0.00  0.00    -0.419 OA
ATOM      4  N   UNL     1      -5.134   0.609  24.250  0.00  0.00    -0.112 NA
ATOM      5  N   UNL     1      -4.299  -0.482  24.091  0.00  0.00    -0.106 NA
ATOM     24  C   UNL     1      -4.552   1.381  25.136  0.00  0.00    +0.218 A 
ATOM     25  C   UNL     1      -3.282  -0.276  24.895  0.00  0.00    +0.266 A 
BRANCH  25  26
ATOM      6  N   UNL     1      -2.263  -2.520  24.772  0.00  0.00    -0.329 N 
ATOM      7  N   UNL     1      -0.168  -2.118  25.392  0.00  0.00    -0.243 NA
ATOM     26  C   UNL     1      -2.198  -1.177  25.023  0.00  0.00    +0.125 A 
ATOM     27  C   UNL     1      -0.895  -0.954  25.404  0.00  0.00    +0.143 A 
ATOM     28  C   UNL     1      -1.022  -3.041  25.007  0.00  0.00    +0.199 A 
ATOM     29  C   UNL     1      -3.417  -3.272  24.338  0.00  0.00    +0.150 C 
ENDBRANCH  25  26
ENDBRANCH  19  24
ENDBRANCH  11  19
TORSDOF 7
ENDMDL
