MODEL 1
REMARK VINA RESULT:      -5.3      0.000      0.000
REMARK  Name = 56775475
REMARK  6 active torsions:
REMARK  status: ('A' for Active; 'I' for Inactive)
REMARK    1  A    between atoms: N_4  and  C_6
REMARK    2  A    between atoms: N_4  and  C_11
REMARK    3  A    between atoms: C_6  and  C_9
REMARK    4  A    between atoms: C_9  and  C_10
REMARK    5  A    between atoms: C_11  and  C_12
REMARK    6  A    between atoms: C_14  and  C_17
REMARK                            x       y       z     vdW  Elec       q    Type
REMARK                         _______ _______ _______ _____ _____    ______ ____
ROOT
ATOM      2  O   UNL     1      -1.643   4.157  25.748  0.00  0.00    -0.376 OA
ATOM      6  C   UNL     1      -2.608   2.525  24.769  0.00  0.00    +0.072 C 
ATOM      7  C   UNL     1      -2.684   4.048  24.751  0.00  0.00    +0.184 C 
ATOM      8  C   UNL     1      -1.454   2.724  25.745  0.00  0.00    +0.184 C 
ENDROOT
BRANCH   6   4
ATOM      4  N   UNL     1      -3.757   2.008  25.499  0.00  0.00    -0.302 NA
ATOM     26  H   UNL     1      -4.350   2.714  25.931  0.00  0.00    +0.123 HD
BRANCH   4  11
ATOM     11  C   UNL     1      -4.560   1.159  24.620  0.00  0.00    +0.117 C 
BRANCH  11  12
ATOM     12  C   UNL     1      -4.177  -0.291  24.739  0.00  0.00    -0.034 A 
ATOM     15  C   UNL     1      -3.574  -0.761  25.905  0.00  0.00    +0.005 A 
ATOM     16  C   UNL     1      -4.425  -1.166  23.681  0.00  0.00    +0.005 A 
ATOM     18  C   UNL     1      -3.219  -2.106  26.014  0.00  0.00    +0.000 A 
ATOM     19  C   UNL     1      -4.071  -2.511  23.791  0.00  0.00    +0.000 A 
ATOM     20  C   UNL     1      -3.467  -2.981  24.957  0.00  0.00    +0.000 A 
ENDBRANCH  11  12
ENDBRANCH   4  11
ENDBRANCH   6   4
BRANCH   6   9
ATOM      9  C   UNL     1      -2.349   1.778  23.454  0.00  0.00    +0.085 C 
BRANCH   9  10
ATOM      3  O   UNL     1       0.301  -0.599  23.742  0.00  0.00    -0.354 OA
ATOM      5  N   UNL     1      -1.042  -0.245  23.790  0.00  0.00    -0.083 NA
ATOM     10  C   UNL     1      -1.066   1.058  23.495  0.00  0.00    +0.086 A 
ATOM     13  C   UNL     1       0.218   1.575  23.252  0.00  0.00    +0.076 A 
ATOM     14  C   UNL     1       1.041   0.493  23.420  0.00  0.00    +0.167 A 
BRANCH  14  17
ATOM      1  F   UNL     1       6.541  -0.332  23.077  0.00  0.00    -0.205 F 
ATOM     17  C   UNL     1       2.466   0.279  23.330  0.00  0.00    +0.020 A 
ATOM     21  C   UNL     1       3.009  -0.955  23.687  0.00  0.00    +0.014 A 
ATOM     22  C   UNL     1       3.298   1.306  22.886  0.00  0.00    +0.014 A 
ATOM     23  C   UNL     1       4.386  -1.161  23.602  0.00  0.00    +0.039 A 
ATOM     24  C   UNL     1       4.675   1.099  22.801  0.00  0.00    +0.039 A 
ATOM     25  C   UNL     1       5.218  -0.134  23.159  0.00  0.00    +0.123 A 
ENDBRANCH  14  17
ENDBRANCH   9  10
ENDBRANCH   6   9
TORSDOF 6
ENDMDL
MODEL 2
REMARK VINA RESULT:      -4.9     14.054     16.532
REMARK  Name = 56775475
REMARK  6 active torsions:
REMARK  status: ('A' for Active; 'I' for Inactive)
REMARK    1  A    between atoms: N_4  and  C_6
REMARK    2  A    between atoms: N_4  and  C_11
REMARK    3  A    between atoms: C_6  and  C_9
REMARK    4  A    between atoms: C_9  and  C_10
REMARK    5  A    between atoms: C_11  and  C_12
REMARK    6  A    between atoms: C_14  and  C_17
REMARK                            x       y       z     vdW  Elec       q    Type
REMARK                         _______ _______ _______ _____ _____    ______ ____
ROOT
ATOM      2  O   UNL     1       0.501  -8.023  11.847  0.00  0.00    -0.376 OA
ATOM      6  C   UNL     1      -1.175  -9.342  11.771  0.00  0.00    +0.072 C 
ATOM      7  C   UNL     1       0.089  -9.087  10.958  0.00  0.00    +0.184 C 
ATOM      8  C   UNL     1      -0.628  -8.277  12.713  0.00  0.00    +0.184 C 
ENDROOT
BRANCH   6   4
ATOM      4  N   UNL     1      -2.314  -8.792  11.049  0.00  0.00    -0.302 NA
ATOM     26  H   UNL     1      -2.089  -8.064  10.375  0.00  0.00    +0.123 HD
BRANCH   4  11
ATOM     11  C   UNL     1      -3.046  -9.870  10.387  0.00  0.00    +0.117 C 
BRANCH  11  12
ATOM     12  C   UNL     1      -4.472  -9.484  10.100  0.00  0.00    -0.034 A 
ATOM     15  C   UNL     1      -4.888  -9.275   8.785  0.00  0.00    +0.005 A 
ATOM     16  C   UNL     1      -5.380  -9.337  11.149  0.00  0.00    +0.005 A 
ATOM     18  C   UNL     1      -6.210  -8.918   8.519  0.00  0.00    +0.000 A 
ATOM     19  C   UNL     1      -6.702  -8.981  10.883  0.00  0.00    +0.000 A 
ATOM     20  C   UNL     1      -7.117  -8.770   9.568  0.00  0.00    +0.000 A 
ENDBRANCH  11  12
ENDBRANCH   4  11
ENDBRANCH   6   4
BRANCH   6   9
ATOM      9  C   UNL     1      -1.437 -10.753  12.315  0.00  0.00    +0.085 C 
BRANCH   9  10
ATOM      3  O   UNL     1      -2.277 -10.686  15.786  0.00  0.00    -0.354 OA
ATOM      5  N   UNL     1      -1.358 -10.757  14.745  0.00  0.00    -0.083 NA
ATOM     10  C   UNL     1      -2.094 -10.702  13.632  0.00  0.00    +0.086 A 
ATOM     13  C   UNL     1      -3.468 -10.595  13.903  0.00  0.00    +0.076 A 
ATOM     14  C   UNL     1      -3.529 -10.589  15.272  0.00  0.00    +0.167 A 
BRANCH  14  17
ATOM      1  F   UNL     1      -7.655 -10.267  19.003  0.00  0.00    -0.205 F 
ATOM     17  C   UNL     1      -4.598 -10.504  16.238  0.00  0.00    +0.020 A 
ATOM     21  C   UNL     1      -4.346 -10.781  17.582  0.00  0.00    +0.014 A 
ATOM     22  C   UNL     1      -5.881 -10.146  15.828  0.00  0.00    +0.014 A 
ATOM     23  C   UNL     1      -5.378 -10.702  18.516  0.00  0.00    +0.039 A 
ATOM     24  C   UNL     1      -6.915 -10.067  16.763  0.00  0.00    +0.039 A 
ATOM     25  C   UNL     1      -6.663 -10.344  18.106  0.00  0.00    +0.123 A 
ENDBRANCH  14  17
ENDBRANCH   9  10
ENDBRANCH   6   9
TORSDOF 6
ENDMDL
MODEL 3
REMARK VINA RESULT:      -4.6      1.712      2.617
REMARK  Name = 56775475
REMARK  6 active torsions:
REMARK  status: ('A' for Active; 'I' for Inactive)
REMARK    1  A    between atoms: N_4  and  C_6
REMARK    2  A    between atoms: N_4  and  C_11
REMARK    3  A    between atoms: C_6  and  C_9
REMARK    4  A    between atoms: C_9  and  C_10
REMARK    5  A    between atoms: C_11  and  C_12
REMARK    6  A    between atoms: C_14  and  C_17
REMARK                            x       y       z     vdW  Elec       q    Type
REMARK                         _______ _______ _______ _____ _____    ______ ____
ROOT
ATOM      2  O   UNL     1      -6.280   3.648  25.768  0.00  0.00    -0.376 OA
ATOM      6  C   UNL     1      -4.630   2.629  24.878  0.00  0.00    +0.072 C 
ATOM      7  C   UNL     1      -6.151   2.531  24.859  0.00  0.00    +0.184 C 
ATOM      8  C   UNL     1      -4.849   3.855  25.756  0.00  0.00    +0.184 C 
ENDROOT
BRANCH   6   4
ATOM      4  N   UNL     1      -4.101   1.550  25.702  0.00  0.00    -0.302 NA
ATOM     26  H   UNL     1      -4.223   1.672  26.706  0.00  0.00    +0.123 HD
BRANCH   4  11
ATOM     11  C   UNL     1      -4.686   0.277  25.284  0.00  0.00    +0.117 C 
BRANCH  11  12
ATOM     12  C   UNL     1      -3.632  -0.766  25.027  0.00  0.00    -0.034 A 
ATOM     15  C   UNL     1      -3.934  -1.886  24.253  0.00  0.00    +0.005 A 
ATOM     16  C   UNL     1      -2.353  -0.612  25.563  0.00  0.00    +0.005 A 
ATOM     18  C   UNL     1      -2.956  -2.854  24.015  0.00  0.00    +0.000 A 
ATOM     19  C   UNL     1      -1.376  -1.579  25.323  0.00  0.00    +0.000 A 
ATOM     20  C   UNL     1      -1.678  -2.700  24.550  0.00  0.00    +0.000 A 
ENDBRANCH  11  12
ENDBRANCH   4  11
ENDBRANCH   6   4
BRANCH   6   9
ATOM      9  C   UNL     1      -3.878   2.790  23.550  0.00  0.00    +0.085 C 
BRANCH   9  10
ATOM      3  O   UNL     1      -0.441   2.708  24.518  0.00  0.00    -0.354 OA
ATOM      5  N   UNL     1      -1.736   3.202  24.624  0.00  0.00    -0.083 NA
ATOM     10  C   UNL     1      -2.440   2.520  23.717  0.00  0.00    +0.086 A 
ATOM     13  C   UNL     1      -1.652   1.592  23.016  0.00  0.00    +0.076 A 
ATOM     14  C   UNL     1      -0.404   1.749  23.558  0.00  0.00    +0.167 A 
BRANCH  14  17
ATOM      1  F   UNL     1       4.566  -0.612  22.687  0.00  0.00    -0.205 F 
ATOM     17  C   UNL     1       0.883   1.137  23.334  0.00  0.00    +0.020 A 
ATOM     21  C   UNL     1       2.038   1.919  23.347  0.00  0.00    +0.014 A 
ATOM     22  C   UNL     1       0.972  -0.235  23.103  0.00  0.00    +0.014 A 
ATOM     23  C   UNL     1       3.282   1.328  23.128  0.00  0.00    +0.039 A 
ATOM     24  C   UNL     1       2.217  -0.826  22.884  0.00  0.00    +0.039 A 
ATOM     25  C   UNL     1       3.371  -0.044  22.897  0.00  0.00    +0.123 A 
ENDBRANCH  14  17
ENDBRANCH   9  10
ENDBRANCH   6   9
TORSDOF 6
ENDMDL
MODEL 4
REMARK VINA RESULT:      -4.0      3.333      6.494
REMARK  Name = 56775475
REMARK  6 active torsions:
REMARK  status: ('A' for Active; 'I' for Inactive)
REMARK    1  A    between atoms: N_4  and  C_6
REMARK    2  A    between atoms: N_4  and  C_11
REMARK    3  A    between atoms: C_6  and  C_9
REMARK    4  A    between atoms: C_9  and  C_10
REMARK    5  A    between atoms: C_11  and  C_12
REMARK    6  A    between atoms: C_14  and  C_17
REMARK                            x       y       z     vdW  Elec       q    Type
REMARK                         _______ _______ _______ _____ _____    ______ ____
ROOT
ATOM      2  O   UNL     1       3.476  -0.792  22.389  0.00  0.00    -0.376 OA
ATOM      6  C   UNL     1       1.817   0.325  23.133  0.00  0.00    +0.072 C 
ATOM      7  C   UNL     1       2.961  -0.502  23.709  0.00  0.00    +0.184 C 
ATOM      8  C   UNL     1       2.472   0.055  21.784  0.00  0.00    +0.184 C 
ENDROOT
BRANCH   6   4
ATOM      4  N   UNL     1       0.588  -0.451  23.222  0.00  0.00    -0.302 NA
ATOM     26  H   UNL     1       0.458  -1.144  22.487  0.00  0.00    +0.123 HD
BRANCH   4  11
ATOM     11  C   UNL     1       0.506  -1.099  24.530  0.00  0.00    +0.117 C 
BRANCH  11  12
ATOM     12  C   UNL     1      -0.910  -1.458  24.890  0.00  0.00    -0.034 A 
ATOM     15  C   UNL     1      -1.468  -0.990  26.080  0.00  0.00    +0.005 A 
ATOM     16  C   UNL     1      -1.665  -2.260  24.034  0.00  0.00    +0.005 A 
ATOM     18  C   UNL     1      -2.782  -1.324  26.413  0.00  0.00    +0.000 A 
ATOM     19  C   UNL     1      -2.978  -2.592  24.367  0.00  0.00    +0.000 A 
ATOM     20  C   UNL     1      -3.536  -2.125  25.557  0.00  0.00    +0.000 A 
ENDBRANCH  11  12
ENDBRANCH   4  11
ENDBRANCH   6   4
BRANCH   6   9
ATOM      9  C   UNL     1       1.642   1.777  23.597  0.00  0.00    +0.085 C 
BRANCH   9  10
ATOM      3  O   UNL     1      -1.063   2.419  25.840  0.00  0.00    -0.354 OA
ATOM      5  N   UNL     1       0.292   2.324  25.544  0.00  0.00    -0.083 NA
ATOM     10  C   UNL     1       0.340   1.972  24.256  0.00  0.00    +0.086 A 
ATOM     13  C   UNL     1      -0.939   1.832  23.693  0.00  0.00    +0.076 A 
ATOM     14  C   UNL     1      -1.785   2.124  24.729  0.00  0.00    +0.167 A 
BRANCH  14  17
ATOM      1  F   UNL     1      -7.321   2.352  25.324  0.00  0.00    -0.205 F 
ATOM     17  C   UNL     1      -3.220   2.184  24.882  0.00  0.00    +0.020 A 
ATOM     21  C   UNL     1      -3.813   3.305  25.460  0.00  0.00    +0.014 A 
ATOM     22  C   UNL     1      -4.010   1.119  24.452  0.00  0.00    +0.014 A 
ATOM     23  C   UNL     1      -5.198   3.362  25.610  0.00  0.00    +0.039 A 
ATOM     24  C   UNL     1      -5.397   1.175  24.602  0.00  0.00    +0.039 A 
ATOM     25  C   UNL     1      -5.990   2.297  25.180  0.00  0.00    +0.123 A 
ENDBRANCH  14  17
ENDBRANCH   9  10
ENDBRANCH   6   9
TORSDOF 6
ENDMDL
MODEL 5
REMARK VINA RESULT:      -3.8      1.452      3.698
REMARK  Name = 56775475
REMARK  6 active torsions:
REMARK  status: ('A' for Active; 'I' for Inactive)
REMARK    1  A    between atoms: N_4  and  C_6
REMARK    2  A    between atoms: N_4  and  C_11
REMARK    3  A    between atoms: C_6  and  C_9
REMARK    4  A    between atoms: C_9  and  C_10
REMARK    5  A    between atoms: C_11  and  C_12
REMARK    6  A    between atoms: C_14  and  C_17
REMARK                            x       y       z     vdW  Elec       q    Type
REMARK                         _______ _______ _______ _____ _____    ______ ____
ROOT
ATOM      2  O   UNL     1      -3.532  -2.868  24.547  0.00  0.00    -0.376 OA
ATOM      6  C   UNL     1      -3.303  -0.759  24.314  0.00  0.00    +0.072 C 
ATOM      7  C   UNL     1      -2.487  -1.921  24.868  0.00  0.00    +0.184 C 
ATOM      8  C   UNL     1      -4.316  -1.827  23.921  0.00  0.00    +0.184 C 
ENDROOT
BRANCH   6   4
ATOM      4  N   UNL     1      -3.839   0.009  25.429  0.00  0.00    -0.302 NA
ATOM     26  H   UNL     1      -3.143   0.403  26.059  0.00  0.00    +0.123 HD
BRANCH   4  11
ATOM     11  C   UNL     1      -4.707   1.072  24.925  0.00  0.00    +0.117 C 
BRANCH  11  12
ATOM     12  C   UNL     1      -4.021   2.411  24.943  0.00  0.00    -0.034 A 
ATOM     15  C   UNL     1      -3.382   2.854  26.101  0.00  0.00    +0.005 A 
ATOM     16  C   UNL     1      -4.024   3.211  23.799  0.00  0.00    +0.005 A 
ATOM     18  C   UNL     1      -2.746   4.096  26.116  0.00  0.00    +0.000 A 
ATOM     19  C   UNL     1      -3.387   4.452  23.815  0.00  0.00    +0.000 A 
ATOM     20  C   UNL     1      -2.749   4.895  24.974  0.00  0.00    +0.000 A 
ENDBRANCH  11  12
ENDBRANCH   4  11
ENDBRANCH   6   4
BRANCH   6   9
ATOM      9  C   UNL     1      -2.691   0.125  23.219  0.00  0.00    +0.085 C 
BRANCH   9  10
ATOM      3  O   UNL     1       0.499   1.271  24.344  0.00  0.00    -0.354 OA
ATOM      5  N   UNL     1      -0.891   1.300  24.354  0.00  0.00    -0.083 NA
ATOM     10  C   UNL     1      -1.262   0.370  23.470  0.00  0.00    +0.086 A 
ATOM     13  C   UNL     1      -0.162  -0.273  22.878  0.00  0.00    +0.076 A 
ATOM     14  C   UNL     1       0.920   0.329  23.462  0.00  0.00    +0.167 A 
BRANCH  14  17
ATOM      1  F   UNL     1       6.444  -0.248  23.008  0.00  0.00    -0.205 F 
ATOM     17  C   UNL     1       2.351   0.179  23.343  0.00  0.00    +0.020 A 
ATOM     21  C   UNL     1       2.958  -1.025  23.698  0.00  0.00    +0.014 A 
ATOM     22  C   UNL     1       3.126   1.240  22.875  0.00  0.00    +0.014 A 
ATOM     23  C   UNL     1       4.340  -1.170  23.585  0.00  0.00    +0.039 A 
ATOM     24  C   UNL     1       4.509   1.095  22.762  0.00  0.00    +0.039 A 
ATOM     25  C   UNL     1       5.116  -0.109  23.117  0.00  0.00    +0.123 A 
ENDBRANCH  14  17
ENDBRANCH   9  10
ENDBRANCH   6   9
TORSDOF 6
ENDMDL
MODEL 6
REMARK VINA RESULT:      -3.7      3.427      7.016
REMARK  Name = 56775475
REMARK  6 active torsions:
REMARK  status: ('A' for Active; 'I' for Inactive)
REMARK    1  A    between atoms: N_4  and  C_6
REMARK    2  A    between atoms: N_4  and  C_11
REMARK    3  A    between atoms: C_6  and  C_9
REMARK    4  A    between atoms: C_9  and  C_10
REMARK    5  A    between atoms: C_11  and  C_12
REMARK    6  A    between atoms: C_14  and  C_17
REMARK                            x       y       z     vdW  Elec       q    Type
REMARK                         _______ _______ _______ _____ _____    ______ ____
ROOT
ATOM      2  O   UNL     1       4.603   0.128  22.744  0.00  0.00    -0.376 OA
ATOM      6  C   UNL     1       2.487   0.245  22.997  0.00  0.00    +0.072 C 
ATOM      7  C   UNL     1       3.559   0.948  22.172  0.00  0.00    +0.184 C 
ATOM      8  C   UNL     1       3.627  -0.642  23.483  0.00  0.00    +0.184 C 
ENDROOT
BRANCH   6   4
ATOM      4  N   UNL     1       2.081   1.125  24.084  0.00  0.00    -0.302 NA
ATOM     26  H   UNL     1       2.824   1.394  24.726  0.00  0.00    +0.123 HD
BRANCH   4  11
ATOM     11  C   UNL     1       1.443   2.322  23.539  0.00  0.00    +0.117 C 
BRANCH  11  12
ATOM     12  C   UNL     1       0.379   2.858  24.457  0.00  0.00    -0.034 A 
ATOM     15  C   UNL     1      -0.361   3.982  24.088  0.00  0.00    +0.005 A 
ATOM     16  C   UNL     1       0.131   2.231  25.678  0.00  0.00    +0.005 A 
ATOM     18  C   UNL     1      -1.348   4.479  24.940  0.00  0.00    +0.000 A 
ATOM     19  C   UNL     1      -0.856   2.728  26.530  0.00  0.00    +0.000 A 
ATOM     20  C   UNL     1      -1.595   3.852  26.161  0.00  0.00    +0.000 A 
ENDBRANCH  11  12
ENDBRANCH   4  11
ENDBRANCH   6   4
BRANCH   6   9
ATOM      9  C   UNL     1       1.298  -0.401  22.274  0.00  0.00    +0.085 C 
BRANCH   9  10
ATOM      3  O   UNL     1      -1.348  -0.669  24.658  0.00  0.00    -0.354 OA
ATOM      5  N   UNL     1      -0.100  -1.028  24.163  0.00  0.00    -0.083 NA
ATOM     10  C   UNL     1       0.064  -0.280  23.068  0.00  0.00    +0.086 A 
ATOM     13  C   UNL     1      -1.035   0.561  22.826  0.00  0.00    +0.076 A 
ATOM     14  C   UNL     1      -1.894   0.278  23.855  0.00  0.00    +0.167 A 
BRANCH  14  17
ATOM      1  F   UNL     1      -6.929   2.121  25.371  0.00  0.00    -0.205 F 
ATOM     17  C   UNL     1      -3.199   0.755  24.246  0.00  0.00    +0.020 A 
ATOM     21  C   UNL     1      -3.610   2.037  23.883  0.00  0.00    +0.014 A 
ATOM     22  C   UNL     1      -4.047  -0.066  24.989  0.00  0.00    +0.014 A 
ATOM     23  C   UNL     1      -4.870   2.499  24.263  0.00  0.00    +0.039 A 
ATOM     24  C   UNL     1      -5.307   0.396  25.369  0.00  0.00    +0.039 A 
ATOM     25  C   UNL     1      -5.719   1.677  25.006  0.00  0.00    +0.123 A 
ENDBRANCH  14  17
ENDBRANCH   9  10
ENDBRANCH   6   9
TORSDOF 6
ENDMDL
MODEL 7
REMARK VINA RESULT:      -3.2     16.274     19.353
REMARK  Name = 56775475
REMARK  6 active torsions:
REMARK  status: ('A' for Active; 'I' for Inactive)
REMARK    1  A    between atoms: N_4  and  C_6
REMARK    2  A    between atoms: N_4  and  C_11
REMARK    3  A    between atoms: C_6  and  C_9
REMARK    4  A    between atoms: C_9  and  C_10
REMARK    5  A    between atoms: C_11  and  C_12
REMARK    6  A    between atoms: C_14  and  C_17
REMARK                            x       y       z     vdW  Elec       q    Type
REMARK                         _______ _______ _______ _____ _____    ______ ____
ROOT
ATOM      2  O   UNL     1      15.187  -8.926  28.552  0.00  0.00    -0.376 OA
ATOM      6  C   UNL     1      15.866  -8.161  30.425  0.00  0.00    +0.072 C 
ATOM      7  C   UNL     1      14.831  -7.788  29.370  0.00  0.00    +0.184 C 
ATOM      8  C   UNL     1      16.118  -9.388  29.556  0.00  0.00    +0.184 C 
ENDROOT
BRANCH   6   4
ATOM      4  N   UNL     1      17.003  -7.259  30.305  0.00  0.00    -0.302 NA
ATOM     26  H   UNL     1      17.007  -6.675  29.471  0.00  0.00    +0.123 HD
BRANCH   4  11
ATOM     11  C   UNL     1      17.094  -6.418  31.497  0.00  0.00    +0.117 C 
BRANCH  11  12
ATOM     12  C   UNL     1      16.799  -4.975  31.188  0.00  0.00    -0.034 A 
ATOM     15  C   UNL     1      17.404  -4.357  30.094  0.00  0.00    +0.005 A 
ATOM     16  C   UNL     1      15.920  -4.254  31.997  0.00  0.00    +0.005 A 
ATOM     18  C   UNL     1      17.130  -3.019  29.808  0.00  0.00    +0.000 A 
ATOM     19  C   UNL     1      15.646  -2.917  31.711  0.00  0.00    +0.000 A 
ATOM     20  C   UNL     1      16.252  -2.299  30.617  0.00  0.00    +0.000 A 
ENDBRANCH  11  12
ENDBRANCH   4  11
ENDBRANCH   6   4
BRANCH   6   9
ATOM      9  C   UNL     1      15.410  -8.359  31.877  0.00  0.00    +0.085 C 
BRANCH   9  10
ATOM      3  O   UNL     1      12.561 -10.507  32.027  0.00  0.00    -0.354 OA
ATOM      5  N   UNL     1      13.933 -10.287  31.979  0.00  0.00    -0.083 NA
ATOM     10  C   UNL     1      14.067  -8.959  31.936  0.00  0.00    +0.086 A 
ATOM     13  C   UNL     1      12.829  -8.295  31.955  0.00  0.00    +0.076 A 
ATOM     14  C   UNL     1      11.915  -9.314  32.013  0.00  0.00    +0.167 A 
BRANCH  14  17
ATOM      1  F   UNL     1       6.352  -9.575  32.194  0.00  0.00    -0.205 F 
ATOM     17  C   UNL     1      10.474  -9.382  32.061  0.00  0.00    +0.020 A 
ATOM     21  C   UNL     1       9.823 -10.580  31.772  0.00  0.00    +0.014 A 
ATOM     22  C   UNL     1       9.734  -8.249  32.397  0.00  0.00    +0.014 A 
ATOM     23  C   UNL     1       8.431 -10.646  31.816  0.00  0.00    +0.039 A 
ATOM     24  C   UNL     1       8.341  -8.314  32.441  0.00  0.00    +0.039 A 
ATOM     25  C   UNL     1       7.690  -9.512  32.151  0.00  0.00    +0.123 A 
ENDBRANCH  14  17
ENDBRANCH   9  10
ENDBRANCH   6   9
TORSDOF 6
ENDMDL
MODEL 8
REMARK VINA RESULT:      -2.7      3.628      5.684
REMARK  Name = 56775475
REMARK  6 active torsions:
REMARK  status: ('A' for Active; 'I' for Inactive)
REMARK    1  A    between atoms: N_4  and  C_6
REMARK    2  A    between atoms: N_4  and  C_11
REMARK    3  A    between atoms: C_6  and  C_9
REMARK    4  A    between atoms: C_9  and  C_10
REMARK    5  A    between atoms: C_11  and  C_12
REMARK    6  A    between atoms: C_14  and  C_17
REMARK                            x       y       z     vdW  Elec       q    Type
REMARK                         _______ _______ _______ _____ _____    ______ ____
ROOT
ATOM      2  O   UNL     1      -3.637  -3.988  24.969  0.00  0.00    -0.376 OA
ATOM      6  C   UNL     1      -2.394  -2.324  24.480  0.00  0.00    +0.072 C 
ATOM      7  C   UNL     1      -3.258  -2.772  25.653  0.00  0.00    +0.184 C 
ATOM      8  C   UNL     1      -2.762  -3.668  23.863  0.00  0.00    +0.184 C 
ENDROOT
BRANCH   6   4
ATOM      4  N   UNL     1      -3.094  -1.269  23.760  0.00  0.00    -0.302 NA
ATOM     26  H   UNL     1      -3.305  -1.475  22.786  0.00  0.00    +0.123 HD
BRANCH   4  11
ATOM     11  C   UNL     1      -4.324  -0.919  24.468  0.00  0.00    +0.117 C 
BRANCH  11  12
ATOM     12  C   UNL     1      -4.559   0.567  24.483  0.00  0.00    -0.034 A 
ATOM     15  C   UNL     1      -3.979   1.376  23.505  0.00  0.00    +0.005 A 
ATOM     16  C   UNL     1      -5.357   1.137  25.475  0.00  0.00    +0.005 A 
ATOM     18  C   UNL     1      -4.198   2.754  23.520  0.00  0.00    +0.000 A 
ATOM     19  C   UNL     1      -5.577   2.514  25.488  0.00  0.00    +0.000 A 
ATOM     20  C   UNL     1      -4.996   3.323  24.511  0.00  0.00    +0.000 A 
ENDBRANCH  11  12
ENDBRANCH   4  11
ENDBRANCH   6   4
BRANCH   6   9
ATOM      9  C   UNL     1      -0.915  -1.999  24.727  0.00  0.00    +0.085 C 
BRANCH   9  10
ATOM      3  O   UNL     1       0.354   1.250  23.960  0.00  0.00    -0.354 OA
ATOM      5  N   UNL     1       0.411  -0.137  23.897  0.00  0.00    -0.083 NA
ATOM     10  C   UNL     1      -0.655  -0.557  24.584  0.00  0.00    +0.086 A 
ATOM     13  C   UNL     1      -1.414   0.508  25.097  0.00  0.00    +0.076 A 
ATOM     14  C   UNL     1      -0.737   1.622  24.676  0.00  0.00    +0.167 A 
BRANCH  14  17
ATOM      1  F   UNL     1      -1.486   7.112  25.259  0.00  0.00    -0.205 F 
ATOM     17  C   UNL     1      -0.933   3.044  24.826  0.00  0.00    +0.020 A 
ATOM     21  C   UNL     1      -0.178   3.935  24.064  0.00  0.00    +0.014 A 
ATOM     22  C   UNL     1      -1.874   3.526  25.734  0.00  0.00    +0.014 A 
ATOM     23  C   UNL     1      -0.364   5.310  24.210  0.00  0.00    +0.039 A 
ATOM     24  C   UNL     1      -2.061   4.901  25.881  0.00  0.00    +0.039 A 
ATOM     25  C   UNL     1      -1.306   5.792  25.119  0.00  0.00    +0.123 A 
ENDBRANCH  14  17
ENDBRANCH   9  10
ENDBRANCH   6   9
TORSDOF 6
ENDMDL
MODEL 9
REMARK VINA RESULT:      -2.2      1.969      4.344
REMARK  Name = 56775475
REMARK  6 active torsions:
REMARK  status: ('A' for Active; 'I' for Inactive)
REMARK    1  A    between atoms: N_4  and  C_6
REMARK    2  A    between atoms: N_4  and  C_11
REMARK    3  A    between atoms: C_6  and  C_9
REMARK    4  A    between atoms: C_9  and  C_10
REMARK    5  A    between atoms: C_11  and  C_12
REMARK    6  A    between atoms: C_14  and  C_17
REMARK                            x       y       z     vdW  Elec       q    Type
REMARK                         _______ _______ _______ _____ _____    ______ ____
ROOT
ATOM      2  O   UNL     1      -6.950   2.027  25.409  0.00  0.00    -0.376 OA
ATOM      6  C   UNL     1      -5.008   1.149  25.307  0.00  0.00    +0.072 C 
ATOM      7  C   UNL     1      -6.193   1.142  26.266  0.00  0.00    +0.184 C 
ATOM      8  C   UNL     1      -5.902   2.000  24.414  0.00  0.00    +0.184 C 
ENDROOT
BRANCH   6   4
ATOM      4  N   UNL     1      -3.960   1.993  25.865  0.00  0.00    -0.302 NA
ATOM     26  H   UNL     1      -3.010   1.653  25.726  0.00  0.00    +0.123 HD
BRANCH   4  11
ATOM     11  C   UNL     1      -4.081   3.348  25.332  0.00  0.00    +0.117 C 
BRANCH  11  12
ATOM     12  C   UNL     1      -2.737   3.970  25.069  0.00  0.00    -0.034 A 
ATOM     15  C   UNL     1      -2.559   5.344  25.233  0.00  0.00    +0.005 A 
ATOM     16  C   UNL     1      -1.667   3.172  24.661  0.00  0.00    +0.005 A 
ATOM     18  C   UNL     1      -1.311   5.920  24.989  0.00  0.00    +0.000 A 
ATOM     19  C   UNL     1      -0.420   3.748  24.418  0.00  0.00    +0.000 A 
ATOM     20  C   UNL     1      -0.243   5.122  24.581  0.00  0.00    +0.000 A 
ENDBRANCH  11  12
ENDBRANCH   4  11
ENDBRANCH   6   4
BRANCH   6   9
ATOM      9  C   UNL     1      -4.477  -0.188  24.771  0.00  0.00    +0.085 C 
BRANCH   9  10
ATOM      3  O   UNL     1      -0.955  -0.403  25.318  0.00  0.00    -0.354 OA
ATOM      5  N   UNL     1      -2.273  -0.518  25.743  0.00  0.00    -0.083 NA
ATOM     10  C   UNL     1      -3.008  -0.179  24.680  0.00  0.00    +0.086 A 
ATOM     13  C   UNL     1      -2.217   0.156  23.568  0.00  0.00    +0.076 A 
ATOM     14  C   UNL     1      -0.935  -0.002  24.022  0.00  0.00    +0.167 A 
BRANCH  14  17
ATOM      1  F   UNL     1       4.119   0.629  21.762  0.00  0.00    -0.205 F 
ATOM     17  C   UNL     1       0.375   0.160  23.437  0.00  0.00    +0.020 A 
ATOM     21  C   UNL     1       1.285   1.052  24.003  0.00  0.00    +0.014 A 
ATOM     22  C   UNL     1       0.729  -0.574  22.306  0.00  0.00    +0.014 A 
ATOM     23  C   UNL     1       2.550   1.211  23.438  0.00  0.00    +0.039 A 
ATOM     24  C   UNL     1       1.994  -0.415  21.739  0.00  0.00    +0.039 A 
ATOM     25  C   UNL     1       2.904   0.477  22.306  0.00  0.00    +0.123 A 
ENDBRANCH  14  17
ENDBRANCH   9  10
ENDBRANCH   6   9
TORSDOF 6
ENDMDL
MODEL 10
REMARK VINA RESULT:      -1.9     14.839     17.388
REMARK  Name = 56775475
REMARK  6 active torsions:
REMARK  status: ('A' for Active; 'I' for Inactive)
REMARK    1  A    between atoms: N_4  and  C_6
REMARK    2  A    between atoms: N_4  and  C_11
REMARK    3  A    between atoms: C_6  and  C_9
REMARK    4  A    between atoms: C_9  and  C_10
REMARK    5  A    between atoms: C_11  and  C_12
REMARK    6  A    between atoms: C_14  and  C_17
REMARK                            x       y       z     vdW  Elec       q    Type
REMARK                         _______ _______ _______ _____ _____    ______ ____
ROOT
ATOM      2  O   UNL     1       0.233  -8.210  11.703  0.00  0.00    -0.376 OA
ATOM      6  C   UNL     1      -1.547  -9.200  11.067  0.00  0.00    +0.072 C 
ATOM      7  C   UNL     1      -1.171  -8.073  12.022  0.00  0.00    +0.184 C 
ATOM      8  C   UNL     1      -0.065  -9.221  10.713  0.00  0.00    +0.184 C 
ENDROOT
BRANCH   6   4
ATOM      4  N   UNL     1      -1.860 -10.390  11.847  0.00  0.00    -0.302 NA
ATOM     26  H   UNL     1      -1.691 -11.275  11.374  0.00  0.00    +0.123 HD
BRANCH   4  11
ATOM     11  C   UNL     1      -1.129 -10.357  13.112  0.00  0.00    +0.117 C 
BRANCH  11  12
ATOM     12  C   UNL     1      -2.047 -10.506  14.295  0.00  0.00    -0.034 A 
ATOM     15  C   UNL     1      -3.425 -10.597  14.102  0.00  0.00    +0.005 A 
ATOM     16  C   UNL     1      -1.519 -10.553  15.586  0.00  0.00    +0.005 A 
ATOM     18  C   UNL     1      -4.276 -10.734  15.199  0.00  0.00    +0.000 A 
ATOM     19  C   UNL     1      -2.370 -10.691  16.682  0.00  0.00    +0.000 A 
ATOM     20  C   UNL     1      -3.749 -10.781  16.489  0.00  0.00    +0.000 A 
ENDBRANCH  11  12
ENDBRANCH   4  11
ENDBRANCH   6   4
BRANCH   6   9
ATOM      9  C   UNL     1      -2.572  -8.926   9.959  0.00  0.00    +0.085 C 
BRANCH   9  10
ATOM      3  O   UNL     1      -5.621 -10.763  10.241  0.00  0.00    -0.354 OA
ATOM      5  N   UNL     1      -4.377 -10.529   9.668  0.00  0.00    -0.083 NA
ATOM     10  C   UNL     1      -3.896  -9.462  10.314  0.00  0.00    +0.086 A 
ATOM     13  C   UNL     1      -4.783  -8.986  11.294  0.00  0.00    +0.076 A 
ATOM     14  C   UNL     1      -5.851  -9.839  11.208  0.00  0.00    +0.167 A 
BRANCH  14  17
ATOM      1  F   UNL     1     -10.720 -10.299  13.879  0.00  0.00    -0.205 F 
ATOM     17  C   UNL     1      -7.113  -9.957  11.900  0.00  0.00    +0.020 A 
ATOM     21  C   UNL     1      -7.176  -9.740  13.276  0.00  0.00    +0.014 A 
ATOM     22  C   UNL     1      -8.267 -10.289  11.192  0.00  0.00    +0.014 A 
ATOM     23  C   UNL     1      -8.394  -9.855  13.945  0.00  0.00    +0.039 A 
ATOM     24  C   UNL     1      -9.486 -10.405  11.861  0.00  0.00    +0.039 A 
ATOM     25  C   UNL     1      -9.549 -10.188  13.236  0.00  0.00    +0.123 A 
ENDBRANCH  14  17
ENDBRANCH   9  10
ENDBRANCH   6   9
TORSDOF 6
ENDMDL
