MODEL 1
REMARK VINA RESULT:       3.4      0.000      0.000
REMARK  Name = 7143734
REMARK  2 active torsions:
REMARK  status: ('A' for Active; 'I' for Inactive)
REMARK    1  A    between atoms: C_16  and  C_19
REMARK    2  A    between atoms: C_17  and  C_20
REMARK                            x       y       z     vdW  Elec       q    Type
REMARK                         _______ _______ _______ _____ _____    ______ ____
ROOT
ATOM      2  O   UNL     1       0.977   2.054  25.372  0.00  0.00    -0.267 OA
ATOM      3  O   UNL     1      -2.631  -0.599  26.564  0.00  0.00    -0.267 OA
ATOM      5  N   UNL     1      -3.797   0.715  25.019  0.00  0.00    -0.294 N 
ATOM      6  N   UNL     1      -1.073   2.123  24.261  0.00  0.00    -0.311 N 
ATOM      7  C   UNL     1      -3.185   3.104  25.329  0.00  0.00    +0.027 C 
ATOM      8  C   UNL     1      -3.286   2.152  23.061  0.00  0.00    +0.054 C 
ATOM      9  C   UNL     1      -3.608   3.393  23.892  0.00  0.00    +0.018 C 
ATOM     10  C   UNL     1      -3.952   1.888  25.878  0.00  0.00    +0.113 C 
ATOM     11  C   UNL     1      -1.666   2.895  25.364  0.00  0.00    +0.130 C 
ATOM     12  C   UNL     1      -4.089   0.949  23.595  0.00  0.00    +0.117 C 
ATOM     13  C   UNL     1      -1.804   1.833  23.107  0.00  0.00    +0.027 A 
ATOM     14  C   UNL     1      -1.208   1.235  22.063  0.00  0.00    +0.022 A 
ATOM     15  C   UNL     1       0.289   1.786  24.384  0.00  0.00    +0.259 A 
ATOM     16  C   UNL     1      -3.346  -0.487  25.571  0.00  0.00    +0.282 C 
ATOM     17  C   UNL     1       0.917   1.074  23.216  0.00  0.00    +0.047 A 
ATOM     18  C   UNL     1       0.172   0.848  22.125  0.00  0.00    +0.015 A 
ENDROOT
BRANCH  17  20
ATOM      1 CL   UNL     1       6.602  -0.785  23.415  0.00  0.00    -0.084 Cl
ATOM     20  C   UNL     1       2.316   0.616  23.265  0.00  0.00    -0.013 A 
ATOM     22  C   UNL     1       2.608  -0.701  23.619  0.00  0.00    +0.010 A 
ATOM     23  C   UNL     1       3.351   1.501  22.957  0.00  0.00    +0.010 A 
ATOM     26  C   UNL     1       3.932  -1.135  23.665  0.00  0.00    +0.020 A 
ATOM     27  C   UNL     1       4.676   1.067  23.004  0.00  0.00    +0.020 A 
ATOM     28  C   UNL     1       4.967  -0.251  23.357  0.00  0.00    +0.041 A 
ENDBRANCH  17  20
BRANCH  16  19
ATOM      4  O   UNL     1      -4.679  -1.667  23.944  0.00  0.00    -0.458 OA
ATOM     19  C   UNL     1      -3.730  -1.738  24.907  0.00  0.00    +0.189 A 
ATOM     21  C   UNL     1      -3.294  -3.023  25.081  0.00  0.00    +0.054 A 
ATOM     24  C   UNL     1      -4.025  -3.807  24.158  0.00  0.00    +0.042 A 
ATOM     25  C   UNL     1      -4.854  -2.937  23.489  0.00  0.00    +0.196 A 
ENDBRANCH  16  19
TORSDOF 2
ENDMDL
MODEL 2
REMARK VINA RESULT:       4.4      0.586      1.169
REMARK  Name = 7143734
REMARK  2 active torsions:
REMARK  status: ('A' for Active; 'I' for Inactive)
REMARK    1  A    between atoms: C_16  and  C_19
REMARK    2  A    between atoms: C_17  and  C_20
REMARK                            x       y       z     vdW  Elec       q    Type
REMARK                         _______ _______ _______ _____ _____    ______ ____
ROOT
ATOM      2  O   UNL     1       0.892   2.087  25.178  0.00  0.00    -0.267 OA
ATOM      3  O   UNL     1      -2.621  -0.629  26.504  0.00  0.00    -0.267 OA
ATOM      5  N   UNL     1      -3.841   0.591  24.924  0.00  0.00    -0.294 N 
ATOM      6  N   UNL     1      -1.169   2.053  24.087  0.00  0.00    -0.311 N 
ATOM      7  C   UNL     1      -3.300   3.008  25.140  0.00  0.00    +0.027 C 
ATOM      8  C   UNL     1      -3.393   1.970  22.909  0.00  0.00    +0.054 C 
ATOM      9  C   UNL     1      -3.745   3.231  23.697  0.00  0.00    +0.018 C 
ATOM     10  C   UNL     1      -4.024   1.789  25.741  0.00  0.00    +0.113 C 
ATOM     11  C   UNL     1      -1.775   2.846  25.167  0.00  0.00    +0.130 C 
ATOM     12  C   UNL     1      -4.153   0.764  23.495  0.00  0.00    +0.117 C 
ATOM     13  C   UNL     1      -1.902   1.698  22.952  0.00  0.00    +0.027 A 
ATOM     14  C   UNL     1      -1.297   1.081  21.924  0.00  0.00    +0.022 A 
ATOM     15  C   UNL     1       0.204   1.763  24.208  0.00  0.00    +0.259 A 
ATOM     16  C   UNL     1      -3.348  -0.575  25.514  0.00  0.00    +0.282 C 
ATOM     17  C   UNL     1       0.843   1.028  23.060  0.00  0.00    +0.047 A 
ATOM     18  C   UNL     1       0.095   0.739  21.986  0.00  0.00    +0.015 A 
ENDROOT
BRANCH  17  20
ATOM      1 CL   UNL     1       6.582  -0.653  23.266  0.00  0.00    -0.084 Cl
ATOM     20  C   UNL     1       2.256   0.615  23.111  0.00  0.00    -0.013 A 
ATOM     22  C   UNL     1       3.267   1.571  23.019  0.00  0.00    +0.010 A 
ATOM     23  C   UNL     1       2.583  -0.735  23.253  0.00  0.00    +0.010 A 
ATOM     26  C   UNL     1       4.604   1.179  23.066  0.00  0.00    +0.020 A 
ATOM     27  C   UNL     1       3.922  -1.126  23.300  0.00  0.00    +0.020 A 
ATOM     28  C   UNL     1       4.932  -0.169  23.208  0.00  0.00    +0.041 A 
ENDBRANCH  17  20
BRANCH  16  19
ATOM      4  O   UNL     1      -3.405  -2.986  25.594  0.00  0.00    -0.458 OA
ATOM     19  C   UNL     1      -3.700  -1.861  24.900  0.00  0.00    +0.189 A 
ATOM     21  C   UNL     1      -4.297  -2.156  23.705  0.00  0.00    +0.054 A 
ATOM     24  C   UNL     1      -4.378  -3.568  23.653  0.00  0.00    +0.042 A 
ATOM     25  C   UNL     1      -3.823  -4.026  24.825  0.00  0.00    +0.196 A 
ENDBRANCH  16  19
TORSDOF 2
ENDMDL
MODEL 3
REMARK VINA RESULT:       6.3      3.036      3.958
REMARK  Name = 7143734
REMARK  2 active torsions:
REMARK  status: ('A' for Active; 'I' for Inactive)
REMARK    1  A    between atoms: C_16  and  C_19
REMARK    2  A    between atoms: C_17  and  C_20
REMARK                            x       y       z     vdW  Elec       q    Type
REMARK                         _______ _______ _______ _____ _____    ______ ____
ROOT
ATOM      2  O   UNL     1      -1.914   3.692  27.360  0.00  0.00    -0.267 OA
ATOM      3  O   UNL     1      -4.652   0.188  26.057  0.00  0.00    -0.267 OA
ATOM      5  N   UNL     1      -4.253   0.999  23.899  0.00  0.00    -0.294 N 
ATOM      6  N   UNL     1      -2.227   3.086  25.130  0.00  0.00    -0.311 N 
ATOM      7  C   UNL     1      -4.437   3.478  23.894  0.00  0.00    +0.027 C 
ATOM      8  C   UNL     1      -2.558   2.389  22.733  0.00  0.00    +0.054 C 
ATOM      9  C   UNL     1      -3.565   3.535  22.643  0.00  0.00    +0.018 C 
ATOM     10  C   UNL     1      -5.176   2.130  23.970  0.00  0.00    +0.113 C 
ATOM     11  C   UNL     1      -3.553   3.723  25.123  0.00  0.00    +0.130 C 
ATOM     12  C   UNL     1      -3.309   1.043  22.770  0.00  0.00    +0.117 C 
ATOM     13  C   UNL     1      -1.692   2.520  23.970  0.00  0.00    +0.027 A 
ATOM     14  C   UNL     1      -0.432   2.054  23.967  0.00  0.00    +0.022 A 
ATOM     15  C   UNL     1      -1.490   3.171  26.327  0.00  0.00    +0.259 A 
ATOM     16  C   UNL     1      -4.286   0.020  24.895  0.00  0.00    +0.282 C 
ATOM     17  C   UNL     1      -0.098   2.597  26.304  0.00  0.00    +0.047 A 
ATOM     18  C   UNL     1       0.371   2.091  25.155  0.00  0.00    +0.015 A 
ENDROOT
BRANCH  17  20
ATOM      1 CL   UNL     1       3.287   2.489  31.238  0.00  0.00    -0.084 Cl
ATOM     20  C   UNL     1       0.735   2.571  27.519  0.00  0.00    -0.013 A 
ATOM     22  C   UNL     1       2.068   2.978  27.460  0.00  0.00    +0.010 A 
ATOM     23  C   UNL     1       0.191   2.139  28.730  0.00  0.00    +0.010 A 
ATOM     26  C   UNL     1       2.857   2.953  28.609  0.00  0.00    +0.020 A 
ATOM     27  C   UNL     1       0.981   2.114  29.879  0.00  0.00    +0.020 A 
ATOM     28  C   UNL     1       2.313   2.521  29.820  0.00  0.00    +0.041 A 
ENDBRANCH  17  20
BRANCH  16  19
ATOM      4  O   UNL     1      -2.579  -1.684  24.951  0.00  0.00    -0.458 OA
ATOM     19  C   UNL     1      -3.823  -1.329  24.552  0.00  0.00    +0.189 A 
ATOM     21  C   UNL     1      -4.436  -2.348  23.874  0.00  0.00    +0.054 A 
ATOM     24  C   UNL     1      -3.504  -3.412  23.851  0.00  0.00    +0.042 A 
ATOM     25  C   UNL     1      -2.390  -2.959  24.519  0.00  0.00    +0.196 A 
ENDBRANCH  16  19
TORSDOF 2
ENDMDL
