MODEL 1
REMARK VINA RESULT:      -3.1      0.000      0.000
REMARK  Name = 38031153
REMARK  15 active torsions:
REMARK  status: ('A' for Active; 'I' for Inactive)
REMARK    1  A    between atoms: N_3  and  C_14
REMARK    2  A    between atoms: N_3  and  C_20
REMARK    3  A    between atoms: N_4  and  C_21
REMARK    4  A    between atoms: C_7  and  C_11
REMARK    5  A    between atoms: C_8  and  C_14
REMARK    6  A    between atoms: C_10  and  C_15
REMARK    7  A    between atoms: C_11  and  C_16
REMARK    8  A    between atoms: C_11  and  C_17
REMARK    9  A    between atoms: C_12  and  C_18
REMARK   10  A    between atoms: C_15  and  C_19
REMARK   11  A    between atoms: C_20  and  C_21
REMARK   12  A    between atoms: C_22  and  C_23
REMARK   13  A    between atoms: C_23  and  C_28
REMARK   14  A    between atoms: C_23  and  C_29
REMARK   15  A    between atoms: C_23  and  C_30
REMARK                            x       y       z     vdW  Elec       q    Type
REMARK                         _______ _______ _______ _____ _____    ______ ____
ROOT
ATOM      7  C   UNL     1      -1.446   1.108  24.976  0.00  0.00    +0.000 C 
ATOM      8  C   UNL     1      -0.251   0.199  24.593  0.00  0.00    +0.029 C 
ATOM      9  C   UNL     1      -2.394   0.371  25.935  0.00  0.00    +0.012 C 
ATOM     10  C   UNL     1      -2.947  -0.930  25.322  0.00  0.00    +0.024 C 
ATOM     12  C   UNL     1      -1.853  -1.760  24.682  0.00  0.00    -0.073 C 
ATOM     13  C   UNL     1      -0.650  -1.241  24.375  0.00  0.00    -0.023 C 
ATOM     18  C   UNL     1      -2.157  -3.212  24.443  0.00  0.00    +0.039 C 
ENDROOT
BRANCH   7  11
ATOM     11  C   UNL     1      -0.981   2.421  25.614  0.00  0.00    -0.013 C 
ATOM     16  C   UNL     1       0.213   2.175  26.530  0.00  0.00    +0.007 C 
ATOM     17  C   UNL     1      -0.635   3.443  24.535  0.00  0.00    +0.007 C 
ENDBRANCH   7  11
BRANCH   8  14
ATOM     14  C   UNL     1       0.465   0.725  23.344  0.00  0.00    +0.088 C 
BRANCH  14   3
ATOM      3  N   UNL     1       0.437  -0.265  22.281  0.00  0.00    -0.314 NA
ATOM     31  H   UNL     1       0.185  -1.181  22.650  0.00  0.00    +0.122 HD
BRANCH   3  20
ATOM     20  C   UNL     1       1.729  -0.355  21.611  0.00  0.00    +0.096 C 
BRANCH  20  21
ATOM     21  C   UNL     1       2.709   0.643  22.221  0.00  0.00    +0.099 C 
BRANCH  21   4
ATOM      2  O   UNL     1       5.777  -0.901  24.632  0.00  0.00    -0.377 OA
ATOM      4  N   UNL     1       3.926  -0.043  22.646  0.00  0.00    -0.297 NA
ATOM     24  C   UNL     1       3.611  -1.144  23.567  0.00  0.00    +0.112 C 
ATOM     25  C   UNL     1       4.858   0.897  23.287  0.00  0.00    +0.112 C 
ATOM     26  C   UNL     1       4.898  -1.837  24.008  0.00  0.00    +0.175 C 
ATOM     27  C   UNL     1       6.116   0.156  23.732  0.00  0.00    +0.175 C 
ENDBRANCH  21   4
ENDBRANCH  20  21
ENDBRANCH   3  20
ENDBRANCH  14   3
ENDBRANCH   8  14
BRANCH  10  15
ATOM     15  C   UNL     1      -4.070  -0.636  24.322  0.00  0.00    +0.105 C 
BRANCH  15  19
ATOM      1  O   UNL     1      -4.139   1.767  24.740  0.00  0.00    -0.424 OA
ATOM      5  N   UNL     1      -6.103   0.732  25.015  0.00  0.00    -0.112 NA
ATOM      6  N   UNL     1      -6.287   2.077  25.281  0.00  0.00    -0.112 NA
ATOM     19  C   UNL     1      -4.836   0.598  24.704  0.00  0.00    +0.218 A 
ATOM     22  C   UNL     1      -5.115   2.641  25.108  0.00  0.00    +0.223 A 
BRANCH  22  23
ATOM     23  C   UNL     1      -4.726   4.049  25.250  0.00  0.00    +0.040 C 
ATOM     28  C   UNL     1      -5.963   4.979  25.508  0.00  0.00    +0.020 C 
ATOM     29  C   UNL     1      -4.011   4.596  23.965  0.00  0.00    +0.020 C 
ATOM     30  C   UNL     1      -3.731   4.380  26.425  0.00  0.00    +0.020 C 
ENDBRANCH  22  23
ENDBRANCH  15  19
ENDBRANCH  10  15
TORSDOF 9
ENDMDL
MODEL 2
REMARK VINA RESULT:      -2.5      1.517      4.083
REMARK  Name = 38031153
REMARK  15 active torsions:
REMARK  status: ('A' for Active; 'I' for Inactive)
REMARK    1  A    between atoms: N_3  and  C_14
REMARK    2  A    between atoms: N_3  and  C_20
REMARK    3  A    between atoms: N_4  and  C_21
REMARK    4  A    between atoms: C_7  and  C_11
REMARK    5  A    between atoms: C_8  and  C_14
REMARK    6  A    between atoms: C_10  and  C_15
REMARK    7  A    between atoms: C_11  and  C_16
REMARK    8  A    between atoms: C_11  and  C_17
REMARK    9  A    between atoms: C_12  and  C_18
REMARK   10  A    between atoms: C_15  and  C_19
REMARK   11  A    between atoms: C_20  and  C_21
REMARK   12  A    between atoms: C_22  and  C_23
REMARK   13  A    between atoms: C_23  and  C_28
REMARK   14  A    between atoms: C_23  and  C_29
REMARK   15  A    between atoms: C_23  and  C_30
REMARK                            x       y       z     vdW  Elec       q    Type
REMARK                         _______ _______ _______ _____ _____    ______ ____
ROOT
ATOM      7  C   UNL     1      -2.622   2.317  23.696  0.00  0.00    +0.000 C 
ATOM      8  C   UNL     1      -1.386   2.754  24.521  0.00  0.00    +0.029 C 
ATOM      9  C   UNL     1      -3.723   3.387  23.771  0.00  0.00    +0.012 C 
ATOM     10  C   UNL     1      -4.173   3.658  25.219  0.00  0.00    +0.024 C 
ATOM     12  C   UNL     1      -2.993   3.835  26.152  0.00  0.00    -0.073 C 
ATOM     13  C   UNL     1      -1.752   3.437  25.818  0.00  0.00    -0.023 C 
ATOM     18  C   UNL     1      -3.262   4.523  27.462  0.00  0.00    +0.039 C 
ENDROOT
BRANCH   7  11
ATOM     11  C   UNL     1      -2.263   2.045  22.232  0.00  0.00    -0.013 C 
ATOM     16  C   UNL     1      -2.408   0.560  21.915  0.00  0.00    +0.007 C 
ATOM     17  C   UNL     1      -3.136   2.885  21.305  0.00  0.00    +0.007 C 
ENDBRANCH   7  11
BRANCH   8  14
ATOM     14  C   UNL     1      -0.467   1.563  24.814  0.00  0.00    +0.088 C 
BRANCH  14   3
ATOM      3  N   UNL     1       0.656   1.543  23.892  0.00  0.00    -0.314 NA
ATOM     31  H   UNL     1       0.435   2.068  23.046  0.00  0.00    +0.122 HD
BRANCH   3  20
ATOM     20  C   UNL     1       1.016   0.177  23.531  0.00  0.00    +0.096 C 
BRANCH  20  21
ATOM     21  C   UNL     1       1.859   0.173  22.260  0.00  0.00    +0.099 C 
BRANCH  21   4
ATOM      2  O   UNL     1       5.441  -0.462  24.350  0.00  0.00    -0.377 OA
ATOM      4  N   UNL     1       3.236  -0.204  22.570  0.00  0.00    -0.297 NA
ATOM     24  C   UNL     1       3.271  -1.248  23.603  0.00  0.00    +0.112 C 
ATOM     25  C   UNL     1       4.009   0.966  23.010  0.00  0.00    +0.112 C 
ATOM     26  C   UNL     1       4.719  -1.616  23.919  0.00  0.00    +0.175 C 
ATOM     27  C   UNL     1       5.440   0.546  23.339  0.00  0.00    +0.175 C 
ENDBRANCH  21   4
ENDBRANCH  20  21
ENDBRANCH   3  20
ENDBRANCH  14   3
ENDBRANCH   8  14
BRANCH  10  15
ATOM     15  C   UNL     1      -5.110   2.555  25.722  0.00  0.00    +0.105 C 
BRANCH  15  19
ATOM      1  O   UNL     1      -3.715   0.554  25.687  0.00  0.00    -0.424 OA
ATOM      5  N   UNL     1      -5.316   0.582  24.125  0.00  0.00    -0.112 NA
ATOM      6  N   UNL     1      -4.608  -0.598  23.991  0.00  0.00    -0.112 NA
ATOM     19  C   UNL     1      -4.760   1.222  25.126  0.00  0.00    +0.218 A 
ATOM     22  C   UNL     1      -3.685  -0.571  24.923  0.00  0.00    +0.223 A 
BRANCH  22  23
ATOM     23  C   UNL     1      -2.654  -1.565  25.246  0.00  0.00    +0.040 C 
ATOM     28  C   UNL     1      -3.275  -2.948  25.650  0.00  0.00    +0.020 C 
ATOM     29  C   UNL     1      -1.751  -1.109  26.445  0.00  0.00    +0.020 C 
ATOM     30  C   UNL     1      -1.636  -1.910  24.095  0.00  0.00    +0.020 C 
ENDBRANCH  22  23
ENDBRANCH  15  19
ENDBRANCH  10  15
TORSDOF 9
ENDMDL
MODEL 3
REMARK VINA RESULT:      -2.2      1.537      2.071
REMARK  Name = 38031153
REMARK  15 active torsions:
REMARK  status: ('A' for Active; 'I' for Inactive)
REMARK    1  A    between atoms: N_3  and  C_14
REMARK    2  A    between atoms: N_3  and  C_20
REMARK    3  A    between atoms: N_4  and  C_21
REMARK    4  A    between atoms: C_7  and  C_11
REMARK    5  A    between atoms: C_8  and  C_14
REMARK    6  A    between atoms: C_10  and  C_15
REMARK    7  A    between atoms: C_11  and  C_16
REMARK    8  A    between atoms: C_11  and  C_17
REMARK    9  A    between atoms: C_12  and  C_18
REMARK   10  A    between atoms: C_15  and  C_19
REMARK   11  A    between atoms: C_20  and  C_21
REMARK   12  A    between atoms: C_22  and  C_23
REMARK   13  A    between atoms: C_23  and  C_28
REMARK   14  A    between atoms: C_23  and  C_29
REMARK   15  A    between atoms: C_23  and  C_30
REMARK                            x       y       z     vdW  Elec       q    Type
REMARK                         _______ _______ _______ _____ _____    ______ ____
ROOT
ATOM      7  C   UNL     1      -1.581  -0.348  25.312  0.00  0.00    +0.000 C 
ATOM      8  C   UNL     1      -1.032  -1.568  24.532  0.00  0.00    +0.029 C 
ATOM      9  C   UNL     1      -2.825  -0.746  26.123  0.00  0.00    +0.012 C 
ATOM     10  C   UNL     1      -3.950  -1.302  25.229  0.00  0.00    +0.024 C 
ATOM     12  C   UNL     1      -3.430  -2.326  24.241  0.00  0.00    -0.073 C 
ATOM     13  C   UNL     1      -2.121  -2.440  23.952  0.00  0.00    -0.023 C 
ATOM     18  C   UNL     1      -4.444  -3.250  23.626  0.00  0.00    +0.039 C 
ENDROOT
BRANCH   7  11
ATOM     11  C   UNL     1      -0.527   0.255  26.244  0.00  0.00    -0.013 C 
ATOM     16  C   UNL     1      -0.695   1.769  26.330  0.00  0.00    +0.007 C 
ATOM     17  C   UNL     1      -0.614  -0.380  27.629  0.00  0.00    +0.007 C 
ENDBRANCH   7  11
BRANCH   8  14
ATOM     14  C   UNL     1      -0.081  -1.127  23.413  0.00  0.00    +0.088 C 
BRANCH  14   3
ATOM      3  N   UNL     1      -0.001   0.322  23.350  0.00  0.00    -0.314 NA
ATOM     31  H   UNL     1      -0.527   0.677  22.552  0.00  0.00    +0.122 HD
BRANCH   3  20
ATOM     20  C   UNL     1       1.384   0.768  23.250  0.00  0.00    +0.096 C 
BRANCH  20  21
ATOM     21  C   UNL     1       2.106   0.000  22.148  0.00  0.00    +0.099 C 
BRANCH  21   4
ATOM      2  O   UNL     1       5.584  -0.369  24.467  0.00  0.00    -0.377 OA
ATOM      4  N   UNL     1       3.482  -0.283  22.549  0.00  0.00    -0.297 NA
ATOM     24  C   UNL     1       3.518  -1.304  23.605  0.00  0.00    +0.112 C 
ATOM     25  C   UNL     1       4.153   0.941  23.010  0.00  0.00    +0.112 C 
ATOM     26  C   UNL     1       4.963  -1.574  24.018  0.00  0.00    +0.175 C 
ATOM     27  C   UNL     1       5.583   0.618  23.435  0.00  0.00    +0.175 C 
ENDBRANCH  21   4
ENDBRANCH  20  21
ENDBRANCH   3  20
ENDBRANCH  14   3
ENDBRANCH   8  14
BRANCH  10  15
ATOM     15  C   UNL     1      -4.692  -0.172  24.508  0.00  0.00    +0.105 C 
BRANCH  15  19
ATOM      1  O   UNL     1      -3.850   2.081  24.915  0.00  0.00    -0.424 OA
ATOM      5  N   UNL     1      -2.864   1.030  23.205  0.00  0.00    -0.112 NA
ATOM      6  N   UNL     1      -2.295   2.285  23.321  0.00  0.00    -0.112 NA
ATOM     19  C   UNL     1      -3.766   0.956  24.154  0.00  0.00    +0.218 A 
ATOM     22  C   UNL     1      -2.901   2.862  24.332  0.00  0.00    +0.223 A 
BRANCH  22  23
ATOM     23  C   UNL     1      -2.696   4.198  24.905  0.00  0.00    +0.040 C 
ATOM     28  C   UNL     1      -3.142   4.269  26.408  0.00  0.00    +0.020 C 
ATOM     29  C   UNL     1      -3.512   5.299  24.141  0.00  0.00    +0.020 C 
ATOM     30  C   UNL     1      -1.215   4.734  24.907  0.00  0.00    +0.020 C 
ENDBRANCH  22  23
ENDBRANCH  15  19
ENDBRANCH  10  15
TORSDOF 9
ENDMDL
MODEL 4
REMARK VINA RESULT:      -1.6      1.778      4.110
REMARK  Name = 38031153
REMARK  15 active torsions:
REMARK  status: ('A' for Active; 'I' for Inactive)
REMARK    1  A    between atoms: N_3  and  C_14
REMARK    2  A    between atoms: N_3  and  C_20
REMARK    3  A    between atoms: N_4  and  C_21
REMARK    4  A    between atoms: C_7  and  C_11
REMARK    5  A    between atoms: C_8  and  C_14
REMARK    6  A    between atoms: C_10  and  C_15
REMARK    7  A    between atoms: C_11  and  C_16
REMARK    8  A    between atoms: C_11  and  C_17
REMARK    9  A    between atoms: C_12  and  C_18
REMARK   10  A    between atoms: C_15  and  C_19
REMARK   11  A    between atoms: C_20  and  C_21
REMARK   12  A    between atoms: C_22  and  C_23
REMARK   13  A    between atoms: C_23  and  C_28
REMARK   14  A    between atoms: C_23  and  C_29
REMARK   15  A    between atoms: C_23  and  C_30
REMARK                            x       y       z     vdW  Elec       q    Type
REMARK                         _______ _______ _______ _____ _____    ______ ____
ROOT
ATOM      7  C   UNL     1      -1.646   3.933  24.665  0.00  0.00    +0.000 C 
ATOM      8  C   UNL     1      -1.651   3.177  26.017  0.00  0.00    +0.029 C 
ATOM      9  C   UNL     1      -2.935   4.755  24.505  0.00  0.00    +0.012 C 
ATOM     10  C   UNL     1      -4.198   3.874  24.567  0.00  0.00    +0.024 C 
ATOM     12  C   UNL     1      -4.152   2.906  25.731  0.00  0.00    -0.073 C 
ATOM     13  C   UNL     1      -3.008   2.617  26.376  0.00  0.00    -0.023 C 
ATOM     18  C   UNL     1      -5.462   2.312  26.169  0.00  0.00    +0.039 C 
ENDROOT
BRANCH   7  11
ATOM     11  C   UNL     1      -0.427   4.851  24.530  0.00  0.00    -0.013 C 
ATOM     16  C   UNL     1       0.162   4.752  23.127  0.00  0.00    +0.007 C 
ATOM     17  C   UNL     1      -0.807   6.292  24.858  0.00  0.00    +0.007 C 
ENDBRANCH   7  11
BRANCH   8  14
ATOM     14  C   UNL     1      -0.615   2.048  26.023  0.00  0.00    +0.088 C 
BRANCH  14   3
ATOM      3  N   UNL     1      -0.532   1.420  24.715  0.00  0.00    -0.314 NA
ATOM     31  H   UNL     1      -0.946   0.489  24.738  0.00  0.00    +0.122 HD
BRANCH   3  20
ATOM     20  C   UNL     1       0.852   1.321  24.266  0.00  0.00    +0.096 C 
BRANCH  20  21
ATOM     21  C   UNL     1       0.958   0.345  23.099  0.00  0.00    +0.099 C 
BRANCH  21   4
ATOM      2  O   UNL     1       5.074  -0.227  23.682  0.00  0.00    -0.377 OA
ATOM      4  N   UNL     1       2.355  -0.013  22.867  0.00  0.00    -0.297 NA
ATOM     24  C   UNL     1       2.794  -1.045  23.816  0.00  0.00    +0.112 C 
ATOM     25  C   UNL     1       3.221   1.170  22.974  0.00  0.00    +0.112 C 
ATOM     26  C   UNL     1       4.259  -1.393  23.564  0.00  0.00    +0.175 C 
ATOM     27  C   UNL     1       4.676   0.769  22.740  0.00  0.00    +0.175 C 
ENDBRANCH  21   4
ENDBRANCH  20  21
ENDBRANCH   3  20
ENDBRANCH  14   3
ENDBRANCH   8  14
BRANCH  10  15
ATOM     15  C   UNL     1      -4.419   3.133  23.245  0.00  0.00    +0.105 C 
BRANCH  15  19
ATOM      1  O   UNL     1      -4.021   0.849  24.008  0.00  0.00    -0.424 OA
ATOM      5  N   UNL     1      -2.579   1.560  22.453  0.00  0.00    -0.112 NA
ATOM      6  N   UNL     1      -2.239   0.263  22.790  0.00  0.00    -0.112 NA
ATOM     19  C   UNL     1      -3.623   1.861  23.187  0.00  0.00    +0.218 A 
ATOM     22  C   UNL     1      -3.108  -0.111  23.700  0.00  0.00    +0.223 A 
BRANCH  22  23
ATOM     23  C   UNL     1      -3.226  -1.391  24.409  0.00  0.00    +0.040 C 
ATOM     28  C   UNL     1      -3.583  -1.195  25.924  0.00  0.00    +0.020 C 
ATOM     29  C   UNL     1      -1.893  -2.216  24.363  0.00  0.00    +0.020 C 
ATOM     30  C   UNL     1      -4.323  -2.384  23.871  0.00  0.00    +0.020 C 
ENDBRANCH  22  23
ENDBRANCH  15  19
ENDBRANCH  10  15
TORSDOF 9
ENDMDL
MODEL 5
REMARK VINA RESULT:       0.3      2.138      6.931
REMARK  Name = 38031153
REMARK  15 active torsions:
REMARK  status: ('A' for Active; 'I' for Inactive)
REMARK    1  A    between atoms: N_3  and  C_14
REMARK    2  A    between atoms: N_3  and  C_20
REMARK    3  A    between atoms: N_4  and  C_21
REMARK    4  A    between atoms: C_7  and  C_11
REMARK    5  A    between atoms: C_8  and  C_14
REMARK    6  A    between atoms: C_10  and  C_15
REMARK    7  A    between atoms: C_11  and  C_16
REMARK    8  A    between atoms: C_11  and  C_17
REMARK    9  A    between atoms: C_12  and  C_18
REMARK   10  A    between atoms: C_15  and  C_19
REMARK   11  A    between atoms: C_20  and  C_21
REMARK   12  A    between atoms: C_22  and  C_23
REMARK   13  A    between atoms: C_23  and  C_28
REMARK   14  A    between atoms: C_23  and  C_29
REMARK   15  A    between atoms: C_23  and  C_30
REMARK                            x       y       z     vdW  Elec       q    Type
REMARK                         _______ _______ _______ _____ _____    ______ ____
ROOT
ATOM      7  C   UNL     1      -3.301   1.106  23.414  0.00  0.00    +0.000 C 
ATOM      8  C   UNL     1      -4.669   0.519  23.844  0.00  0.00    +0.029 C 
ATOM      9  C   UNL     1      -2.298  -0.024  23.133  0.00  0.00    +0.012 C 
ATOM     10  C   UNL     1      -2.078  -0.927  24.362  0.00  0.00    +0.024 C 
ATOM     12  C   UNL     1      -3.388  -1.330  25.005  0.00  0.00    -0.073 C 
ATOM     13  C   UNL     1      -4.539  -0.681  24.752  0.00  0.00    -0.023 C 
ATOM     18  C   UNL     1      -3.356  -2.528  25.914  0.00  0.00    +0.039 C 
ENDROOT
BRANCH   7  11
ATOM     11  C   UNL     1      -3.428   2.004  22.181  0.00  0.00    -0.013 C 
ATOM     16  C   UNL     1      -3.897   3.399  22.583  0.00  0.00    +0.007 C 
ATOM     17  C   UNL     1      -2.100   2.074  21.433  0.00  0.00    +0.007 C 
ENDBRANCH   7  11
BRANCH   8  14
ATOM     14  C   UNL     1      -5.537   1.584  24.525  0.00  0.00    +0.088 C 
BRANCH  14   3
ATOM      3  N   UNL     1      -5.468   1.454  25.971  0.00  0.00    -0.314 NA
ATOM     31  H   UNL     1      -6.287   0.962  26.326  0.00  0.00    +0.122 HD
BRANCH   3  20
ATOM     20  C   UNL     1      -5.375   2.760  26.612  0.00  0.00    +0.096 C 
BRANCH  20  21
ATOM     21  C   UNL     1      -4.904   3.807  25.607  0.00  0.00    +0.099 C 
BRANCH  21   4
ATOM      2  O   UNL     1      -0.747   4.302  25.312  0.00  0.00    -0.377 OA
ATOM      4  N   UNL     1      -3.530   4.207  25.903  0.00  0.00    -0.297 NA
ATOM     24  C   UNL     1      -2.999   5.073  24.841  0.00  0.00    +0.112 C 
ATOM     25  C   UNL     1      -2.668   3.028  26.068  0.00  0.00    +0.112 C 
ATOM     26  C   UNL     1      -1.560   5.467  25.165  0.00  0.00    +0.175 C 
ATOM     27  C   UNL     1      -1.237   3.471  26.364  0.00  0.00    +0.175 C 
ENDBRANCH  21   4
ENDBRANCH  20  21
ENDBRANCH   3  20
ENDBRANCH  14   3
ENDBRANCH   8  14
BRANCH  10  15
ATOM     15  C   UNL     1      -1.149  -0.257  25.380  0.00  0.00    +0.105 C 
BRANCH  15  19
ATOM      1  O   UNL     1       0.899  -0.324  24.055  0.00  0.00    -0.424 OA
ATOM      5  N   UNL     1       0.248   1.736  24.633  0.00  0.00    -0.112 NA
ATOM      6  N   UNL     1       1.410   1.847  23.891  0.00  0.00    -0.112 NA
ATOM     19  C   UNL     1      -0.012   0.453  24.703  0.00  0.00    +0.218 A 
ATOM     22  C   UNL     1       1.753   0.620  23.576  0.00  0.00    +0.223 A 
BRANCH  22  23
ATOM     23  C   UNL     1       2.900   0.142  22.795  0.00  0.00    +0.040 C 
ATOM     28  C   UNL     1       3.996   1.250  22.618  0.00  0.00    +0.020 C 
ATOM     29  C   UNL     1       2.482  -0.314  21.353  0.00  0.00    +0.020 C 
ATOM     30  C   UNL     1       3.679  -1.092  23.388  0.00  0.00    +0.020 C 
ENDBRANCH  22  23
ENDBRANCH  15  19
ENDBRANCH  10  15
TORSDOF 9
ENDMDL
