MODEL 1
REMARK VINA RESULT:      -3.9      0.000      0.000
REMARK  Name = 7049301
REMARK  11 active torsions:
REMARK  status: ('A' for Active; 'I' for Inactive)
REMARK    1  A    between atoms: O_1  and  C_17
REMARK    2  A    between atoms: O_2  and  C_18
REMARK    3  A    between atoms: N_6  and  C_10
REMARK    4  A    between atoms: N_7  and  C_16
REMARK    5  A    between atoms: N_8  and  C_24
REMARK    6  A    between atoms: C_20  and  C_23
REMARK    7  A    between atoms: C_24  and  C_25
REMARK    8  A    between atoms: C_24  and  C_27
REMARK    9  A    between atoms: C_25  and  C_26
REMARK   10  A    between atoms: C_26  and  C_28
REMARK   11  A    between atoms: C_26  and  C_29
REMARK                            x       y       z     vdW  Elec       q    Type
REMARK                         _______ _______ _______ _____ _____    ______ ____
ROOT
ATOM     16  C   UNL     1      12.937  -6.438  30.858  0.00  0.00    +0.129 C 
ATOM     17  C   UNL     1      13.470  -6.230  32.288  0.00  0.00    +0.167 C 
ATOM     18  C   UNL     1      14.735  -5.362  32.297  0.00  0.00    +0.149 C 
ATOM     19  C   UNL     1      15.839  -5.939  31.394  0.00  0.00    +0.074 C 
ATOM     20  C   UNL     1      15.316  -6.531  30.117  0.00  0.00    +0.015 C 
ATOM     21  C   UNL     1      14.018  -6.752  29.860  0.00  0.00    +0.006 C 
ENDROOT
BRANCH  16   7
ATOM      3  O   UNL     1      10.754  -6.845  32.700  0.00  0.00    -0.253 OA
ATOM      6  N   UNL     1      10.094  -8.689  31.458  0.00  0.00    -0.297 N 
ATOM      7  N   UNL     1      11.939  -7.478  30.807  0.00  0.00    -0.291 N 
ATOM     22  C   UNL     1      10.915  -7.601  31.744  0.00  0.00    +0.300 C 
ATOM     30  H   UNL     1      10.269  -9.207  30.601  0.00  0.00    +0.151 HD
ATOM     31  H   UNL     1      12.009  -8.186  30.082  0.00  0.00    +0.151 HD
BRANCH   6  10
ATOM     10  C   UNL     1       8.954  -9.046  32.271  0.00  0.00    +0.074 C 
ATOM     11  C   UNL     1       7.764  -8.123  31.986  0.00  0.00    +0.022 C 
ATOM     12  C   UNL     1       8.575 -10.517  32.075  0.00  0.00    +0.022 C 
ATOM     13  C   UNL     1       7.131  -8.391  30.620  0.00  0.00    +0.002 C 
ATOM     14  C   UNL     1       7.940 -10.781  30.709  0.00  0.00    +0.002 C 
ATOM     15  C   UNL     1       6.753  -9.859  30.452  0.00  0.00    +0.000 C 
ENDBRANCH   6  10
ENDBRANCH  16   7
BRANCH  20  23
ATOM      4  O   UNL     1      17.405  -7.272  29.360  0.00  0.00    -0.271 OA
ATOM      8  N   UNL     1      15.777  -6.692  27.793  0.00  0.00    -0.300 N 
ATOM     23  C   UNL     1      16.282  -6.873  29.069  0.00  0.00    +0.241 C 
ATOM     33  H   UNL     1      14.794  -6.493  27.655  0.00  0.00    +0.150 HD
BRANCH   8  24
ATOM     24  C   UNL     1      16.541  -6.958  26.603  0.00  0.00    +0.159 C 
BRANCH  24  27
ATOM      5  O   UNL     1      15.912  -9.253  27.104  0.00  0.00    -0.274 OA
ATOM      9  N   UNL     1      16.964  -8.813  25.110  0.00  0.00    -0.328 N 
ATOM     27  C   UNL     1      16.441  -8.454  26.335  0.00  0.00    +0.231 C 
ATOM     35  H   UNL     1      17.378  -8.140  24.475  0.00  0.00    +0.145 HD
ATOM     36  H   UNL     1      16.949  -9.780  24.801  0.00  0.00    +0.145 HD
ENDBRANCH  24  27
BRANCH  24  25
ATOM     25  C   UNL     1      16.029  -6.166  25.394  0.00  0.00    +0.034 C 
BRANCH  25  26
ATOM     26  C   UNL     1      17.047  -5.178  24.788  0.00  0.00    -0.015 C 
ATOM     28  C   UNL     1      16.647  -3.743  25.142  0.00  0.00    +0.007 C 
ATOM     29  C   UNL     1      17.164  -5.320  23.270  0.00  0.00    +0.007 C 
ENDBRANCH  25  26
ENDBRANCH  24  25
ENDBRANCH   8  24
ENDBRANCH  20  23
BRANCH  17   1
ATOM      1  O   UNL     1      13.779  -7.497  32.873  0.00  0.00    -0.387 OA
ATOM     32  H   UNL     1      14.729  -7.654  32.743  0.00  0.00    +0.210 HD
ENDBRANCH  17   1
BRANCH  18   2
ATOM      2  O   UNL     1      14.418  -4.031  31.894  0.00  0.00    -0.389 OA
ATOM     34  H   UNL     1      15.233  -3.504  31.958  0.00  0.00    +0.210 HD
ENDBRANCH  18   2
TORSDOF 9
ENDMDL
MODEL 2
REMARK VINA RESULT:      -3.5      1.229      2.395
REMARK  Name = 7049301
REMARK  11 active torsions:
REMARK  status: ('A' for Active; 'I' for Inactive)
REMARK    1  A    between atoms: O_1  and  C_17
REMARK    2  A    between atoms: O_2  and  C_18
REMARK    3  A    between atoms: N_6  and  C_10
REMARK    4  A    between atoms: N_7  and  C_16
REMARK    5  A    between atoms: N_8  and  C_24
REMARK    6  A    between atoms: C_20  and  C_23
REMARK    7  A    between atoms: C_24  and  C_25
REMARK    8  A    between atoms: C_24  and  C_27
REMARK    9  A    between atoms: C_25  and  C_26
REMARK   10  A    between atoms: C_26  and  C_28
REMARK   11  A    between atoms: C_26  and  C_29
REMARK                            x       y       z     vdW  Elec       q    Type
REMARK                         _______ _______ _______ _____ _____    ______ ____
ROOT
ATOM     16  C   UNL     1      12.975  -6.464  30.896  0.00  0.00    +0.129 C 
ATOM     17  C   UNL     1      13.669  -6.181  32.243  0.00  0.00    +0.167 C 
ATOM     18  C   UNL     1      14.944  -5.349  32.055  0.00  0.00    +0.149 C 
ATOM     19  C   UNL     1      15.930  -6.013  31.077  0.00  0.00    +0.074 C 
ATOM     20  C   UNL     1      15.255  -6.670  29.906  0.00  0.00    +0.015 C 
ATOM     21  C   UNL     1      13.933  -6.871  29.808  0.00  0.00    +0.006 C 
ENDROOT
BRANCH  16   7
ATOM      3  O   UNL     1      10.781  -6.496  32.769  0.00  0.00    -0.253 OA
ATOM      6  N   UNL     1      10.087  -8.518  31.868  0.00  0.00    -0.297 N 
ATOM      7  N   UNL     1      11.957  -7.477  31.025  0.00  0.00    -0.291 N 
ATOM     22  C   UNL     1      10.928  -7.412  31.962  0.00  0.00    +0.300 C 
ATOM     30  H   UNL     1      10.253  -9.182  31.117  0.00  0.00    +0.151 HD
ATOM     31  H   UNL     1      12.015  -8.303  30.436  0.00  0.00    +0.151 HD
BRANCH   6  10
ATOM     10  C   UNL     1       8.937  -8.703  32.725  0.00  0.00    +0.074 C 
ATOM     11  C   UNL     1       7.735  -7.903  32.213  0.00  0.00    +0.022 C 
ATOM     12  C   UNL     1       8.594 -10.188  32.873  0.00  0.00    +0.022 C 
ATOM     13  C   UNL     1       7.136  -8.498  30.938  0.00  0.00    +0.002 C 
ATOM     14  C   UNL     1       7.993 -10.780  31.598  0.00  0.00    +0.002 C 
ATOM     15  C   UNL     1       6.792  -9.974  31.114  0.00  0.00    +0.000 C 
ENDBRANCH   6  10
ENDBRANCH  16   7
BRANCH  20  23
ATOM      4  O   UNL     1      17.278  -7.365  28.951  0.00  0.00    -0.271 OA
ATOM      8  N   UNL     1      15.394  -7.171  27.590  0.00  0.00    -0.300 N 
ATOM     23  C   UNL     1      16.091  -7.104  28.784  0.00  0.00    +0.241 C 
ATOM     33  H   UNL     1      14.387  -7.070  27.578  0.00  0.00    +0.150 HD
BRANCH   8  24
ATOM     24  C   UNL     1      16.004  -7.568  26.348  0.00  0.00    +0.159 C 
BRANCH  24  27
ATOM      5  O   UNL     1      17.177  -6.266  24.663  0.00  0.00    -0.274 OA
ATOM      9  N   UNL     1      16.884  -5.352  26.750  0.00  0.00    -0.328 N 
ATOM     27  C   UNL     1      16.760  -6.358  25.815  0.00  0.00    +0.231 C 
ATOM     35  H   UNL     1      16.515  -5.433  27.691  0.00  0.00    +0.145 HD
ATOM     36  H   UNL     1      17.357  -4.484  26.520  0.00  0.00    +0.145 HD
ENDBRANCH  24  27
BRANCH  24  25
ATOM     25  C   UNL     1      16.959  -8.756  26.522  0.00  0.00    +0.034 C 
BRANCH  25  26
ATOM     26  C   UNL     1      16.315 -10.141  26.306  0.00  0.00    -0.015 C 
ATOM     28  C   UNL     1      15.831 -10.265  24.858  0.00  0.00    +0.007 C 
ATOM     29  C   UNL     1      15.149 -10.397  27.262  0.00  0.00    +0.007 C 
ENDBRANCH  25  26
ENDBRANCH  24  25
ENDBRANCH   8  24
ENDBRANCH  20  23
BRANCH  17   1
ATOM      1  O   UNL     1      14.015  -7.416  32.872  0.00  0.00    -0.387 OA
ATOM     32  H   UNL     1      13.549  -7.449  33.725  0.00  0.00    +0.210 HD
ENDBRANCH  17   1
BRANCH  18   2
ATOM      2  O   UNL     1      14.613  -4.038  31.602  0.00  0.00    -0.389 OA
ATOM     34  H   UNL     1      15.027  -3.404  32.211  0.00  0.00    +0.210 HD
ENDBRANCH  18   2
TORSDOF 9
ENDMDL
MODEL 3
REMARK VINA RESULT:      -2.7     15.494     19.252
REMARK  Name = 7049301
REMARK  11 active torsions:
REMARK  status: ('A' for Active; 'I' for Inactive)
REMARK    1  A    between atoms: O_1  and  C_17
REMARK    2  A    between atoms: O_2  and  C_18
REMARK    3  A    between atoms: N_6  and  C_10
REMARK    4  A    between atoms: N_7  and  C_16
REMARK    5  A    between atoms: N_8  and  C_24
REMARK    6  A    between atoms: C_20  and  C_23
REMARK    7  A    between atoms: C_24  and  C_25
REMARK    8  A    between atoms: C_24  and  C_27
REMARK    9  A    between atoms: C_25  and  C_26
REMARK   10  A    between atoms: C_26  and  C_28
REMARK   11  A    between atoms: C_26  and  C_29
REMARK                            x       y       z     vdW  Elec       q    Type
REMARK                         _______ _______ _______ _____ _____    ______ ____
ROOT
ATOM     16  C   UNL     1      -1.280  -0.892  23.970  0.00  0.00    +0.129 C 
ATOM     17  C   UNL     1      -1.503  -1.931  25.086  0.00  0.00    +0.167 C 
ATOM     18  C   UNL     1      -2.982  -2.316  25.209  0.00  0.00    +0.149 C 
ATOM     19  C   UNL     1      -3.883  -1.089  25.435  0.00  0.00    +0.074 C 
ATOM     20  C   UNL     1      -3.461   0.114  24.641  0.00  0.00    +0.015 C 
ATOM     21  C   UNL     1      -2.302   0.213  23.973  0.00  0.00    +0.006 C 
ENDROOT
BRANCH  16   7
ATOM      3  O   UNL     1       0.771  -0.984  21.943  0.00  0.00    -0.253 OA
ATOM      6  N   UNL     1       2.157   0.247  23.338  0.00  0.00    -0.297 N 
ATOM      7  N   UNL     1       0.037  -0.310  24.039  0.00  0.00    -0.291 N 
ATOM     22  C   UNL     1       0.969  -0.403  23.008  0.00  0.00    +0.300 C 
ATOM     30  H   UNL     1       2.193   0.760  24.213  0.00  0.00    +0.151 HD
ATOM     31  H   UNL     1       0.321   0.152  24.898  0.00  0.00    +0.151 HD
BRANCH   6  10
ATOM     10  C   UNL     1       3.293   0.303  22.446  0.00  0.00    +0.074 C 
ATOM     11  C   UNL     1       4.258   1.421  22.855  0.00  0.00    +0.022 C 
ATOM     12  C   UNL     1       4.008  -1.050  22.377  0.00  0.00    +0.022 C 
ATOM     13  C   UNL     1       5.022   1.093  24.138  0.00  0.00    +0.002 C 
ATOM     14  C   UNL     1       4.773  -1.374  23.661  0.00  0.00    +0.002 C 
ATOM     15  C   UNL     1       5.734  -0.252  24.042  0.00  0.00    +0.000 C 
ENDBRANCH   6  10
ENDBRANCH  16   7
BRANCH  20  23
ATOM      4  O   UNL     1      -5.580   1.076  24.376  0.00  0.00    -0.271 OA
ATOM      8  N   UNL     1      -3.746   2.469  24.742  0.00  0.00    -0.300 N 
ATOM     23  C   UNL     1      -4.382   1.252  24.571  0.00  0.00    +0.241 C 
ATOM     33  H   UNL     1      -2.777   2.504  25.035  0.00  0.00    +0.150 HD
BRANCH   8  24
ATOM     24  C   UNL     1      -4.442   3.728  24.709  0.00  0.00    +0.159 C 
BRANCH  24  27
ATOM      5  O   UNL     1      -5.489   2.856  26.722  0.00  0.00    -0.274 OA
ATOM      9  N   UNL     1      -6.388   4.728  25.740  0.00  0.00    -0.328 N 
ATOM     27  C   UNL     1      -5.481   3.692  25.821  0.00  0.00    +0.231 C 
ATOM     35  H   UNL     1      -6.356   5.424  25.003  0.00  0.00    +0.145 HD
ATOM     36  H   UNL     1      -7.127   4.828  26.428  0.00  0.00    +0.145 HD
ENDBRANCH  24  27
BRANCH  24  25
ATOM     25  C   UNL     1      -3.497   4.921  24.904  0.00  0.00    +0.034 C 
BRANCH  25  26
ATOM     26  C   UNL     1      -1.996   4.564  24.909  0.00  0.00    -0.015 C 
ATOM     28  C   UNL     1      -1.668   3.732  26.152  0.00  0.00    +0.007 C 
ATOM     29  C   UNL     1      -1.103   5.805  24.869  0.00  0.00    +0.007 C 
ENDBRANCH  25  26
ENDBRANCH  24  25
ENDBRANCH   8  24
ENDBRANCH  20  23
BRANCH  17   1
ATOM      1  O   UNL     1      -1.062  -1.393  26.335  0.00  0.00    -0.387 OA
ATOM     32  H   UNL     1      -1.819  -0.935  26.738  0.00  0.00    +0.210 HD
ENDBRANCH  17   1
BRANCH  18   2
ATOM      2  O   UNL     1      -3.403  -3.025  24.046  0.00  0.00    -0.389 OA
ATOM     34  H   UNL     1      -3.734  -3.893  24.335  0.00  0.00    +0.210 HD
ENDBRANCH  18   2
TORSDOF 9
ENDMDL
MODEL 4
REMARK VINA RESULT:      -2.5      2.340      3.548
REMARK  Name = 7049301
REMARK  11 active torsions:
REMARK  status: ('A' for Active; 'I' for Inactive)
REMARK    1  A    between atoms: O_1  and  C_17
REMARK    2  A    between atoms: O_2  and  C_18
REMARK    3  A    between atoms: N_6  and  C_10
REMARK    4  A    between atoms: N_7  and  C_16
REMARK    5  A    between atoms: N_8  and  C_24
REMARK    6  A    between atoms: C_20  and  C_23
REMARK    7  A    between atoms: C_24  and  C_25
REMARK    8  A    between atoms: C_24  and  C_27
REMARK    9  A    between atoms: C_25  and  C_26
REMARK   10  A    between atoms: C_26  and  C_28
REMARK   11  A    between atoms: C_26  and  C_29
REMARK                            x       y       z     vdW  Elec       q    Type
REMARK                         _______ _______ _______ _____ _____    ______ ____
ROOT
ATOM     16  C   UNL     1      12.714  -8.441  32.100  0.00  0.00    +0.129 C 
ATOM     17  C   UNL     1      13.004  -9.910  31.739  0.00  0.00    +0.167 C 
ATOM     18  C   UNL     1      14.496 -10.138  31.466  0.00  0.00    +0.149 C 
ATOM     19  C   UNL     1      15.033  -9.203  30.368  0.00  0.00    +0.074 C 
ATOM     20  C   UNL     1      14.462  -7.815  30.436  0.00  0.00    +0.015 C 
ATOM     21  C   UNL     1      13.430  -7.458  31.213  0.00  0.00    +0.006 C 
ENDROOT
BRANCH  16   7
ATOM      3  O   UNL     1      10.564 -10.203  32.873  0.00  0.00    -0.253 OA
ATOM      6  N   UNL     1       9.047  -8.534  32.333  0.00  0.00    -0.297 N 
ATOM      7  N   UNL     1      11.301  -8.154  32.070  0.00  0.00    -0.291 N 
ATOM     22  C   UNL     1      10.327  -9.069  32.463  0.00  0.00    +0.300 C 
ATOM     30  H   UNL     1       8.962  -7.560  32.055  0.00  0.00    +0.151 HD
ATOM     31  H   UNL     1      10.993  -7.259  31.700  0.00  0.00    +0.151 HD
BRANCH   6  10
ATOM     10  C   UNL     1       7.851  -9.271  32.671  0.00  0.00    +0.074 C 
ATOM     11  C   UNL     1       6.596  -8.534  32.191  0.00  0.00    +0.022 C 
ATOM     12  C   UNL     1       7.905 -10.697  32.113  0.00  0.00    +0.022 C 
ATOM     13  C   UNL     1       6.438  -8.577  30.671  0.00  0.00    +0.002 C 
ATOM     14  C   UNL     1       7.745 -10.736  30.593  0.00  0.00    +0.002 C 
ATOM     15  C   UNL     1       6.484 -10.006  30.140  0.00  0.00    +0.000 C 
ENDBRANCH   6  10
ENDBRANCH  16   7
BRANCH  20  23
ATOM      4  O   UNL     1      14.440  -6.191  28.748  0.00  0.00    -0.271 OA
ATOM      8  N   UNL     1      16.413  -6.557  29.937  0.00  0.00    -0.300 N 
ATOM     23  C   UNL     1      15.085  -6.773  29.615  0.00  0.00    +0.241 C 
ATOM     33  H   UNL     1      16.817  -6.988  30.759  0.00  0.00    +0.150 HD
BRANCH   8  24
ATOM     24  C   UNL     1      17.234  -5.585  29.264  0.00  0.00    +0.159 C 
BRANCH  24  27
ATOM      5  O   UNL     1      17.399  -7.128  27.393  0.00  0.00    -0.274 OA
ATOM      9  N   UNL     1      17.089  -4.896  26.950  0.00  0.00    -0.328 N 
ATOM     27  C   UNL     1      17.269  -5.973  27.792  0.00  0.00    +0.231 C 
ATOM     35  H   UNL     1      16.960  -3.950  27.295  0.00  0.00    +0.145 HD
ATOM     36  H   UNL     1      17.078  -5.018  25.943  0.00  0.00    +0.145 HD
ENDBRANCH  24  27
BRANCH  24  25
ATOM     25  C   UNL     1      16.696  -4.158  29.424  0.00  0.00    +0.034 C 
BRANCH  25  26
ATOM     26  C   UNL     1      17.003  -3.498  30.784  0.00  0.00    -0.015 C 
ATOM     28  C   UNL     1      15.787  -3.627  31.706  0.00  0.00    +0.007 C 
ATOM     29  C   UNL     1      17.388  -2.025  30.643  0.00  0.00    +0.007 C 
ENDBRANCH  25  26
ENDBRANCH  24  25
ENDBRANCH   8  24
ENDBRANCH  20  23
BRANCH  17   1
ATOM      1  O   UNL     1      12.263 -10.272  30.573  0.00  0.00    -0.387 OA
ATOM     32  H   UNL     1      11.739  -9.497  30.308  0.00  0.00    +0.210 HD
ENDBRANCH  17   1
BRANCH  18   2
ATOM      2  O   UNL     1      15.247  -9.965  32.666  0.00  0.00    -0.389 OA
ATOM     34  H   UNL     1      16.153 -10.271  32.491  0.00  0.00    +0.210 HD
ENDBRANCH  18   2
TORSDOF 9
ENDMDL
MODEL 5
REMARK VINA RESULT:      -1.5     14.974     18.617
REMARK  Name = 7049301
REMARK  11 active torsions:
REMARK  status: ('A' for Active; 'I' for Inactive)
REMARK    1  A    between atoms: O_1  and  C_17
REMARK    2  A    between atoms: O_2  and  C_18
REMARK    3  A    between atoms: N_6  and  C_10
REMARK    4  A    between atoms: N_7  and  C_16
REMARK    5  A    between atoms: N_8  and  C_24
REMARK    6  A    between atoms: C_20  and  C_23
REMARK    7  A    between atoms: C_24  and  C_25
REMARK    8  A    between atoms: C_24  and  C_27
REMARK    9  A    between atoms: C_25  and  C_26
REMARK   10  A    between atoms: C_26  and  C_28
REMARK   11  A    between atoms: C_26  and  C_29
REMARK                            x       y       z     vdW  Elec       q    Type
REMARK                         _______ _______ _______ _____ _____    ______ ____
ROOT
ATOM     16  C   UNL     1      -0.596   2.949  25.700  0.00  0.00    +0.129 C 
ATOM     17  C   UNL     1      -0.987   4.243  24.960  0.00  0.00    +0.167 C 
ATOM     18  C   UNL     1      -2.458   4.607  25.202  0.00  0.00    +0.149 C 
ATOM     19  C   UNL     1      -3.409   3.461  24.814  0.00  0.00    +0.074 C 
ATOM     20  C   UNL     1      -2.880   2.101  25.170  0.00  0.00    +0.015 C 
ATOM     21  C   UNL     1      -1.625   1.858  25.576  0.00  0.00    +0.006 C 
ENDROOT
BRANCH  16   7
ATOM      3  O   UNL     1      -0.075   1.439  23.298  0.00  0.00    -0.253 OA
ATOM      6  N   UNL     1       2.169   1.354  23.880  0.00  0.00    -0.297 N 
ATOM      7  N   UNL     1       0.677   2.443  25.251  0.00  0.00    -0.291 N 
ATOM     22  C   UNL     1       0.839   1.719  24.072  0.00  0.00    +0.300 C 
ATOM     30  H   UNL     1       2.860   1.698  24.540  0.00  0.00    +0.151 HD
ATOM     31  H   UNL     1       1.492   2.577  25.844  0.00  0.00    +0.151 HD
BRANCH   6  10
ATOM     10  C   UNL     1       2.616   0.594  22.734  0.00  0.00    +0.074 C 
ATOM     11  C   UNL     1       4.018   1.032  22.296  0.00  0.00    +0.022 C 
ATOM     12  C   UNL     1       2.567  -0.910  23.015  0.00  0.00    +0.022 C 
ATOM     13  C   UNL     1       5.103   0.581  23.274  0.00  0.00    +0.002 C 
ATOM     14  C   UNL     1       3.654  -1.359  23.992  0.00  0.00    +0.002 C 
ATOM     15  C   UNL     1       5.041  -0.922  23.531  0.00  0.00    +0.000 C 
ENDBRANCH   6  10
ENDBRANCH  16   7
BRANCH  20  23
ATOM      4  O   UNL     1      -5.002   1.138  24.930  0.00  0.00    -0.271 OA
ATOM      8  N   UNL     1      -3.154  -0.257  25.211  0.00  0.00    -0.300 N 
ATOM     23  C   UNL     1      -3.798   0.961  25.089  0.00  0.00    +0.241 C 
ATOM     33  H   UNL     1      -2.142  -0.305  25.200  0.00  0.00    +0.150 HD
BRANCH   8  24
ATOM     24  C   UNL     1      -3.846  -1.518  25.167  0.00  0.00    +0.159 C 
BRANCH  24  27
ATOM      5  O   UNL     1      -3.990  -0.978  22.801  0.00  0.00    -0.274 OA
ATOM      9  N   UNL     1      -4.823  -2.995  23.520  0.00  0.00    -0.328 N 
ATOM     27  C   UNL     1      -4.227  -1.766  23.714  0.00  0.00    +0.231 C 
ATOM     35  H   UNL     1      -4.992  -3.645  24.280  0.00  0.00    +0.145 HD
ATOM     36  H   UNL     1      -5.116  -3.291  22.595  0.00  0.00    +0.145 HD
ENDBRANCH  24  27
BRANCH  24  25
ATOM     25  C   UNL     1      -2.986  -2.673  25.696  0.00  0.00    +0.034 C 
BRANCH  25  26
ATOM     26  C   UNL     1      -1.507  -2.629  25.264  0.00  0.00    -0.015 C 
ATOM     28  C   UNL     1      -0.874  -1.312  25.721  0.00  0.00    +0.007 C 
ATOM     29  C   UNL     1      -1.337  -2.782  23.751  0.00  0.00    +0.007 C 
ENDBRANCH  25  26
ENDBRANCH  24  25
ENDBRANCH   8  24
ENDBRANCH  20  23
BRANCH  17   1
ATOM      1  O   UNL     1      -0.781   4.072  23.556  0.00  0.00    -0.387 OA
ATOM     32  H   UNL     1      -0.360   3.206  23.427  0.00  0.00    +0.210 HD
ENDBRANCH  17   1
BRANCH  18   2
ATOM      2  O   UNL     1      -2.656   4.966  26.568  0.00  0.00    -0.389 OA
ATOM     34  H   UNL     1      -2.433   5.908  26.659  0.00  0.00    +0.210 HD
ENDBRANCH  18   2
TORSDOF 9
ENDMDL
MODEL 6
REMARK VINA RESULT:      -0.1      2.489      3.656
REMARK  Name = 7049301
REMARK  11 active torsions:
REMARK  status: ('A' for Active; 'I' for Inactive)
REMARK    1  A    between atoms: O_1  and  C_17
REMARK    2  A    between atoms: O_2  and  C_18
REMARK    3  A    between atoms: N_6  and  C_10
REMARK    4  A    between atoms: N_7  and  C_16
REMARK    5  A    between atoms: N_8  and  C_24
REMARK    6  A    between atoms: C_20  and  C_23
REMARK    7  A    between atoms: C_24  and  C_25
REMARK    8  A    between atoms: C_24  and  C_27
REMARK    9  A    between atoms: C_25  and  C_26
REMARK   10  A    between atoms: C_26  and  C_28
REMARK   11  A    between atoms: C_26  and  C_29
REMARK                            x       y       z     vdW  Elec       q    Type
REMARK                         _______ _______ _______ _____ _____    ______ ____
ROOT
ATOM     16  C   UNL     1      11.810  -8.755  32.704  0.00  0.00    +0.129 C 
ATOM     17  C   UNL     1      11.818 -10.176  32.109  0.00  0.00    +0.167 C 
ATOM     18  C   UNL     1      13.233 -10.608  31.703  0.00  0.00    +0.149 C 
ATOM     19  C   UNL     1      13.882  -9.616  30.721  0.00  0.00    +0.074 C 
ATOM     20  C   UNL     1      13.571  -8.180  31.034  0.00  0.00    +0.015 C 
ATOM     21  C   UNL     1      12.652  -7.780  31.925  0.00  0.00    +0.006 C 
ENDROOT
BRANCH  16   7
ATOM      3  O   UNL     1       9.343 -10.245  32.568  0.00  0.00    -0.253 OA
ATOM      6  N   UNL     1       8.172  -8.267  32.873  0.00  0.00    -0.297 N 
ATOM      7  N   UNL     1      10.471  -8.231  32.813  0.00  0.00    -0.291 N 
ATOM     22  C   UNL     1       9.330  -9.027  32.735  0.00  0.00    +0.300 C 
ATOM     30  H   UNL     1       8.271  -7.277  33.082  0.00  0.00    +0.151 HD
ATOM     31  H   UNL     1      10.347  -7.227  32.905  0.00  0.00    +0.151 HD
BRANCH   6  10
ATOM     10  C   UNL     1       6.846  -8.843  32.830  0.00  0.00    +0.074 C 
ATOM     11  C   UNL     1       6.002  -8.198  31.725  0.00  0.00    +0.022 C 
ATOM     12  C   UNL     1       6.911 -10.364  32.663  0.00  0.00    +0.022 C 
ATOM     13  C   UNL     1       6.452  -8.618  30.326  0.00  0.00    +0.002 C 
ATOM     14  C   UNL     1       7.359 -10.780  31.262  0.00  0.00    +0.002 C 
ATOM     15  C   UNL     1       6.498 -10.136  30.180  0.00  0.00    +0.000 C 
ENDBRANCH   6  10
ENDBRANCH  16   7
BRANCH  20  23
ATOM      4  O   UNL     1      14.356  -5.990  30.760  0.00  0.00    -0.271 OA
ATOM      8  N   UNL     1      14.979  -7.615  29.207  0.00  0.00    -0.300 N 
ATOM     23  C   UNL     1      14.334  -7.141  30.336  0.00  0.00    +0.241 C 
ATOM     33  H   UNL     1      15.015  -8.609  29.017  0.00  0.00    +0.150 HD
BRANCH   8  24
ATOM     24  C   UNL     1      15.787  -6.780  28.357  0.00  0.00    +0.159 C 
BRANCH  24  27
ATOM      5  O   UNL     1      17.185  -4.951  29.140  0.00  0.00    -0.274 OA
ATOM      9  N   UNL     1      17.325  -6.977  30.214  0.00  0.00    -0.328 N 
ATOM     27  C   UNL     1      16.837  -6.126  29.244  0.00  0.00    +0.231 C 
ATOM     35  H   UNL     1      17.012  -7.938  30.303  0.00  0.00    +0.145 HD
ATOM     36  H   UNL     1      18.022  -6.662  30.880  0.00  0.00    +0.145 HD
ENDBRANCH  24  27
BRANCH  24  25
ATOM     25  C   UNL     1      16.462  -7.575  27.233  0.00  0.00    +0.034 C 
BRANCH  25  26
ATOM     26  C   UNL     1      15.907  -8.998  27.022  0.00  0.00    -0.015 C 
ATOM     28  C   UNL     1      17.007 -10.027  27.295  0.00  0.00    +0.007 C 
ATOM     29  C   UNL     1      15.349  -9.203  25.612  0.00  0.00    +0.007 C 
ENDBRANCH  25  26
ENDBRANCH  24  25
ENDBRANCH   8  24
ENDBRANCH  20  23
BRANCH  17   1
ATOM      1  O   UNL     1      10.976 -10.218  30.955  0.00  0.00    -0.387 OA
ATOM     32  H   UNL     1      11.525  -9.993  30.185  0.00  0.00    +0.210 HD
ENDBRANCH  17   1
BRANCH  18   2
ATOM      2  O   UNL     1      14.052 -10.757  32.860  0.00  0.00    -0.389 OA
ATOM     34  H   UNL     1      14.420  -9.883  33.074  0.00  0.00    +0.210 HD
ENDBRANCH  18   2
TORSDOF 9
ENDMDL
