MODEL 1
REMARK VINA RESULT:      -4.4      0.000      0.000
REMARK  Name = 51136940
REMARK  5 active torsions:
REMARK  status: ('A' for Active; 'I' for Inactive)
REMARK    1  A    between atoms: N_3  and  C_12
REMARK    2  A    between atoms: N_4  and  C_21
REMARK    3  A    between atoms: C_8  and  C_13
REMARK    4  A    between atoms: C_12  and  C_14
REMARK    5  A    between atoms: C_20  and  C_24
REMARK                            x       y       z     vdW  Elec       q    Type
REMARK                         _______ _______ _______ _____ _____    ______ ____
ROOT
ATOM      3  N   UNL     1      -2.986  -0.600  23.695  0.00  0.00    -0.287 NA
ATOM      8  C   UNL     1      -1.858  -0.249  24.580  0.00  0.00    +0.146 C 
ATOM      9  C   UNL     1      -1.926  -1.277  25.724  0.00  0.00    +0.030 C 
ATOM     10  C   UNL     1      -4.001  -1.226  24.544  0.00  0.00    +0.085 C 
ATOM     11  C   UNL     1      -3.157  -2.122  25.429  0.00  0.00    +0.017 C 
ENDROOT
BRANCH   8  13
ATOM      2  O   UNL     1      -0.571  -0.372  22.507  0.00  0.00    -0.336 OA
ATOM      5  N   UNL     1       0.684  -0.187  24.353  0.00  0.00    -0.189 NA
ATOM      6  N   UNL     1       0.761  -0.364  22.073  0.00  0.00    -0.054 NA
ATOM     13  C   UNL     1      -0.527  -0.263  23.860  0.00  0.00    +0.245 A 
ATOM     20  C   UNL     1       1.440  -0.253  23.218  0.00  0.00    +0.220 A 
BRANCH  20  24
ATOM      1  F   UNL     1       6.934  -0.232  23.464  0.00  0.00    -0.204 F 
ATOM      7  N   UNL     1       3.482  -1.311  23.745  0.00  0.00    -0.249 NA
ATOM     24  C   UNL     1       2.873  -0.203  23.265  0.00  0.00    +0.111 A 
ATOM     25  C   UNL     1       3.548   0.928  22.835  0.00  0.00    +0.034 A 
ATOM     26  C   UNL     1       4.937   0.922  22.902  0.00  0.00    +0.042 A 
ATOM     27  C   UNL     1       4.833  -1.280  23.795  0.00  0.00    +0.149 A 
ATOM     28  C   UNL     1       5.599  -0.198  23.389  0.00  0.00    +0.141 A 
ENDBRANCH  20  24
ENDBRANCH   8  13
BRANCH   3  12
ATOM     12  C   UNL     1      -3.517   0.543  22.960  0.00  0.00    +0.122 C 
BRANCH  12  14
ATOM      4  N   UNL     1      -4.631   3.261  25.176  0.00  0.00    -0.349 N 
ATOM     14  C   UNL     1      -3.701   1.744  23.850  0.00  0.00    -0.008 A 
ATOM     15  C   UNL     1      -2.701   2.688  24.215  0.00  0.00    +0.004 A 
ATOM     16  C   UNL     1      -4.876   2.123  24.456  0.00  0.00    +0.091 A 
ATOM     17  C   UNL     1      -3.311   3.630  25.048  0.00  0.00    +0.049 A 
ATOM     18  C   UNL     1      -1.332   2.833  23.917  0.00  0.00    +0.010 A 
ATOM     19  C   UNL     1      -2.617   4.712  25.599  0.00  0.00    +0.026 A 
ATOM     21  C   UNL     1      -5.628   3.964  25.956  0.00  0.00    +0.149 C 
ATOM     22  C   UNL     1      -0.625   3.912  24.461  0.00  0.00    +0.001 A 
ATOM     23  C   UNL     1      -1.259   4.835  25.289  0.00  0.00    +0.002 A 
ENDBRANCH  12  14
ENDBRANCH   3  12
TORSDOF 4
ENDMDL
MODEL 2
REMARK VINA RESULT:      -3.7      1.562      4.564
REMARK  Name = 51136940
REMARK  5 active torsions:
REMARK  status: ('A' for Active; 'I' for Inactive)
REMARK    1  A    between atoms: N_3  and  C_12
REMARK    2  A    between atoms: N_4  and  C_21
REMARK    3  A    between atoms: C_8  and  C_13
REMARK    4  A    between atoms: C_12  and  C_14
REMARK    5  A    between atoms: C_20  and  C_24
REMARK                            x       y       z     vdW  Elec       q    Type
REMARK                         _______ _______ _______ _____ _____    ______ ____
ROOT
ATOM      3  N   UNL     1      -1.835   2.774  25.339  0.00  0.00    -0.287 NA
ATOM      8  C   UNL     1      -1.346   2.930  23.954  0.00  0.00    +0.146 C 
ATOM      9  C   UNL     1      -0.841   4.382  23.881  0.00  0.00    +0.030 C 
ATOM     10  C   UNL     1      -2.258   4.103  25.781  0.00  0.00    +0.085 C 
ATOM     11  C   UNL     1      -1.143   4.980  25.248  0.00  0.00    +0.017 C 
ENDROOT
BRANCH   8  13
ATOM      2  O   UNL     1      -0.682   0.834  22.890  0.00  0.00    -0.336 OA
ATOM      5  N   UNL     1       1.003   1.934  23.872  0.00  0.00    -0.189 NA
ATOM      6  N   UNL     1       0.465   0.056  22.682  0.00  0.00    -0.054 NA
ATOM     13  C   UNL     1      -0.277   1.920  23.597  0.00  0.00    +0.245 A 
ATOM     20  C   UNL     1       1.416   0.771  23.291  0.00  0.00    +0.220 A 
BRANCH  20  24
ATOM      1  F   UNL     1       6.724  -0.662  23.419  0.00  0.00    -0.204 F 
ATOM      7  N   UNL     1       3.702   1.317  23.085  0.00  0.00    -0.249 NA
ATOM     24  C   UNL     1       2.787   0.352  23.335  0.00  0.00    +0.111 A 
ATOM     25  C   UNL     1       3.108  -0.966  23.617  0.00  0.00    +0.034 A 
ATOM     26  C   UNL     1       4.453  -1.317  23.647  0.00  0.00    +0.042 A 
ATOM     27  C   UNL     1       4.999   0.938  23.123  0.00  0.00    +0.149 A 
ATOM     28  C   UNL     1       5.423  -0.354  23.396  0.00  0.00    +0.141 A 
ENDBRANCH  20  24
ENDBRANCH   8  13
BRANCH   3  12
ATOM     12  C   UNL     1      -2.903   1.789  25.463  0.00  0.00    +0.122 C 
BRANCH  12  14
ATOM      4  N   UNL     1      -1.065  -1.397  25.511  0.00  0.00    -0.349 N 
ATOM     14  C   UNL     1      -2.383   0.381  25.352  0.00  0.00    -0.008 A 
ATOM     15  C   UNL     1      -3.061  -0.728  24.772  0.00  0.00    +0.004 A 
ATOM     16  C   UNL     1      -1.160  -0.063  25.797  0.00  0.00    +0.091 A 
ATOM     17  C   UNL     1      -2.211  -1.832  24.884  0.00  0.00    +0.049 A 
ATOM     18  C   UNL     1      -4.317  -0.900  24.160  0.00  0.00    +0.010 A 
ATOM     19  C   UNL     1      -2.558  -3.103  24.414  0.00  0.00    +0.026 A 
ATOM     21  C   UNL     1       0.082  -2.221  25.828  0.00  0.00    +0.149 C 
ATOM     22  C   UNL     1      -4.678  -2.166  23.683  0.00  0.00    +0.001 A 
ATOM     23  C   UNL     1      -3.811  -3.249  23.811  0.00  0.00    +0.002 A 
ENDBRANCH  12  14
ENDBRANCH   3  12
TORSDOF 4
ENDMDL
MODEL 3
REMARK VINA RESULT:      -2.9      1.208      2.303
REMARK  Name = 51136940
REMARK  5 active torsions:
REMARK  status: ('A' for Active; 'I' for Inactive)
REMARK    1  A    between atoms: N_3  and  C_12
REMARK    2  A    between atoms: N_4  and  C_21
REMARK    3  A    between atoms: C_8  and  C_13
REMARK    4  A    between atoms: C_12  and  C_14
REMARK    5  A    between atoms: C_20  and  C_24
REMARK                            x       y       z     vdW  Elec       q    Type
REMARK                         _______ _______ _______ _____ _____    ______ ____
ROOT
ATOM      3  N   UNL     1      -2.895  -1.044  24.751  0.00  0.00    -0.287 NA
ATOM      8  C   UNL     1      -1.703  -1.913  24.682  0.00  0.00    +0.146 C 
ATOM      9  C   UNL     1      -2.160  -3.138  23.869  0.00  0.00    +0.030 C 
ATOM     10  C   UNL     1      -4.058  -1.929  24.666  0.00  0.00    +0.085 C 
ATOM     11  C   UNL     1      -3.635  -2.898  23.579  0.00  0.00    +0.017 C 
ENDROOT
BRANCH   8  13
ATOM      2  O   UNL     1      -0.778  -0.263  23.135  0.00  0.00    -0.336 OA
ATOM      5  N   UNL     1       0.767  -1.393  24.298  0.00  0.00    -0.189 NA
ATOM      6  N   UNL     1       0.464   0.232  22.716  0.00  0.00    -0.054 NA
ATOM     13  C   UNL     1      -0.509  -1.214  24.066  0.00  0.00    +0.245 A 
ATOM     20  C   UNL     1       1.324  -0.483  23.446  0.00  0.00    +0.220 A 
BRANCH  20  24
ATOM      1  F   UNL     1       6.794   0.002  23.155  0.00  0.00    -0.204 F 
ATOM      7  N   UNL     1       3.490  -1.351  23.797  0.00  0.00    -0.249 NA
ATOM     24  C   UNL     1       2.745  -0.313  23.352  0.00  0.00    +0.111 A 
ATOM     25  C   UNL     1       3.276   0.855  22.831  0.00  0.00    +0.034 A 
ATOM     26  C   UNL     1       4.661   0.967  22.762  0.00  0.00    +0.042 A 
ATOM     27  C   UNL     1       4.832  -1.205  23.715  0.00  0.00    +0.149 A 
ATOM     28  C   UNL     1       5.461  -0.078  23.210  0.00  0.00    +0.141 A 
ENDBRANCH  20  24
ENDBRANCH   8  13
BRANCH   3  12
ATOM     12  C   UNL     1      -2.929  -0.210  25.946  0.00  0.00    +0.122 C 
BRANCH  12  14
ATOM      4  N   UNL     1      -1.879   3.214  25.104  0.00  0.00    -0.349 N 
ATOM     14  C   UNL     1      -2.778   1.251  25.614  0.00  0.00    -0.008 A 
ATOM     15  C   UNL     1      -3.828   2.205  25.501  0.00  0.00    +0.004 A 
ATOM     16  C   UNL     1      -1.593   1.902  25.364  0.00  0.00    +0.091 A 
ATOM     17  C   UNL     1      -3.236   3.430  25.180  0.00  0.00    +0.049 A 
ATOM     18  C   UNL     1      -5.229   2.146  25.641  0.00  0.00    +0.010 A 
ATOM     19  C   UNL     1      -3.978   4.601  24.992  0.00  0.00    +0.026 A 
ATOM     21  C   UNL     1      -0.885   4.220  24.794  0.00  0.00    +0.149 C 
ATOM     22  C   UNL     1      -5.984   3.310  25.456  0.00  0.00    +0.001 A 
ATOM     23  C   UNL     1      -5.366   4.517  25.135  0.00  0.00    +0.002 A 
ENDBRANCH  12  14
ENDBRANCH   3  12
TORSDOF 4
ENDMDL
MODEL 4
REMARK VINA RESULT:      -2.0     15.962     18.218
REMARK  Name = 51136940
REMARK  5 active torsions:
REMARK  status: ('A' for Active; 'I' for Inactive)
REMARK    1  A    between atoms: N_3  and  C_12
REMARK    2  A    between atoms: N_4  and  C_21
REMARK    3  A    between atoms: C_8  and  C_13
REMARK    4  A    between atoms: C_12  and  C_14
REMARK    5  A    between atoms: C_20  and  C_24
REMARK                            x       y       z     vdW  Elec       q    Type
REMARK                         _______ _______ _______ _____ _____    ______ ____
ROOT
ATOM      3  N   UNL     1      -7.524  -8.695   9.933  0.00  0.00    -0.287 NA
ATOM      8  C   UNL     1      -8.867  -8.339  10.432  0.00  0.00    +0.146 C 
ATOM      9  C   UNL     1      -9.813  -8.643   9.256  0.00  0.00    +0.030 C 
ATOM     10  C   UNL     1      -7.558  -8.512   8.482  0.00  0.00    +0.085 C 
ATOM     11  C   UNL     1      -8.906  -9.105   8.124  0.00  0.00    +0.017 C 
ENDROOT
BRANCH   8  13
ATOM      2  O   UNL     1      -9.875 -10.280  11.520  0.00  0.00    -0.336 OA
ATOM      5  N   UNL     1      -9.041  -8.765  12.943  0.00  0.00    -0.189 NA
ATOM      6  N   UNL     1     -10.114 -10.780  12.807  0.00  0.00    -0.054 NA
ATOM     13  C   UNL     1      -9.240  -9.092  11.691  0.00  0.00    +0.245 A 
ATOM     20  C   UNL     1      -9.595  -9.831  13.591  0.00  0.00    +0.220 A 
BRANCH  20  24
ATOM      1  F   UNL     1      -9.805 -10.063  19.081  0.00  0.00    -0.204 F 
ATOM      7  N   UNL     1     -10.632  -9.280  15.637  0.00  0.00    -0.249 NA
ATOM     24  C   UNL     1      -9.610  -9.918  15.022  0.00  0.00    +0.111 A 
ATOM     25  C   UNL     1      -8.620 -10.620  15.691  0.00  0.00    +0.034 A 
ATOM     26  C   UNL     1      -8.683 -10.672  17.079  0.00  0.00    +0.042 A 
ATOM     27  C   UNL     1     -10.660  -9.353  16.986  0.00  0.00    +0.149 A 
ATOM     28  C   UNL     1      -9.719 -10.030  17.747  0.00  0.00    +0.141 A 
ENDBRANCH  20  24
ENDBRANCH   8  13
BRANCH   3  12
ATOM     12  C   UNL     1      -6.456  -7.923  10.558  0.00  0.00    +0.122 C 
BRANCH  12  14
ATOM      4  N   UNL     1      -3.506 -10.028  11.189  0.00  0.00    -0.349 N 
ATOM     14  C   UNL     1      -5.356  -8.809  11.080  0.00  0.00    -0.008 A 
ATOM     15  C   UNL     1      -5.251  -9.340  12.396  0.00  0.00    +0.004 A 
ATOM     16  C   UNL     1      -4.269  -9.250  10.363  0.00  0.00    +0.091 A 
ATOM     17  C   UNL     1      -4.080 -10.102  12.438  0.00  0.00    +0.049 A 
ATOM     18  C   UNL     1      -6.040  -9.247  13.559  0.00  0.00    +0.010 A 
ATOM     19  C   UNL     1      -3.659 -10.777  13.589  0.00  0.00    +0.026 A 
ATOM     21  C   UNL     1      -2.272 -10.675  10.793  0.00  0.00    +0.149 C 
ATOM     22  C   UNL     1      -5.632  -9.917  14.718  0.00  0.00    +0.001 A 
ATOM     23  C   UNL     1      -4.459 -10.668  14.731  0.00  0.00    +0.002 A 
ENDBRANCH  12  14
ENDBRANCH   3  12
TORSDOF 4
ENDMDL
MODEL 5
REMARK VINA RESULT:      -1.8      1.437      4.063
REMARK  Name = 51136940
REMARK  5 active torsions:
REMARK  status: ('A' for Active; 'I' for Inactive)
REMARK    1  A    between atoms: N_3  and  C_12
REMARK    2  A    between atoms: N_4  and  C_21
REMARK    3  A    between atoms: C_8  and  C_13
REMARK    4  A    between atoms: C_12  and  C_14
REMARK    5  A    between atoms: C_20  and  C_24
REMARK                            x       y       z     vdW  Elec       q    Type
REMARK                         _______ _______ _______ _____ _____    ______ ____
ROOT
ATOM      3  N   UNL     1      -3.009   2.519  25.283  0.00  0.00    -0.287 NA
ATOM      8  C   UNL     1      -2.155   3.132  24.246  0.00  0.00    +0.146 C 
ATOM      9  C   UNL     1      -1.561   4.383  24.919  0.00  0.00    +0.030 C 
ATOM     10  C   UNL     1      -3.455   3.610  26.150  0.00  0.00    +0.085 C 
ATOM     11  C   UNL     1      -2.186   4.424  26.307  0.00  0.00    +0.017 C 
ENDROOT
BRANCH   8  13
ATOM      2  O   UNL     1      -1.501   1.238  22.849  0.00  0.00    -0.336 OA
ATOM      5  N   UNL     1       0.185   2.138  24.015  0.00  0.00    -0.189 NA
ATOM      6  N   UNL     1      -0.361   0.493  22.522  0.00  0.00    -0.054 NA
ATOM     13  C   UNL     1      -1.092   2.185  23.732  0.00  0.00    +0.245 A 
ATOM     20  C   UNL     1       0.592   1.084  23.250  0.00  0.00    +0.220 A 
BRANCH  20  24
ATOM      1  F   UNL     1       5.882  -0.414  23.149  0.00  0.00    -0.204 F 
ATOM      7  N   UNL     1       2.876   1.608  22.974  0.00  0.00    -0.249 NA
ATOM     24  C   UNL     1       1.958   0.648  23.233  0.00  0.00    +0.111 A 
ATOM     25  C   UNL     1       2.272  -0.679  23.472  0.00  0.00    +0.034 A 
ATOM     26  C   UNL     1       3.613  -1.047  23.444  0.00  0.00    +0.042 A 
ATOM     27  C   UNL     1       4.168   1.213  22.954  0.00  0.00    +0.149 A 
ATOM     28  C   UNL     1       4.585  -0.089  23.181  0.00  0.00    +0.141 A 
ENDBRANCH  20  24
ENDBRANCH   8  13
BRANCH   3  12
ATOM     12  C   UNL     1      -4.129   1.765  24.732  0.00  0.00    +0.122 C 
BRANCH  12  14
ATOM      4  N   UNL     1      -3.916  -1.830  23.979  0.00  0.00    -0.349 N 
ATOM     14  C   UNL     1      -3.796   0.306  24.570  0.00  0.00    -0.008 A 
ATOM     15  C   UNL     1      -2.646  -0.361  25.078  0.00  0.00    +0.004 A 
ATOM     16  C   UNL     1      -4.557  -0.624  23.899  0.00  0.00    +0.091 A 
ATOM     17  C   UNL     1      -2.746  -1.701  24.693  0.00  0.00    +0.049 A 
ATOM     18  C   UNL     1      -1.527   0.046  25.830  0.00  0.00    +0.010 A 
ATOM     19  C   UNL     1      -1.778  -2.656  25.024  0.00  0.00    +0.026 A 
ATOM     21  C   UNL     1      -4.410  -3.057  23.392  0.00  0.00    +0.149 C 
ATOM     22  C   UNL     1      -0.551  -0.898  26.170  0.00  0.00    +0.001 A 
ATOM     23  C   UNL     1      -0.676  -2.227  25.771  0.00  0.00    +0.002 A 
ENDBRANCH  12  14
ENDBRANCH   3  12
TORSDOF 4
ENDMDL
MODEL 6
REMARK VINA RESULT:      -0.6      1.643      2.164
REMARK  Name = 51136940
REMARK  5 active torsions:
REMARK  status: ('A' for Active; 'I' for Inactive)
REMARK    1  A    between atoms: N_3  and  C_12
REMARK    2  A    between atoms: N_4  and  C_21
REMARK    3  A    between atoms: C_8  and  C_13
REMARK    4  A    between atoms: C_12  and  C_14
REMARK    5  A    between atoms: C_20  and  C_24
REMARK                            x       y       z     vdW  Elec       q    Type
REMARK                         _______ _______ _______ _____ _____    ______ ____
ROOT
ATOM      3  N   UNL     1      -3.851  -0.777  24.527  0.00  0.00    -0.287 NA
ATOM      8  C   UNL     1      -3.080  -1.957  24.966  0.00  0.00    +0.146 C 
ATOM      9  C   UNL     1      -3.613  -3.114  24.101  0.00  0.00    +0.030 C 
ATOM     10  C   UNL     1      -5.138  -1.279  24.044  0.00  0.00    +0.085 C 
ATOM     11  C   UNL     1      -4.719  -2.502  23.253  0.00  0.00    +0.017 C 
ENDROOT
BRANCH   8  13
ATOM      2  O   UNL     1      -0.796  -2.588  25.559  0.00  0.00    -0.336 OA
ATOM      5  N   UNL     1      -0.927  -0.901  24.091  0.00  0.00    -0.189 NA
ATOM      6  N   UNL     1       0.525  -2.222  25.267  0.00  0.00    -0.054 NA
ATOM     13  C   UNL     1      -1.586  -1.762  24.825  0.00  0.00    +0.245 A 
ATOM     20  C   UNL     1       0.365  -1.222  24.396  0.00  0.00    +0.220 A 
BRANCH  20  24
ATOM      1  F   UNL     1       4.710   1.301  22.161  0.00  0.00    -0.204 F 
ATOM      7  N   UNL     1       2.605  -1.247  23.656  0.00  0.00    -0.249 NA
ATOM     24  C   UNL     1       1.472  -0.524  23.809  0.00  0.00    +0.111 A 
ATOM     25  C   UNL     1       1.345   0.805  23.440  0.00  0.00    +0.034 A 
ATOM     26  C   UNL     1       2.450   1.433  22.876  0.00  0.00    +0.042 A 
ATOM     27  C   UNL     1       3.658  -0.603  23.105  0.00  0.00    +0.149 A 
ATOM     28  C   UNL     1       3.632   0.723  22.701  0.00  0.00    +0.141 A 
ENDBRANCH  20  24
ENDBRANCH   8  13
BRANCH   3  12
ATOM     12  C   UNL     1      -4.012   0.225  25.574  0.00  0.00    +0.122 C 
BRANCH  12  14
ATOM      4  N   UNL     1      -3.633   3.608  24.177  0.00  0.00    -0.349 N 
ATOM     14  C   UNL     1      -3.592   1.594  25.108  0.00  0.00    -0.008 A 
ATOM     15  C   UNL     1      -2.320   2.201  25.306  0.00  0.00    +0.004 A 
ATOM     16  C   UNL     1      -4.377   2.484  24.412  0.00  0.00    +0.091 A 
ATOM     17  C   UNL     1      -2.372   3.465  24.712  0.00  0.00    +0.049 A 
ATOM     18  C   UNL     1      -1.126   1.798  25.935  0.00  0.00    +0.010 A 
ATOM     19  C   UNL     1      -1.286   4.347  24.716  0.00  0.00    +0.026 A 
ATOM     21  C   UNL     1      -4.117   4.774  23.468  0.00  0.00    +0.149 C 
ATOM     22  C   UNL     1      -0.031   2.669  25.946  0.00  0.00    +0.001 A 
ATOM     23  C   UNL     1      -0.112   3.924  25.346  0.00  0.00    +0.002 A 
ENDBRANCH  12  14
ENDBRANCH   3  12
TORSDOF 4
ENDMDL
