MODEL 1
REMARK VINA RESULT:      -3.4      0.000      0.000
REMARK  Name = 45784203
REMARK  4 active torsions:
REMARK  status: ('A' for Active; 'I' for Inactive)
REMARK    1  A    between atoms: N_3  and  C_6
REMARK    2  A    between atoms: C_7  and  C_15
REMARK    3  A    between atoms: C_16  and  C_19
REMARK    4  A    between atoms: C_22  and  C_24
REMARK                            x       y       z     vdW  Elec       q    Type
REMARK                         _______ _______ _______ _____ _____    ______ ____
ROOT
ATOM      3  N   UNL     1      -4.510  -9.407   9.227  0.00  0.00    -0.299 NA
ATOM      7  C   UNL     1      -3.356  -9.427  11.267  0.00  0.00    +0.090 C 
ATOM      8  C   UNL     1      -4.654  -8.944  10.608  0.00  0.00    +0.097 C 
ATOM      9  C   UNL     1      -3.977 -10.765   9.338  0.00  0.00    +0.085 C 
ATOM     10  C   UNL     1      -2.904 -10.622  10.409  0.00  0.00    +0.029 C 
ENDROOT
BRANCH   7  15
ATOM      1  O   UNL     1      -2.377 -10.043  13.413  0.00  0.00    -0.439 OA
ATOM      5  N   UNL     1      -4.621  -9.728  13.457  0.00  0.00    -0.213 NA
ATOM     15  C   UNL     1      -3.519  -9.728  12.740  0.00  0.00    +0.201 A 
ATOM     17  C   UNL     1      -4.181 -10.068  14.713  0.00  0.00    +0.110 A 
ATOM     18  C   UNL     1      -2.808 -10.262  14.690  0.00  0.00    +0.155 A 
ATOM     20  C   UNL     1      -4.869 -10.236  15.923  0.00  0.00    +0.035 A 
ATOM     21  C   UNL     1      -2.039 -10.617  15.792  0.00  0.00    +0.049 A 
ATOM     22  C   UNL     1      -4.128 -10.594  17.058  0.00  0.00    -0.048 A 
ATOM     23  C   UNL     1      -2.741 -10.780  16.992  0.00  0.00    +0.007 A 
ATOM     24  C   UNL     1      -4.831 -10.780  18.362  0.00  0.00    +0.044 C 
ENDBRANCH   7  15
BRANCH   3   6
ATOM      2  O   UNL     1     -10.504  -8.034   9.198  0.00  0.00    -0.276 OA
ATOM      4  N   UNL     1      -8.663  -9.242   8.458  0.00  0.00    -0.302 N 
ATOM      6  C   UNL     1      -5.771  -9.363   8.489  0.00  0.00    +0.060 C 
ATOM     11  C   UNL     1      -6.629 -10.585   8.840  0.00  0.00    +0.038 C 
ATOM     12  C   UNL     1      -6.525  -8.066   8.812  0.00  0.00    +0.038 C 
ATOM     13  C   UNL     1      -7.992 -10.512   8.152  0.00  0.00    +0.109 C 
ATOM     14  C   UNL     1      -7.889  -8.044   8.124  0.00  0.00    +0.109 C 
ATOM     16  C   UNL     1      -9.948  -9.114   8.983  0.00  0.00    +0.212 C 
ATOM     19  C   UNL     1     -10.678 -10.393   9.303  0.00  0.00    +0.109 C 
ENDBRANCH   3   6
TORSDOF 2
ENDMDL
