MODEL 1
REMARK VINA RESULT:       7.8      0.000      0.000
REMARK  Name = 40778224
REMARK  14 active torsions:
REMARK  status: ('A' for Active; 'I' for Inactive)
REMARK    1  A    between atoms: O_2  and  C_13
REMARK    2  A    between atoms: O_3  and  C_14
REMARK    3  A    between atoms: O_5  and  C_26
REMARK    4  A    between atoms: O_5  and  C_35
REMARK    5  A    between atoms: N_7  and  C_17
REMARK    6  A    between atoms: N_8  and  C_24
REMARK    7  A    between atoms: N_11  and  C_27
REMARK    8  A    between atoms: N_11  and  C_32
REMARK    9  A    between atoms: N_11  and  C_33
REMARK   10  A    between atoms: C_12  and  C_16
REMARK   11  A    between atoms: C_15  and  C_17
REMARK   12  A    between atoms: C_16  and  C_18
REMARK   13  A    between atoms: C_25  and  C_27
REMARK   14  A    between atoms: C_32  and  C_34
REMARK                            x       y       z     vdW  Elec       q    Type
REMARK                         _______ _______ _______ _____ _____    ______ ____
ROOT
ATOM      1  O   UNL     1      -4.053   4.846  24.371  0.00  0.00    -0.366 OA
ATOM     12  C   UNL     1      -4.063   4.999  25.801  0.00  0.00    +0.159 C 
ATOM     13  C   UNL     1      -2.897   4.170  26.311  0.00  0.00    +0.175 C 
ATOM     14  C   UNL     1      -1.878   4.366  25.207  0.00  0.00    +0.176 C 
ATOM     15  C   UNL     1      -2.756   4.355  23.960  0.00  0.00    +0.171 C 
ENDROOT
BRANCH  13   2
ATOM      2  O   UNL     1      -2.446   4.609  27.573  0.00  0.00    -0.387 OA
ATOM     41  H   UNL     1      -2.112   3.831  28.051  0.00  0.00    +0.210 HD
ENDBRANCH  13   2
BRANCH  14   3
ATOM      3  O   UNL     1      -1.275   5.655  25.314  0.00  0.00    -0.387 OA
ATOM     42  H   UNL     1      -1.535   6.028  26.173  0.00  0.00    +0.210 HD
ENDBRANCH  14   3
BRANCH  12  16
ATOM     16  C   UNL     1      -5.406   4.555  26.353  0.00  0.00    +0.130 C 
BRANCH  16  18
ATOM      4  O   UNL     1      -6.804   4.120  24.491  0.00  0.00    -0.276 OA
ATOM      6  N   UNL     1      -5.854   2.273  25.529  0.00  0.00    -0.298 N 
ATOM      8  N   UNL     1      -4.558  -0.172  24.981  0.00  0.00    -0.324 N 
ATOM     18  C   UNL     1      -6.088   3.637  25.371  0.00  0.00    +0.218 C 
ATOM     19  C   UNL     1      -5.013   1.662  26.560  0.00  0.00    +0.126 C 
ATOM     20  C   UNL     1      -6.494   1.309  24.637  0.00  0.00    +0.126 C 
ATOM     21  C   UNL     1      -3.945   0.771  25.925  0.00  0.00    +0.124 C 
ATOM     22  C   UNL     1      -5.450   0.416  23.969  0.00  0.00    +0.124 C 
BRANCH   8  24
ATOM     24  C   UNL     1      -3.882  -1.351  24.644  0.00  0.00    +0.072 A 
ATOM     26  C   UNL     1      -2.637  -1.639  25.201  0.00  0.00    +0.141 A 
ATOM     28  C   UNL     1      -4.467  -2.241  23.743  0.00  0.00    +0.027 A 
ATOM     29  C   UNL     1      -1.974  -2.818  24.856  0.00  0.00    +0.047 A 
ATOM     30  C   UNL     1      -3.805  -3.420  23.399  0.00  0.00    +0.002 A 
ATOM     31  C   UNL     1      -2.559  -3.708  23.955  0.00  0.00    +0.004 A 
BRANCH  26   5
ATOM      5  O   UNL     1      -2.048  -0.783  26.083  0.00  0.00    -0.493 OA
ATOM     35  C   UNL     1      -0.710  -1.077  26.478  0.00  0.00    +0.277 C 
ENDBRANCH  26   5
ENDBRANCH   8  24
ENDBRANCH  16  18
ENDBRANCH  12  16
BRANCH  15  17
ATOM     17  C   UNL     1      -2.947   2.963  23.377  0.00  0.00    +0.179 C 
BRANCH  17   7
ATOM      7  N   UNL     1      -1.715   2.113  23.541  0.00  0.00    -0.249 N 
ATOM      9  N   UNL     1      -0.621   2.601  24.146  0.00  0.00    -0.065 NA
ATOM     10  N   UNL     1       0.296   1.639  24.140  0.00  0.00    -0.133 NA
ATOM     23  C   UNL     1      -1.531   0.828  23.131  0.00  0.00    +0.135 A 
ATOM     25  C   UNL     1      -0.246   0.547  23.521  0.00  0.00    +0.097 A 
BRANCH  25  27
ATOM     27  C   UNL     1       0.523  -0.692  23.352  0.00  0.00    +0.143 C 
BRANCH  27  11
ATOM     11  N   UNL     1       1.456  -0.647  22.213  0.00  0.00    -0.295 NA
ATOM     33  C   UNL     1       0.714  -0.553  20.961  0.00  0.00    +0.105 C 
BRANCH  11  32
ATOM     32  C   UNL     1       2.372   0.479  22.360  0.00  0.00    +0.119 C 
BRANCH  32  34
ATOM     34  C   UNL     1       3.663   0.069  23.018  0.00  0.00    -0.033 A 
ATOM     36  C   UNL     1       4.693   0.996  23.170  0.00  0.00    +0.005 A 
ATOM     37  C   UNL     1       3.829  -1.239  23.473  0.00  0.00    +0.005 A 
ATOM     38  C   UNL     1       5.889   0.616  23.779  0.00  0.00    +0.000 A 
ATOM     39  C   UNL     1       5.025  -1.620  24.082  0.00  0.00    +0.000 A 
ATOM     40  C   UNL     1       6.055  -0.692  24.234  0.00  0.00    +0.000 A 
ENDBRANCH  32  34
ENDBRANCH  11  32
ENDBRANCH  27  11
ENDBRANCH  25  27
ENDBRANCH  17   7
ENDBRANCH  15  17
TORSDOF 12
ENDMDL
MODEL 2
REMARK VINA RESULT:       7.9      0.979      1.687
REMARK  Name = 40778224
REMARK  14 active torsions:
REMARK  status: ('A' for Active; 'I' for Inactive)
REMARK    1  A    between atoms: O_2  and  C_13
REMARK    2  A    between atoms: O_3  and  C_14
REMARK    3  A    between atoms: O_5  and  C_26
REMARK    4  A    between atoms: O_5  and  C_35
REMARK    5  A    between atoms: N_7  and  C_17
REMARK    6  A    between atoms: N_8  and  C_24
REMARK    7  A    between atoms: N_11  and  C_27
REMARK    8  A    between atoms: N_11  and  C_32
REMARK    9  A    between atoms: N_11  and  C_33
REMARK   10  A    between atoms: C_12  and  C_16
REMARK   11  A    between atoms: C_15  and  C_17
REMARK   12  A    between atoms: C_16  and  C_18
REMARK   13  A    between atoms: C_25  and  C_27
REMARK   14  A    between atoms: C_32  and  C_34
REMARK                            x       y       z     vdW  Elec       q    Type
REMARK                         _______ _______ _______ _____ _____    ______ ____
ROOT
ATOM      1  O   UNL     1      -4.566   4.222  23.960  0.00  0.00    -0.366 OA
ATOM     12  C   UNL     1      -4.759   4.350  25.380  0.00  0.00    +0.159 C 
ATOM     13  C   UNL     1      -3.509   3.769  26.019  0.00  0.00    +0.175 C 
ATOM     14  C   UNL     1      -2.441   4.184  25.028  0.00  0.00    +0.176 C 
ATOM     15  C   UNL     1      -3.159   4.012  23.694  0.00  0.00    +0.171 C 
ENDROOT
BRANCH  13   2
ATOM      2  O   UNL     1      -3.294   4.275  27.318  0.00  0.00    -0.387 OA
ATOM     41  H   UNL     1      -2.674   3.674  27.766  0.00  0.00    +0.210 HD
ENDBRANCH  13   2
BRANCH  14   3
ATOM      3  O   UNL     1      -2.128   5.567  25.188  0.00  0.00    -0.387 OA
ATOM     42  H   UNL     1      -2.566   6.050  24.466  0.00  0.00    +0.210 HD
ENDBRANCH  14   3
BRANCH  12  16
ATOM     16  C   UNL     1      -6.033   3.634  25.789  0.00  0.00    +0.130 C 
BRANCH  16  18
ATOM      4  O   UNL     1      -6.961   2.434  23.970  0.00  0.00    -0.276 OA
ATOM      6  N   UNL     1      -5.517   1.260  25.359  0.00  0.00    -0.298 N 
ATOM      8  N   UNL     1      -3.360  -0.557  25.308  0.00  0.00    -0.324 N 
ATOM     18  C   UNL     1      -6.218   2.393  24.953  0.00  0.00    +0.218 C 
ATOM     19  C   UNL     1      -4.627   1.173  26.518  0.00  0.00    +0.126 C 
ATOM     20  C   UNL     1      -5.656   0.006  24.621  0.00  0.00    +0.126 C 
ATOM     21  C   UNL     1      -3.244   0.675  26.100  0.00  0.00    +0.124 C 
ATOM     22  C   UNL     1      -4.289  -0.507  24.169  0.00  0.00    +0.124 C 
BRANCH   8  24
ATOM     24  C   UNL     1      -2.265  -1.424  25.216  0.00  0.00    +0.072 A 
ATOM     26  C   UNL     1      -2.281  -2.494  24.321  0.00  0.00    +0.141 A 
ATOM     28  C   UNL     1      -1.151  -1.210  26.028  0.00  0.00    +0.027 A 
ATOM     29  C   UNL     1      -1.183  -3.351  24.239  0.00  0.00    +0.047 A 
ATOM     30  C   UNL     1      -0.053  -2.067  25.945  0.00  0.00    +0.002 A 
ATOM     31  C   UNL     1      -0.070  -3.137  25.051  0.00  0.00    +0.004 A 
BRANCH  26   5
ATOM      5  O   UNL     1      -3.359  -2.721  23.519  0.00  0.00    -0.493 OA
ATOM     35  C   UNL     1      -4.314  -3.678  23.973  0.00  0.00    +0.277 C 
ENDBRANCH  26   5
ENDBRANCH   8  24
ENDBRANCH  16  18
ENDBRANCH  12  16
BRANCH  15  17
ATOM     17  C   UNL     1      -2.999   2.617  23.106  0.00  0.00    +0.179 C 
BRANCH  17   7
ATOM      7  N   UNL     1      -1.626   2.056  23.364  0.00  0.00    -0.249 N 
ATOM      9  N   UNL     1      -0.667   2.814  23.917  0.00  0.00    -0.065 NA
ATOM     10  N   UNL     1       0.424   2.063  24.016  0.00  0.00    -0.133 NA
ATOM     23  C   UNL     1      -1.178   0.799  23.094  0.00  0.00    +0.135 A 
ATOM     25  C   UNL     1       0.127   0.825  23.516  0.00  0.00    +0.097 A 
BRANCH  25  27
ATOM     27  C   UNL     1       1.132  -0.244  23.483  0.00  0.00    +0.143 C 
BRANCH  27  11
ATOM     11  N   UNL     1       1.580  -0.579  22.120  0.00  0.00    -0.295 NA
ATOM     33  C   UNL     1       0.507  -0.334  21.165  0.00  0.00    +0.105 C 
BRANCH  11  32
ATOM     32  C   UNL     1       2.768   0.196  21.778  0.00  0.00    +0.119 C 
BRANCH  32  34
ATOM     34  C   UNL     1       3.893  -0.043  22.750  0.00  0.00    -0.033 A 
ATOM     36  C   UNL     1       4.748   1.002  23.098  0.00  0.00    +0.005 A 
ATOM     37  C   UNL     1       4.080  -1.311  23.301  0.00  0.00    +0.005 A 
ATOM     38  C   UNL     1       5.790   0.781  23.998  0.00  0.00    +0.000 A 
ATOM     39  C   UNL     1       5.123  -1.533  24.201  0.00  0.00    +0.000 A 
ATOM     40  C   UNL     1       5.977  -0.487  24.549  0.00  0.00    +0.000 A 
ENDBRANCH  32  34
ENDBRANCH  11  32
ENDBRANCH  27  11
ENDBRANCH  25  27
ENDBRANCH  17   7
ENDBRANCH  15  17
TORSDOF 12
ENDMDL
MODEL 3
REMARK VINA RESULT:       8.5      2.027      6.829
REMARK  Name = 40778224
REMARK  14 active torsions:
REMARK  status: ('A' for Active; 'I' for Inactive)
REMARK    1  A    between atoms: O_2  and  C_13
REMARK    2  A    between atoms: O_3  and  C_14
REMARK    3  A    between atoms: O_5  and  C_26
REMARK    4  A    between atoms: O_5  and  C_35
REMARK    5  A    between atoms: N_7  and  C_17
REMARK    6  A    between atoms: N_8  and  C_24
REMARK    7  A    between atoms: N_11  and  C_27
REMARK    8  A    between atoms: N_11  and  C_32
REMARK    9  A    between atoms: N_11  and  C_33
REMARK   10  A    between atoms: C_12  and  C_16
REMARK   11  A    between atoms: C_15  and  C_17
REMARK   12  A    between atoms: C_16  and  C_18
REMARK   13  A    between atoms: C_25  and  C_27
REMARK   14  A    between atoms: C_32  and  C_34
REMARK                            x       y       z     vdW  Elec       q    Type
REMARK                         _______ _______ _______ _____ _____    ______ ____
ROOT
ATOM      1  O   UNL     1      -2.114   2.790  25.549  0.00  0.00    -0.366 OA
ATOM     12  C   UNL     1      -1.464   2.631  24.275  0.00  0.00    +0.159 C 
ATOM     13  C   UNL     1      -0.867   3.989  23.947  0.00  0.00    +0.175 C 
ATOM     14  C   UNL     1      -0.456   4.480  25.320  0.00  0.00    +0.176 C 
ATOM     15  C   UNL     1      -1.602   3.980  26.193  0.00  0.00    +0.171 C 
ENDROOT
BRANCH  13   2
ATOM      2  O   UNL     1       0.212   3.888  23.043  0.00  0.00    -0.387 OA
ATOM     41  H   UNL     1       1.030   4.026  23.549  0.00  0.00    +0.210 HD
ENDBRANCH  13   2
BRANCH  14   3
ATOM      3  O   UNL     1       0.740   3.827  25.742  0.00  0.00    -0.387 OA
ATOM     42  H   UNL     1       1.480   4.433  25.569  0.00  0.00    +0.210 HD
ENDBRANCH  14   3
BRANCH  12  16
ATOM     16  C   UNL     1      -2.469   2.149  23.245  0.00  0.00    +0.130 C 
BRANCH  16  18
ATOM      4  O   UNL     1      -2.188   1.199  21.093  0.00  0.00    -0.276 OA
ATOM      6  N   UNL     1      -0.753   0.446  22.757  0.00  0.00    -0.298 N 
ATOM      8  N   UNL     1       1.955  -0.168  23.256  0.00  0.00    -0.324 N 
ATOM     18  C   UNL     1      -1.796   1.225  22.263  0.00  0.00    +0.218 C 
ATOM     19  C   UNL     1      -0.261   0.448  24.136  0.00  0.00    +0.126 C 
ATOM     20  C   UNL     1      -0.060  -0.497  21.881  0.00  0.00    +0.126 C 
ATOM     21  C   UNL     1       1.241   0.731  24.172  0.00  0.00    +0.124 C 
ATOM     22  C   UNL     1       1.443  -0.225  21.878  0.00  0.00    +0.124 C 
BRANCH   8  24
ATOM     24  C   UNL     1       3.319  -0.414  23.453  0.00  0.00    +0.072 A 
ATOM     26  C   UNL     1       4.247   0.623  23.368  0.00  0.00    +0.141 A 
ATOM     28  C   UNL     1       3.746  -1.712  23.737  0.00  0.00    +0.027 A 
ATOM     29  C   UNL     1       5.604   0.363  23.566  0.00  0.00    +0.047 A 
ATOM     30  C   UNL     1       5.102  -1.971  23.937  0.00  0.00    +0.002 A 
ATOM     31  C   UNL     1       6.031  -0.934  23.850  0.00  0.00    +0.004 A 
BRANCH  26   5
ATOM      5  O   UNL     1       3.851   1.897  23.090  0.00  0.00    -0.493 OA
ATOM     35  C   UNL     1       3.966   2.331  21.737  0.00  0.00    +0.277 C 
ENDBRANCH  26   5
ENDBRANCH   8  24
ENDBRANCH  16  18
ENDBRANCH  12  16
BRANCH  15  17
ATOM     17  C   UNL     1      -2.746   4.978  26.305  0.00  0.00    +0.179 C 
BRANCH  17   7
ATOM      7  N   UNL     1      -4.087   4.313  26.141  0.00  0.00    -0.249 N 
ATOM      9  N   UNL     1      -5.169   5.027  25.795  0.00  0.00    -0.065 NA
ATOM     10  N   UNL     1      -6.195   4.185  25.732  0.00  0.00    -0.133 NA
ATOM     23  C   UNL     1      -4.387   2.996  26.308  0.00  0.00    +0.135 A 
ATOM     25  C   UNL     1      -5.732   2.936  26.044  0.00  0.00    +0.097 A 
BRANCH  25  27
ATOM     27  C   UNL     1      -6.629   1.775  26.064  0.00  0.00    +0.143 C 
BRANCH  27  11
ATOM     11  N   UNL     1      -6.458   0.887  24.901  0.00  0.00    -0.295 NA
ATOM     33  C   UNL     1      -7.362   1.285  23.829  0.00  0.00    +0.105 C 
BRANCH  11  32
ATOM     32  C   UNL     1      -5.071   0.916  24.449  0.00  0.00    +0.119 C 
BRANCH  32  34
ATOM     34  C   UNL     1      -4.384  -0.407  24.660  0.00  0.00    -0.033 A 
ATOM     36  C   UNL     1      -3.584  -0.605  25.784  0.00  0.00    +0.005 A 
ATOM     37  C   UNL     1      -4.549  -1.434  23.731  0.00  0.00    +0.005 A 
ATOM     38  C   UNL     1      -2.947  -1.831  25.980  0.00  0.00    +0.000 A 
ATOM     39  C   UNL     1      -3.912  -2.660  23.926  0.00  0.00    +0.000 A 
ATOM     40  C   UNL     1      -3.112  -2.858  25.051  0.00  0.00    +0.000 A 
ENDBRANCH  32  34
ENDBRANCH  11  32
ENDBRANCH  27  11
ENDBRANCH  25  27
ENDBRANCH  17   7
ENDBRANCH  15  17
TORSDOF 12
ENDMDL
MODEL 4
REMARK VINA RESULT:       9.5      1.939      5.020
REMARK  Name = 40778224
REMARK  14 active torsions:
REMARK  status: ('A' for Active; 'I' for Inactive)
REMARK    1  A    between atoms: O_2  and  C_13
REMARK    2  A    between atoms: O_3  and  C_14
REMARK    3  A    between atoms: O_5  and  C_26
REMARK    4  A    between atoms: O_5  and  C_35
REMARK    5  A    between atoms: N_7  and  C_17
REMARK    6  A    between atoms: N_8  and  C_24
REMARK    7  A    between atoms: N_11  and  C_27
REMARK    8  A    between atoms: N_11  and  C_32
REMARK    9  A    between atoms: N_11  and  C_33
REMARK   10  A    between atoms: C_12  and  C_16
REMARK   11  A    between atoms: C_15  and  C_17
REMARK   12  A    between atoms: C_16  and  C_18
REMARK   13  A    between atoms: C_25  and  C_27
REMARK   14  A    between atoms: C_32  and  C_34
REMARK                            x       y       z     vdW  Elec       q    Type
REMARK                         _______ _______ _______ _____ _____    ______ ____
ROOT
ATOM      1  O   UNL     1      -4.583  -0.680  26.034  0.00  0.00    -0.366 OA
ATOM     12  C   UNL     1      -5.305  -1.149  24.881  0.00  0.00    +0.159 C 
ATOM     13  C   UNL     1      -4.248  -1.642  23.907  0.00  0.00    +0.175 C 
ATOM     14  C   UNL     1      -3.214  -2.223  24.849  0.00  0.00    +0.176 C 
ATOM     15  C   UNL     1      -3.246  -1.232  26.007  0.00  0.00    +0.171 C 
ENDROOT
BRANCH  13   2
ATOM      2  O   UNL     1      -4.767  -2.585  22.995  0.00  0.00    -0.387 OA
ATOM     41  H   UNL     1      -5.109  -3.333  23.513  0.00  0.00    +0.210 HD
ENDBRANCH  13   2
BRANCH  14   3
ATOM      3  O   UNL     1      -3.648  -3.491  25.339  0.00  0.00    -0.387 OA
ATOM     42  H   UNL     1      -2.880  -3.925  25.748  0.00  0.00    +0.210 HD
ENDBRANCH  14   3
BRANCH  12  16
ATOM     16  C   UNL     1      -6.162  -0.027  24.324  0.00  0.00    +0.130 C 
BRANCH  16  18
ATOM      4  O   UNL     1      -6.772   1.095  26.319  0.00  0.00    -0.276 OA
ATOM      6  N   UNL     1      -5.385   2.252  24.860  0.00  0.00    -0.298 N 
ATOM      8  N   UNL     1      -3.076   3.871  24.790  0.00  0.00    -0.324 N 
ATOM     18  C   UNL     1      -6.139   1.153  25.262  0.00  0.00    +0.218 C 
ATOM     19  C   UNL     1      -4.622   2.358  23.615  0.00  0.00    +0.126 C 
ATOM     20  C   UNL     1      -5.326   3.449  25.696  0.00  0.00    +0.126 C 
ATOM     21  C   UNL     1      -3.161   2.703  23.905  0.00  0.00    +0.124 C 
ATOM     22  C   UNL     1      -3.877   3.808  26.023  0.00  0.00    +0.124 C 
BRANCH   8  24
ATOM     24  C   UNL     1      -1.902   4.633  24.818  0.00  0.00    +0.072 A 
ATOM     26  C   UNL     1      -0.677   4.040  25.121  0.00  0.00    +0.141 A 
ATOM     28  C   UNL     1      -1.966   5.999  24.539  0.00  0.00    +0.027 A 
ATOM     29  C   UNL     1       0.485   4.812  25.146  0.00  0.00    +0.047 A 
ATOM     30  C   UNL     1      -0.803   6.770  24.562  0.00  0.00    +0.002 A 
ATOM     31  C   UNL     1       0.422   6.176  24.866  0.00  0.00    +0.004 A 
BRANCH  26   5
ATOM      5  O   UNL     1      -0.593   2.708  25.398  0.00  0.00    -0.493 OA
ATOM     35  C   UNL     1       0.122   2.334  26.574  0.00  0.00    +0.277 C 
ENDBRANCH  26   5
ENDBRANCH   8  24
ENDBRANCH  16  18
ENDBRANCH  12  16
BRANCH  15  17
ATOM     17  C   UNL     1      -2.268  -0.078  25.832  0.00  0.00    +0.179 C 
BRANCH  17   7
ATOM      7  N   UNL     1      -1.109  -0.457  24.949  0.00  0.00    -0.249 N 
ATOM      9  N   UNL     1      -0.239  -1.405  25.328  0.00  0.00    -0.065 NA
ATOM     10  N   UNL     1       0.668  -1.518  24.364  0.00  0.00    -0.133 NA
ATOM     23  C   UNL     1      -0.786   0.063  23.733  0.00  0.00    +0.135 A 
ATOM     25  C   UNL     1       0.347  -0.625  23.379  0.00  0.00    +0.097 A 
BRANCH  25  27
ATOM     27  C   UNL     1       1.163  -0.503  22.165  0.00  0.00    +0.143 C 
BRANCH  27  11
ATOM     11  N   UNL     1       1.964   0.732  22.125  0.00  0.00    -0.295 NA
ATOM     33  C   UNL     1       2.017   1.339  23.449  0.00  0.00    +0.105 C 
BRANCH  11  32
ATOM     32  C   UNL     1       3.307   0.442  21.632  0.00  0.00    +0.119 C 
BRANCH  32  34
ATOM     34  C   UNL     1       4.229   0.007  22.740  0.00  0.00    -0.033 A 
ATOM     36  C   UNL     1       5.129   0.915  23.295  0.00  0.00    +0.005 A 
ATOM     37  C   UNL     1       4.183  -1.306  23.209  0.00  0.00    +0.005 A 
ATOM     38  C   UNL     1       5.984   0.512  24.321  0.00  0.00    +0.000 A 
ATOM     39  C   UNL     1       5.038  -1.710  24.235  0.00  0.00    +0.000 A 
ATOM     40  C   UNL     1       5.938  -0.801  24.790  0.00  0.00    +0.000 A 
ENDBRANCH  32  34
ENDBRANCH  11  32
ENDBRANCH  27  11
ENDBRANCH  25  27
ENDBRANCH  17   7
ENDBRANCH  15  17
TORSDOF 12
ENDMDL
MODEL 5
REMARK VINA RESULT:      10.1      1.625      5.253
REMARK  Name = 40778224
REMARK  14 active torsions:
REMARK  status: ('A' for Active; 'I' for Inactive)
REMARK    1  A    between atoms: O_2  and  C_13
REMARK    2  A    between atoms: O_3  and  C_14
REMARK    3  A    between atoms: O_5  and  C_26
REMARK    4  A    between atoms: O_5  and  C_35
REMARK    5  A    between atoms: N_7  and  C_17
REMARK    6  A    between atoms: N_8  and  C_24
REMARK    7  A    between atoms: N_11  and  C_27
REMARK    8  A    between atoms: N_11  and  C_32
REMARK    9  A    between atoms: N_11  and  C_33
REMARK   10  A    between atoms: C_12  and  C_16
REMARK   11  A    between atoms: C_15  and  C_17
REMARK   12  A    between atoms: C_16  and  C_18
REMARK   13  A    between atoms: C_25  and  C_27
REMARK   14  A    between atoms: C_32  and  C_34
REMARK                            x       y       z     vdW  Elec       q    Type
REMARK                         _______ _______ _______ _____ _____    ______ ____
ROOT
ATOM      1  O   UNL     1      -3.100  -2.288  25.746  0.00  0.00    -0.366 OA
ATOM     12  C   UNL     1      -2.838  -2.807  24.431  0.00  0.00    +0.159 C 
ATOM     13  C   UNL     1      -1.494  -2.229  24.021  0.00  0.00    +0.175 C 
ATOM     14  C   UNL     1      -0.757  -2.205  25.344  0.00  0.00    +0.176 C 
ATOM     15  C   UNL     1      -1.862  -1.804  26.316  0.00  0.00    +0.171 C 
ENDROOT
BRANCH  13   2
ATOM      2  O   UNL     1      -0.856  -3.015  23.039  0.00  0.00    -0.387 OA
ATOM     41  H   UNL     1      -1.518  -3.224  22.357  0.00  0.00    +0.210 HD
ENDBRANCH  13   2
BRANCH  14   3
ATOM      3  O   UNL     1      -0.317  -3.518  25.689  0.00  0.00    -0.387 OA
ATOM     42  H   UNL     1      -1.037  -3.945  26.184  0.00  0.00    +0.210 HD
ENDBRANCH  14   3
BRANCH  12  16
ATOM     16  C   UNL     1      -3.970  -2.425  23.495  0.00  0.00    +0.130 C 
BRANCH  16  18
ATOM      4  O   UNL     1      -5.725  -1.620  24.867  0.00  0.00    -0.276 OA
ATOM      6  N   UNL     1      -4.446  -0.020  23.774  0.00  0.00    -0.298 N 
ATOM      8  N   UNL     1      -3.152   2.455  24.172  0.00  0.00    -0.324 N 
ATOM     18  C   UNL     1      -4.797  -1.325  24.110  0.00  0.00    +0.218 C 
ATOM     19  C   UNL     1      -3.353   0.369  22.880  0.00  0.00    +0.126 C 
ATOM     20  C   UNL     1      -5.208   1.107  24.304  0.00  0.00    +0.126 C 
ATOM     21  C   UNL     1      -2.402   1.340  23.581  0.00  0.00    +0.124 C 
ATOM     22  C   UNL     1      -4.288   2.086  25.032  0.00  0.00    +0.124 C 
BRANCH   8  24
ATOM     24  C   UNL     1      -2.497   3.661  24.446  0.00  0.00    +0.072 A 
ATOM     26  C   UNL     1      -3.020   4.560  25.375  0.00  0.00    +0.141 A 
ATOM     28  C   UNL     1      -1.308   3.961  23.779  0.00  0.00    +0.027 A 
ATOM     29  C   UNL     1      -2.356   5.759  25.637  0.00  0.00    +0.047 A 
ATOM     30  C   UNL     1      -0.644   5.159  24.042  0.00  0.00    +0.002 A 
ATOM     31  C   UNL     1      -1.168   6.058  24.971  0.00  0.00    +0.004 A 
BRANCH  26   5
ATOM      5  O   UNL     1      -4.180   4.287  26.036  0.00  0.00    -0.493 OA
ATOM     35  C   UNL     1      -5.395   4.687  25.406  0.00  0.00    +0.277 C 
ENDBRANCH  26   5
ENDBRANCH   8  24
ENDBRANCH  16  18
ENDBRANCH  12  16
BRANCH  15  17
ATOM     17  C   UNL     1      -1.985  -0.297  26.490  0.00  0.00    +0.179 C 
BRANCH  17   7
ATOM      7  N   UNL     1      -0.901   0.442  25.752  0.00  0.00    -0.249 N 
ATOM      9  N   UNL     1      -0.340   1.542  26.278  0.00  0.00    -0.065 NA
ATOM     10  N   UNL     1       0.569   1.975  25.412  0.00  0.00    -0.133 NA
ATOM     23  C   UNL     1      -0.368   0.140  24.536  0.00  0.00    +0.135 A 
ATOM     25  C   UNL     1       0.564   1.127  24.339  0.00  0.00    +0.097 A 
BRANCH  25  27
ATOM     27  C   UNL     1       1.464   1.336  23.199  0.00  0.00    +0.143 C 
BRANCH  27  11
ATOM     11  N   UNL     1       1.772   0.096  22.466  0.00  0.00    -0.295 NA
ATOM     33  C   UNL     1       0.754  -0.155  21.453  0.00  0.00    +0.105 C 
BRANCH  11  32
ATOM     32  C   UNL     1       3.097   0.187  21.861  0.00  0.00    +0.119 C 
BRANCH  32  34
ATOM     34  C   UNL     1       4.189  -0.105  22.854  0.00  0.00    -0.033 A 
ATOM     36  C   UNL     1       5.082   0.900  23.225  0.00  0.00    +0.005 A 
ATOM     37  C   UNL     1       4.308  -1.382  23.404  0.00  0.00    +0.005 A 
ATOM     38  C   UNL     1       6.095   0.629  24.145  0.00  0.00    +0.000 A 
ATOM     39  C   UNL     1       5.321  -1.653  24.324  0.00  0.00    +0.000 A 
ATOM     40  C   UNL     1       6.214  -0.648  24.694  0.00  0.00    +0.000 A 
ENDBRANCH  32  34
ENDBRANCH  11  32
ENDBRANCH  27  11
ENDBRANCH  25  27
ENDBRANCH  17   7
ENDBRANCH  15  17
TORSDOF 12
ENDMDL
MODEL 6
REMARK VINA RESULT:      10.3      2.896      5.899
REMARK  Name = 40778224
REMARK  14 active torsions:
REMARK  status: ('A' for Active; 'I' for Inactive)
REMARK    1  A    between atoms: O_2  and  C_13
REMARK    2  A    between atoms: O_3  and  C_14
REMARK    3  A    between atoms: O_5  and  C_26
REMARK    4  A    between atoms: O_5  and  C_35
REMARK    5  A    between atoms: N_7  and  C_17
REMARK    6  A    between atoms: N_8  and  C_24
REMARK    7  A    between atoms: N_11  and  C_27
REMARK    8  A    between atoms: N_11  and  C_32
REMARK    9  A    between atoms: N_11  and  C_33
REMARK   10  A    between atoms: C_12  and  C_16
REMARK   11  A    between atoms: C_15  and  C_17
REMARK   12  A    between atoms: C_16  and  C_18
REMARK   13  A    between atoms: C_25  and  C_27
REMARK   14  A    between atoms: C_32  and  C_34
REMARK                            x       y       z     vdW  Elec       q    Type
REMARK                         _______ _______ _______ _____ _____    ______ ____
ROOT
ATOM      1  O   UNL     1      -6.217   0.698  23.882  0.00  0.00    -0.366 OA
ATOM     12  C   UNL     1      -5.505  -0.325  24.602  0.00  0.00    +0.159 C 
ATOM     13  C   UNL     1      -4.671   0.408  25.639  0.00  0.00    +0.175 C 
ATOM     14  C   UNL     1      -5.588   1.556  26.010  0.00  0.00    +0.176 C 
ATOM     15  C   UNL     1      -6.207   1.915  24.664  0.00  0.00    +0.171 C 
ENDROOT
BRANCH  13   2
ATOM      2  O   UNL     1      -4.340  -0.420  26.733  0.00  0.00    -0.387 OA
ATOM     41  H   UNL     1      -4.585   0.058  27.544  0.00  0.00    +0.210 HD
ENDBRANCH  13   2
BRANCH  14   3
ATOM      3  O   UNL     1      -6.630   1.099  26.870  0.00  0.00    -0.387 OA
ATOM     42  H   UNL     1      -6.221   0.539  27.552  0.00  0.00    +0.210 HD
ENDBRANCH  14   3
BRANCH  12  16
ATOM     16  C   UNL     1      -4.674  -1.147  23.633  0.00  0.00    +0.130 C 
BRANCH  16  18
ATOM      4  O   UNL     1      -3.640  -2.908  24.834  0.00  0.00    -0.276 OA
ATOM      6  N   UNL     1      -2.346  -1.020  24.440  0.00  0.00    -0.298 N 
ATOM      8  N   UNL     1       0.232  -0.213  23.627  0.00  0.00    -0.324 N 
ATOM     18  C   UNL     1      -3.512  -1.777  24.358  0.00  0.00    +0.218 C 
ATOM     19  C   UNL     1      -2.157   0.323  23.889  0.00  0.00    +0.126 C 
ATOM     20  C   UNL     1      -1.178  -1.542  25.146  0.00  0.00    +0.126 C 
ATOM     21  C   UNL     1      -0.944   0.359  22.959  0.00  0.00    +0.124 C 
ATOM     22  C   UNL     1       0.048  -1.541  24.234  0.00  0.00    +0.124 C 
BRANCH   8  24
ATOM     24  C   UNL     1       1.514   0.123  23.177  0.00  0.00    +0.072 A 
ATOM     26  C   UNL     1       2.026   1.404  23.382  0.00  0.00    +0.141 A 
ATOM     28  C   UNL     1       2.282  -0.838  22.518  0.00  0.00    +0.027 A 
ATOM     29  C   UNL     1       3.305   1.725  22.928  0.00  0.00    +0.047 A 
ATOM     30  C   UNL     1       3.562  -0.517  22.065  0.00  0.00    +0.002 A 
ATOM     31  C   UNL     1       4.073   0.765  22.270  0.00  0.00    +0.004 A 
BRANCH  26   5
ATOM      5  O   UNL     1       1.292   2.357  24.023  0.00  0.00    -0.493 OA
ATOM     35  C   UNL     1       0.629   3.321  23.208  0.00  0.00    +0.277 C 
ENDBRANCH  26   5
ENDBRANCH   8  24
ENDBRANCH  16  18
ENDBRANCH  12  16
BRANCH  15  17
ATOM     17  C   UNL     1      -5.405   2.956  23.896  0.00  0.00    +0.179 C 
BRANCH  17   7
ATOM      7  N   UNL     1      -4.229   3.456  24.694  0.00  0.00    -0.249 N 
ATOM      9  N   UNL     1      -4.412   4.247  25.762  0.00  0.00    -0.065 NA
ATOM     10  N   UNL     1      -3.210   4.529  26.255  0.00  0.00    -0.133 NA
ATOM     23  C   UNL     1      -2.909   3.208  24.472  0.00  0.00    +0.135 A 
ATOM     25  C   UNL     1      -2.279   3.900  25.475  0.00  0.00    +0.097 A 
BRANCH  25  27
ATOM     27  C   UNL     1      -0.844   4.017  25.760  0.00  0.00    +0.143 C 
BRANCH  27  11
ATOM     11  N   UNL     1      -0.363   3.028  26.739  0.00  0.00    -0.295 NA
ATOM     33  C   UNL     1      -0.625   1.677  26.257  0.00  0.00    +0.105 C 
BRANCH  11  32
ATOM     32  C   UNL     1       1.061   3.223  26.990  0.00  0.00    +0.119 C 
BRANCH  32  34
ATOM     34  C   UNL     1       1.456   2.761  28.368  0.00  0.00    -0.033 A 
ATOM     36  C   UNL     1       2.768   2.363  28.620  0.00  0.00    +0.005 A 
ATOM     37  C   UNL     1       0.508   2.729  29.391  0.00  0.00    +0.005 A 
ATOM     38  C   UNL     1       3.134   1.935  29.896  0.00  0.00    +0.000 A 
ATOM     39  C   UNL     1       0.874   2.300  30.667  0.00  0.00    +0.000 A 
ATOM     40  C   UNL     1       2.187   1.903  30.919  0.00  0.00    +0.000 A 
ENDBRANCH  32  34
ENDBRANCH  11  32
ENDBRANCH  27  11
ENDBRANCH  25  27
ENDBRANCH  17   7
ENDBRANCH  15  17
TORSDOF 12
ENDMDL
MODEL 7
REMARK VINA RESULT:      10.5      2.764      5.581
REMARK  Name = 40778224
REMARK  14 active torsions:
REMARK  status: ('A' for Active; 'I' for Inactive)
REMARK    1  A    between atoms: O_2  and  C_13
REMARK    2  A    between atoms: O_3  and  C_14
REMARK    3  A    between atoms: O_5  and  C_26
REMARK    4  A    between atoms: O_5  and  C_35
REMARK    5  A    between atoms: N_7  and  C_17
REMARK    6  A    between atoms: N_8  and  C_24
REMARK    7  A    between atoms: N_11  and  C_27
REMARK    8  A    between atoms: N_11  and  C_32
REMARK    9  A    between atoms: N_11  and  C_33
REMARK   10  A    between atoms: C_12  and  C_16
REMARK   11  A    between atoms: C_15  and  C_17
REMARK   12  A    between atoms: C_16  and  C_18
REMARK   13  A    between atoms: C_25  and  C_27
REMARK   14  A    between atoms: C_32  and  C_34
REMARK                            x       y       z     vdW  Elec       q    Type
REMARK                         _______ _______ _______ _____ _____    ______ ____
ROOT
ATOM      1  O   UNL     1      -4.890   1.082  23.952  0.00  0.00    -0.366 OA
ATOM     12  C   UNL     1      -5.228   0.483  25.215  0.00  0.00    +0.159 C 
ATOM     13  C   UNL     1      -5.865   1.590  26.038  0.00  0.00    +0.175 C 
ATOM     14  C   UNL     1      -6.610   2.370  24.974  0.00  0.00    +0.176 C 
ATOM     15  C   UNL     1      -5.640   2.310  23.798  0.00  0.00    +0.171 C 
ENDROOT
BRANCH  13   2
ATOM      2  O   UNL     1      -6.705   1.082  27.050  0.00  0.00    -0.387 OA
ATOM     41  H   UNL     1      -7.530   0.792  26.626  0.00  0.00    +0.210 HD
ENDBRANCH  13   2
BRANCH  14   3
ATOM      3  O   UNL     1      -7.803   1.681  24.600  0.00  0.00    -0.387 OA
ATOM     42  H   UNL     1      -8.556   2.223  24.892  0.00  0.00    +0.210 HD
ENDBRANCH  14   3
BRANCH  12  16
ATOM     16  C   UNL     1      -3.981  -0.102  25.853  0.00  0.00    +0.130 C 
BRANCH  16  18
ATOM      4  O   UNL     1      -4.189  -1.845  24.263  0.00  0.00    -0.276 OA
ATOM      6  N   UNL     1      -2.049  -1.409  25.051  0.00  0.00    -0.298 N 
ATOM      8  N   UNL     1       0.623  -1.105  24.196  0.00  0.00    -0.324 N 
ATOM     18  C   UNL     1      -3.424  -1.199  24.982  0.00  0.00    +0.218 C 
ATOM     19  C   UNL     1      -1.109  -0.664  25.890  0.00  0.00    +0.126 C 
ATOM     20  C   UNL     1      -1.426  -2.468  24.259  0.00  0.00    +0.126 C 
ATOM     21  C   UNL     1       0.017  -0.069  25.044  0.00  0.00    +0.124 C 
ATOM     22  C   UNL     1      -0.310  -1.901  23.384  0.00  0.00    +0.124 C 
BRANCH   8  24
ATOM     24  C   UNL     1       1.920  -0.923  23.704  0.00  0.00    +0.072 A 
ATOM     26  C   UNL     1       2.144  -0.171  22.551  0.00  0.00    +0.141 A 
ATOM     28  C   UNL     1       2.996  -1.501  24.379  0.00  0.00    +0.027 A 
ATOM     29  C   UNL     1       3.442   0.001  22.071  0.00  0.00    +0.047 A 
ATOM     30  C   UNL     1       4.295  -1.327  23.900  0.00  0.00    +0.002 A 
ATOM     31  C   UNL     1       4.517  -0.576  22.746  0.00  0.00    +0.004 A 
BRANCH  26   5
ATOM      5  O   UNL     1       1.107   0.401  21.876  0.00  0.00    -0.493 OA
ATOM     35  C   UNL     1       0.536  -0.350  20.807  0.00  0.00    +0.277 C 
ENDBRANCH  26   5
ENDBRANCH   8  24
ENDBRANCH  16  18
ENDBRANCH  12  16
BRANCH  15  17
ATOM     17  C   UNL     1      -4.648   3.464  23.784  0.00  0.00    +0.179 C 
BRANCH  17   7
ATOM      7  N   UNL     1      -3.229   2.980  23.651  0.00  0.00    -0.249 N 
ATOM      9  N   UNL     1      -2.867   2.185  22.632  0.00  0.00    -0.065 NA
ATOM     10  N   UNL     1      -1.574   1.918  22.777  0.00  0.00    -0.133 NA
ATOM     23  C   UNL     1      -2.179   3.245  24.477  0.00  0.00    +0.135 A 
ATOM     25  C   UNL     1      -1.138   2.561  23.903  0.00  0.00    +0.097 A 
BRANCH  25  27
ATOM     27  C   UNL     1       0.260   2.464  24.342  0.00  0.00    +0.143 C 
BRANCH  27  11
ATOM     11  N   UNL     1       0.552   3.276  25.536  0.00  0.00    -0.295 NA
ATOM     33  C   UNL     1       0.119   4.652  25.324  0.00  0.00    +0.105 C 
BRANCH  11  32
ATOM     32  C   UNL     1      -0.100   2.700  26.706  0.00  0.00    +0.119 C 
BRANCH  32  34
ATOM     34  C   UNL     1       0.825   2.642  27.893  0.00  0.00    -0.033 A 
ATOM     36  C   UNL     1       2.183   2.913  27.731  0.00  0.00    +0.005 A 
ATOM     37  C   UNL     1       0.323   2.317  29.153  0.00  0.00    +0.005 A 
ATOM     38  C   UNL     1       3.041   2.859  28.830  0.00  0.00    +0.000 A 
ATOM     39  C   UNL     1       1.181   2.263  30.252  0.00  0.00    +0.000 A 
ATOM     40  C   UNL     1       2.539   2.534  30.090  0.00  0.00    +0.000 A 
ENDBRANCH  32  34
ENDBRANCH  11  32
ENDBRANCH  27  11
ENDBRANCH  25  27
ENDBRANCH  17   7
ENDBRANCH  15  17
TORSDOF 12
ENDMDL
MODEL 8
REMARK VINA RESULT:      10.5      2.548      4.905
REMARK  Name = 40778224
REMARK  14 active torsions:
REMARK  status: ('A' for Active; 'I' for Inactive)
REMARK    1  A    between atoms: O_2  and  C_13
REMARK    2  A    between atoms: O_3  and  C_14
REMARK    3  A    between atoms: O_5  and  C_26
REMARK    4  A    between atoms: O_5  and  C_35
REMARK    5  A    between atoms: N_7  and  C_17
REMARK    6  A    between atoms: N_8  and  C_24
REMARK    7  A    between atoms: N_11  and  C_27
REMARK    8  A    between atoms: N_11  and  C_32
REMARK    9  A    between atoms: N_11  and  C_33
REMARK   10  A    between atoms: C_12  and  C_16
REMARK   11  A    between atoms: C_15  and  C_17
REMARK   12  A    between atoms: C_16  and  C_18
REMARK   13  A    between atoms: C_25  and  C_27
REMARK   14  A    between atoms: C_32  and  C_34
REMARK                            x       y       z     vdW  Elec       q    Type
REMARK                         _______ _______ _______ _____ _____    ______ ____
ROOT
ATOM      1  O   UNL     1      -3.900   1.516  25.393  0.00  0.00    -0.366 OA
ATOM     12  C   UNL     1      -4.798   2.436  24.749  0.00  0.00    +0.159 C 
ATOM     13  C   UNL     1      -6.088   1.664  24.528  0.00  0.00    +0.175 C 
ATOM     14  C   UNL     1      -6.134   0.790  25.764  0.00  0.00    +0.176 C 
ATOM     15  C   UNL     1      -4.666   0.422  25.949  0.00  0.00    +0.171 C 
ENDROOT
BRANCH  13   2
ATOM      2  O   UNL     1      -7.203   2.519  24.405  0.00  0.00    -0.387 OA
ATOM     41  H   UNL     1      -6.906   3.319  23.939  0.00  0.00    +0.210 HD
ENDBRANCH  13   2
BRANCH  14   3
ATOM      3  O   UNL     1      -6.545   1.555  26.897  0.00  0.00    -0.387 OA
ATOM     42  H   UNL     1      -6.339   1.034  27.691  0.00  0.00    +0.210 HD
ENDBRANCH  14   3
BRANCH  12  16
ATOM     16  C   UNL     1      -4.173   2.946  23.463  0.00  0.00    +0.130 C 
BRANCH  16  18
ATOM      4  O   UNL     1      -3.488   5.212  23.541  0.00  0.00    -0.276 OA
ATOM      6  N   UNL     1      -1.961   3.640  24.308  0.00  0.00    -0.298 N 
ATOM      8  N   UNL     1      -0.139   3.137  26.402  0.00  0.00    -0.324 N 
ATOM     18  C   UNL     1      -3.182   4.040  23.771  0.00  0.00    +0.218 C 
ATOM     19  C   UNL     1      -1.562   2.261  24.593  0.00  0.00    +0.126 C 
ATOM     20  C   UNL     1      -0.932   4.631  24.614  0.00  0.00    +0.126 C 
ATOM     21  C   UNL     1      -1.134   2.114  26.054  0.00  0.00    +0.124 C 
ATOM     22  C   UNL     1      -0.499   4.526  26.075  0.00  0.00    +0.124 C 
BRANCH   8  24
ATOM     24  C   UNL     1       0.716   2.927  27.490  0.00  0.00    +0.072 A 
ATOM     26  C   UNL     1       0.199   2.700  28.766  0.00  0.00    +0.141 A 
ATOM     28  C   UNL     1       2.096   2.947  27.290  0.00  0.00    +0.027 A 
ATOM     29  C   UNL     1       1.063   2.493  29.842  0.00  0.00    +0.047 A 
ATOM     30  C   UNL     1       2.960   2.738  28.366  0.00  0.00    +0.002 A 
ATOM     31  C   UNL     1       2.443   2.512  29.641  0.00  0.00    +0.004 A 
BRANCH  26   5
ATOM      5  O   UNL     1      -1.146   2.677  28.983  0.00  0.00    -0.493 OA
ATOM     35  C   UNL     1      -1.717   3.813  29.630  0.00  0.00    +0.277 C 
ENDBRANCH  26   5
ENDBRANCH   8  24
ENDBRANCH  16  18
ENDBRANCH  12  16
BRANCH  15  17
ATOM     17  C   UNL     1      -4.271  -0.847  25.207  0.00  0.00    +0.179 C 
BRANCH  17   7
ATOM      7  N   UNL     1      -2.776  -0.999  25.115  0.00  0.00    -0.249 N 
ATOM      9  N   UNL     1      -2.037  -1.193  26.219  0.00  0.00    -0.065 NA
ATOM     10  N   UNL     1      -0.768  -1.285  25.834  0.00  0.00    -0.133 NA
ATOM     23  C   UNL     1      -2.004  -0.962  23.994  0.00  0.00    +0.135 A 
ATOM     25  C   UNL     1      -0.732  -1.145  24.474  0.00  0.00    +0.097 A 
BRANCH  25  27
ATOM     27  C   UNL     1       0.536  -1.199  23.737  0.00  0.00    +0.143 C 
BRANCH  27  11
ATOM     11  N   UNL     1       0.802   0.016  22.947  0.00  0.00    -0.295 NA
ATOM     33  C   UNL     1       1.083   1.138  23.834  0.00  0.00    +0.105 C 
BRANCH  11  32
ATOM     32  C   UNL     1       1.915  -0.215  22.032  0.00  0.00    +0.119 C 
BRANCH  32  34
ATOM     34  C   UNL     1       3.239  -0.214  22.748  0.00  0.00    -0.033 A 
ATOM     36  C   UNL     1       4.027   0.937  22.757  0.00  0.00    +0.005 A 
ATOM     37  C   UNL     1       3.679  -1.365  23.401  0.00  0.00    +0.005 A 
ATOM     38  C   UNL     1       5.254   0.938  23.420  0.00  0.00    +0.000 A 
ATOM     39  C   UNL     1       4.907  -1.365  24.064  0.00  0.00    +0.000 A 
ATOM     40  C   UNL     1       5.694  -0.213  24.073  0.00  0.00    +0.000 A 
ENDBRANCH  32  34
ENDBRANCH  11  32
ENDBRANCH  27  11
ENDBRANCH  25  27
ENDBRANCH  17   7
ENDBRANCH  15  17
TORSDOF 12
ENDMDL
MODEL 9
REMARK VINA RESULT:      10.6      2.170      6.041
REMARK  Name = 40778224
REMARK  14 active torsions:
REMARK  status: ('A' for Active; 'I' for Inactive)
REMARK    1  A    between atoms: O_2  and  C_13
REMARK    2  A    between atoms: O_3  and  C_14
REMARK    3  A    between atoms: O_5  and  C_26
REMARK    4  A    between atoms: O_5  and  C_35
REMARK    5  A    between atoms: N_7  and  C_17
REMARK    6  A    between atoms: N_8  and  C_24
REMARK    7  A    between atoms: N_11  and  C_27
REMARK    8  A    between atoms: N_11  and  C_32
REMARK    9  A    between atoms: N_11  and  C_33
REMARK   10  A    between atoms: C_12  and  C_16
REMARK   11  A    between atoms: C_15  and  C_17
REMARK   12  A    between atoms: C_16  and  C_18
REMARK   13  A    between atoms: C_25  and  C_27
REMARK   14  A    between atoms: C_32  and  C_34
REMARK                            x       y       z     vdW  Elec       q    Type
REMARK                         _______ _______ _______ _____ _____    ______ ____
ROOT
ATOM      1  O   UNL     1      -4.380   4.071  23.694  0.00  0.00    -0.366 OA
ATOM     12  C   UNL     1      -3.932   2.790  23.218  0.00  0.00    +0.159 C 
ATOM     13  C   UNL     1      -4.045   1.848  24.404  0.00  0.00    +0.175 C 
ATOM     14  C   UNL     1      -5.286   2.375  25.094  0.00  0.00    +0.176 C 
ATOM     15  C   UNL     1      -5.135   3.882  24.913  0.00  0.00    +0.171 C 
ENDROOT
BRANCH  13   2
ATOM      2  O   UNL     1      -4.157   0.501  24.003  0.00  0.00    -0.387 OA
ATOM     41  H   UNL     1      -4.212  -0.040  24.809  0.00  0.00    +0.210 HD
ENDBRANCH  13   2
BRANCH  14   3
ATOM      3  O   UNL     1      -6.457   1.960  24.392  0.00  0.00    -0.387 OA
ATOM     42  H   UNL     1      -7.104   1.663  25.054  0.00  0.00    +0.210 HD
ENDBRANCH  14   3
BRANCH  12  16
ATOM     16  C   UNL     1      -2.520   2.911  22.675  0.00  0.00    +0.130 C 
BRANCH  16  18
ATOM      4  O   UNL     1      -2.638   1.159  21.085  0.00  0.00    -0.276 OA
ATOM      6  N   UNL     1      -1.039   0.939  22.754  0.00  0.00    -0.298 N 
ATOM      8  N   UNL     1       1.654   0.214  23.180  0.00  0.00    -0.324 N 
ATOM     18  C   UNL     1      -2.077   1.592  22.094  0.00  0.00    +0.218 C 
ATOM     19  C   UNL     1      -0.350   1.419  23.953  0.00  0.00    +0.126 C 
ATOM     20  C   UNL     1      -0.563  -0.357  22.275  0.00  0.00    +0.126 C 
ATOM     21  C   UNL     1       1.159   1.489  23.716  0.00  0.00    +0.124 C 
ATOM     22  C   UNL     1       0.941  -0.313  22.007  0.00  0.00    +0.124 C 
BRANCH   8  24
ATOM     24  C   UNL     1       3.007  -0.115  23.320  0.00  0.00    +0.072 A 
ATOM     26  C   UNL     1       3.993   0.861  23.184  0.00  0.00    +0.141 A 
ATOM     28  C   UNL     1       3.365  -1.435  23.598  0.00  0.00    +0.027 A 
ATOM     29  C   UNL     1       5.339   0.518  23.325  0.00  0.00    +0.047 A 
ATOM     30  C   UNL     1       4.710  -1.777  23.741  0.00  0.00    +0.002 A 
ATOM     31  C   UNL     1       5.696  -0.800  23.603  0.00  0.00    +0.004 A 
BRANCH  26   5
ATOM      5  O   UNL     1       3.665   2.155  22.911  0.00  0.00    -0.493 OA
ATOM     35  C   UNL     1       4.040   2.664  21.633  0.00  0.00    +0.277 C 
ENDBRANCH  26   5
ENDBRANCH   8  24
ENDBRANCH  16  18
ENDBRANCH  12  16
BRANCH  15  17
ATOM     17  C   UNL     1      -4.365   4.544  26.047  0.00  0.00    +0.179 C 
BRANCH  17   7
ATOM      7  N   UNL     1      -2.881   4.317  25.923  0.00  0.00    -0.249 N 
ATOM      9  N   UNL     1      -2.117   5.151  25.202  0.00  0.00    -0.065 NA
ATOM     10  N   UNL     1      -0.868   4.702  25.269  0.00  0.00    -0.133 NA
ATOM     23  C   UNL     1      -2.146   3.311  26.472  0.00  0.00    +0.135 A 
ATOM     25  C   UNL     1      -0.870   3.575  26.044  0.00  0.00    +0.097 A 
BRANCH  25  27
ATOM     27  C   UNL     1       0.368   2.834  26.312  0.00  0.00    +0.143 C 
BRANCH  27  11
ATOM     11  N   UNL     1       0.144   1.564  27.022  0.00  0.00    -0.295 NA
ATOM     33  C   UNL     1       0.515   1.701  28.425  0.00  0.00    +0.105 C 
BRANCH  11  32
ATOM     32  C   UNL     1      -1.251   1.156  26.891  0.00  0.00    +0.119 C 
BRANCH  32  34
ATOM     34  C   UNL     1      -1.382  -0.189  26.226  0.00  0.00    -0.033 A 
ATOM     36  C   UNL     1      -2.646  -0.721  25.973  0.00  0.00    +0.005 A 
ATOM     37  C   UNL     1      -0.239  -0.902  25.865  0.00  0.00    +0.005 A 
ATOM     38  C   UNL     1      -2.767  -1.967  25.358  0.00  0.00    +0.000 A 
ATOM     39  C   UNL     1      -0.360  -2.149  25.250  0.00  0.00    +0.000 A 
ATOM     40  C   UNL     1      -1.624  -2.681  24.997  0.00  0.00    +0.000 A 
ENDBRANCH  32  34
ENDBRANCH  11  32
ENDBRANCH  27  11
ENDBRANCH  25  27
ENDBRANCH  17   7
ENDBRANCH  15  17
TORSDOF 12
ENDMDL
MODEL 10
REMARK VINA RESULT:      10.9      2.316      6.911
REMARK  Name = 40778224
REMARK  14 active torsions:
REMARK  status: ('A' for Active; 'I' for Inactive)
REMARK    1  A    between atoms: O_2  and  C_13
REMARK    2  A    between atoms: O_3  and  C_14
REMARK    3  A    between atoms: O_5  and  C_26
REMARK    4  A    between atoms: O_5  and  C_35
REMARK    5  A    between atoms: N_7  and  C_17
REMARK    6  A    between atoms: N_8  and  C_24
REMARK    7  A    between atoms: N_11  and  C_27
REMARK    8  A    between atoms: N_11  and  C_32
REMARK    9  A    between atoms: N_11  and  C_33
REMARK   10  A    between atoms: C_12  and  C_16
REMARK   11  A    between atoms: C_15  and  C_17
REMARK   12  A    between atoms: C_16  and  C_18
REMARK   13  A    between atoms: C_25  and  C_27
REMARK   14  A    between atoms: C_32  and  C_34
REMARK                            x       y       z     vdW  Elec       q    Type
REMARK                         _______ _______ _______ _____ _____    ______ ____
ROOT
ATOM      1  O   UNL     1      -3.944  -0.709  23.392  0.00  0.00    -0.366 OA
ATOM     12  C   UNL     1      -2.763  -0.215  24.046  0.00  0.00    +0.159 C 
ATOM     13  C   UNL     1      -3.133  -0.074  25.513  0.00  0.00    +0.175 C 
ATOM     14  C   UNL     1      -4.066  -1.253  25.705  0.00  0.00    +0.176 C 
ATOM     15  C   UNL     1      -4.833  -1.269  24.387  0.00  0.00    +0.171 C 
ENDROOT
BRANCH  13   2
ATOM      2  O   UNL     1      -2.000  -0.115  26.352  0.00  0.00    -0.387 OA
ATOM     41  H   UNL     1      -1.230  -0.310  25.792  0.00  0.00    +0.210 HD
ENDBRANCH  13   2
BRANCH  14   3
ATOM      3  O   UNL     1      -3.319  -2.465  25.797  0.00  0.00    -0.387 OA
ATOM     42  H   UNL     1      -2.835  -2.446  26.641  0.00  0.00    +0.210 HD
ENDBRANCH  14   3
BRANCH  12  16
ATOM     16  C   UNL     1      -2.333   1.093  23.406  0.00  0.00    +0.130 C 
BRANCH  16  18
ATOM      4  O   UNL     1      -1.728   1.311  21.126  0.00  0.00    -0.276 OA
ATOM      6  N   UNL     1      -0.338   0.002  22.447  0.00  0.00    -0.298 N 
ATOM      8  N   UNL     1       2.381  -0.508  23.001  0.00  0.00    -0.324 N 
ATOM     18  C   UNL     1      -1.444   0.816  22.219  0.00  0.00    +0.218 C 
ATOM     19  C   UNL     1       0.030  -0.604  23.728  0.00  0.00    +0.126 C 
ATOM     20  C   UNL     1       0.564  -0.339  21.349  0.00  0.00    +0.126 C 
ATOM     21  C   UNL     1       1.462  -0.227  24.111  0.00  0.00    +0.124 C 
ATOM     22  C   UNL     1       2.002   0.047  21.692  0.00  0.00    +0.124 C 
BRANCH   8  24
ATOM     24  C   UNL     1       3.745  -0.685  23.260  0.00  0.00    +0.072 A 
ATOM     26  C   UNL     1       4.681   0.240  22.799  0.00  0.00    +0.141 A 
ATOM     28  C   UNL     1       4.165  -1.798  23.989  0.00  0.00    +0.027 A 
ATOM     29  C   UNL     1       6.038   0.052  23.064  0.00  0.00    +0.047 A 
ATOM     30  C   UNL     1       5.522  -1.985  24.256  0.00  0.00    +0.002 A 
ATOM     31  C   UNL     1       6.458  -1.061  23.793  0.00  0.00    +0.004 A 
BRANCH  26   5
ATOM      5  O   UNL     1       4.292   1.334  22.084  0.00  0.00    -0.493 OA
ATOM     35  C   UNL     1       3.593   2.355  22.792  0.00  0.00    +0.277 C 
ENDBRANCH  26   5
ENDBRANCH   8  24
ENDBRANCH  16  18
ENDBRANCH  12  16
BRANCH  15  17
ATOM     17  C   UNL     1      -6.093  -0.415  24.419  0.00  0.00    +0.179 C 
BRANCH  17   7
ATOM      7  N   UNL     1      -5.836   0.937  25.030  0.00  0.00    -0.249 N 
ATOM      9  N   UNL     1      -6.067   1.156  26.334  0.00  0.00    -0.065 NA
ATOM     10  N   UNL     1      -5.759   2.425  26.583  0.00  0.00    -0.133 NA
ATOM     23  C   UNL     1      -5.374   2.056  24.408  0.00  0.00    +0.135 A 
ATOM     25  C   UNL     1      -5.333   2.990  25.412  0.00  0.00    +0.097 A 
BRANCH  25  27
ATOM     27  C   UNL     1      -4.917   4.396  25.353  0.00  0.00    +0.143 C 
BRANCH  27  11
ATOM     11  N   UNL     1      -3.729   4.616  24.510  0.00  0.00    -0.295 NA
ATOM     33  C   UNL     1      -4.041   5.558  23.441  0.00  0.00    +0.105 C 
BRANCH  11  32
ATOM     32  C   UNL     1      -2.620   5.101  25.323  0.00  0.00    +0.119 C 
BRANCH  32  34
ATOM     34  C   UNL     1      -1.480   4.118  25.361  0.00  0.00    -0.033 A 
ATOM     36  C   UNL     1      -1.283   3.321  26.488  0.00  0.00    +0.005 A 
ATOM     37  C   UNL     1      -0.620   4.005  24.268  0.00  0.00    +0.005 A 
ATOM     38  C   UNL     1      -0.228   2.411  26.524  0.00  0.00    +0.000 A 
ATOM     39  C   UNL     1       0.436   3.095  24.303  0.00  0.00    +0.000 A 
ATOM     40  C   UNL     1       0.632   2.298  25.431  0.00  0.00    +0.000 A 
ENDBRANCH  32  34
ENDBRANCH  11  32
ENDBRANCH  27  11
ENDBRANCH  25  27
ENDBRANCH  17   7
ENDBRANCH  15  17
TORSDOF 12
ENDMDL
