MODEL 1
REMARK VINA RESULT:      -4.0      0.000      0.000
REMARK  Name = 75536305
REMARK  9 active torsions:
REMARK  status: ('A' for Active; 'I' for Inactive)
REMARK    1  A    between atoms: O_2  and  C_10
REMARK    2  A    between atoms: O_5  and  C_19
REMARK    3  A    between atoms: O_5  and  C_25
REMARK    4  A    between atoms: N_6  and  C_14
REMARK    5  A    between atoms: C_8  and  C_13
REMARK    6  A    between atoms: C_9  and  C_14
REMARK    7  A    between atoms: C_13  and  C_15
REMARK    8  A    between atoms: C_17  and  C_19
REMARK    9  A    between atoms: C_18  and  C_20
REMARK                            x       y       z     vdW  Elec       q    Type
REMARK                         _______ _______ _______ _____ _____    ______ ____
ROOT
ATOM      1  O   UNL     1      -3.422  -0.039  23.456  0.00  0.00    -0.369 OA
ATOM      8  C   UNL     1      -2.416   0.655  24.197  0.00  0.00    +0.125 C 
ATOM      9  C   UNL     1      -4.335  -0.812  24.245  0.00  0.00    +0.164 C 
ATOM     10  C   UNL     1      -3.592  -1.819  25.134  0.00  0.00    +0.145 C 
ATOM     11  C   UNL     1      -1.571  -0.327  25.009  0.00  0.00    +0.034 C 
ATOM     12  C   UNL     1      -2.458  -1.170  25.922  0.00  0.00    +0.036 C 
ENDROOT
BRANCH  10   2
ATOM      2  O   UNL     1      -3.022  -2.833  24.303  0.00  0.00    -0.389 OA
ATOM     32  H   UNL     1      -2.087  -2.930  24.558  0.00  0.00    +0.210 HD
ENDBRANCH  10   2
BRANCH   8  13
ATOM     13  C   UNL     1      -1.552   1.414  23.197  0.00  0.00    +0.090 C 
BRANCH  13  15
ATOM      3  O   UNL     1       1.269  -0.606  22.221  0.00  0.00    -0.354 OA
ATOM      7  N   UNL     1      -0.071  -0.245  22.143  0.00  0.00    -0.083 NA
ATOM     15  C   UNL     1      -0.209   0.760  23.011  0.00  0.00    +0.087 A 
ATOM     16  C   UNL     1       0.997   1.076  23.660  0.00  0.00    +0.076 A 
ATOM     18  C   UNL     1       1.894   0.188  23.127  0.00  0.00    +0.167 A 
BRANCH  18  20
ATOM     20  C   UNL     1       3.293  -0.067  23.317  0.00  0.00    +0.020 A 
ATOM     21  C   UNL     1       3.724  -1.330  23.723  0.00  0.00    +0.011 A 
ATOM     22  C   UNL     1       4.223   0.949  23.096  0.00  0.00    +0.011 A 
ATOM     23  C   UNL     1       5.084  -1.577  23.908  0.00  0.00    +0.001 A 
ATOM     24  C   UNL     1       5.583   0.702  23.281  0.00  0.00    +0.001 A 
ATOM     26  C   UNL     1       6.014  -0.561  23.687  0.00  0.00    +0.000 A 
ENDBRANCH  18  20
ENDBRANCH  13  15
ENDBRANCH   8  13
BRANCH   9  14
ATOM     14  C   UNL     1      -5.285   0.089  25.031  0.00  0.00    +0.138 C 
BRANCH  14   6
ATOM      4  O   UNL     1      -6.283   2.324  26.573  0.00  0.00    -0.272 OA
ATOM      6  N   UNL     1      -4.912   1.465  24.899  0.00  0.00    -0.310 N 
ATOM     17  C   UNL     1      -5.447   2.482  25.688  0.00  0.00    +0.251 C 
ATOM     33  H   UNL     1      -4.250   1.708  24.168  0.00  0.00    +0.149 HD
BRANCH  17  19
ATOM     19  C   UNL     1      -4.873   3.839  25.335  0.00  0.00    +0.324 C 
BRANCH  19   5
ATOM      5  O   UNL     1      -3.921   4.243  26.297  0.00  0.00    -0.483 OA
BRANCH   5  25
ATOM     25  C   UNL     1      -2.595   4.134  25.951  0.00  0.00    +0.121 A 
ATOM     27  C   UNL     1      -2.038   5.027  25.035  0.00  0.00    +0.045 A 
ATOM     28  C   UNL     1      -1.808   3.131  26.514  0.00  0.00    +0.045 A 
ATOM     29  C   UNL     1      -0.693   4.917  24.683  0.00  0.00    +0.004 A 
ATOM     30  C   UNL     1      -0.462   3.020  26.163  0.00  0.00    +0.004 A 
ATOM     31  C   UNL     1       0.095   3.913  25.247  0.00  0.00    +0.000 A 
ENDBRANCH   5  25
ENDBRANCH  19   5
ENDBRANCH  17  19
ENDBRANCH  14   6
ENDBRANCH   9  14
TORSDOF 9
ENDMDL
MODEL 2
REMARK VINA RESULT:      -2.1      1.318      3.946
REMARK  Name = 75536305
REMARK  9 active torsions:
REMARK  status: ('A' for Active; 'I' for Inactive)
REMARK    1  A    between atoms: O_2  and  C_10
REMARK    2  A    between atoms: O_5  and  C_19
REMARK    3  A    between atoms: O_5  and  C_25
REMARK    4  A    between atoms: N_6  and  C_14
REMARK    5  A    between atoms: C_8  and  C_13
REMARK    6  A    between atoms: C_9  and  C_14
REMARK    7  A    between atoms: C_13  and  C_15
REMARK    8  A    between atoms: C_17  and  C_19
REMARK    9  A    between atoms: C_18  and  C_20
REMARK                            x       y       z     vdW  Elec       q    Type
REMARK                         _______ _______ _______ _____ _____    ______ ____
ROOT
ATOM      1  O   UNL     1      -1.901   2.003  25.183  0.00  0.00    -0.369 OA
ATOM      8  C   UNL     1      -1.731   2.034  23.764  0.00  0.00    +0.125 C 
ATOM      9  C   UNL     1      -2.068   3.284  25.804  0.00  0.00    +0.164 C 
ATOM     10  C   UNL     1      -0.905   4.227  25.464  0.00  0.00    +0.145 C 
ATOM     11  C   UNL     1      -0.508   2.868  23.385  0.00  0.00    +0.034 C 
ATOM     12  C   UNL     1      -0.617   4.275  23.966  0.00  0.00    +0.036 C 
ENDROOT
BRANCH  10   2
ATOM      2  O   UNL     1       0.275   3.756  26.121  0.00  0.00    -0.389 OA
ATOM     32  H   UNL     1       0.536   2.922  25.693  0.00  0.00    +0.210 HD
ENDBRANCH  10   2
BRANCH   8  13
ATOM     13  C   UNL     1      -1.572   0.593  23.290  0.00  0.00    +0.090 C 
BRANCH  13  15
ATOM      3  O   UNL     1       1.581  -0.394  21.851  0.00  0.00    -0.354 OA
ATOM      7  N   UNL     1       0.208  -0.192  21.783  0.00  0.00    -0.083 NA
ATOM     15  C   UNL     1      -0.135   0.260  22.992  0.00  0.00    +0.087 A 
ATOM     16  C   UNL     1       0.969   0.365  23.856  0.00  0.00    +0.076 A 
ATOM     18  C   UNL     1       2.022  -0.059  23.090  0.00  0.00    +0.167 A 
BRANCH  18  20
ATOM     20  C   UNL     1       3.431  -0.214  23.312  0.00  0.00    +0.020 A 
ATOM     21  C   UNL     1       3.932  -1.420  23.802  0.00  0.00    +0.011 A 
ATOM     22  C   UNL     1       4.300   0.842  23.039  0.00  0.00    +0.011 A 
ATOM     23  C   UNL     1       5.301  -1.570  24.018  0.00  0.00    +0.001 A 
ATOM     24  C   UNL     1       5.670   0.692  23.255  0.00  0.00    +0.001 A 
ATOM     26  C   UNL     1       6.171  -0.514  23.745  0.00  0.00    +0.000 A 
ENDBRANCH  18  20
ENDBRANCH  13  15
ENDBRANCH   8  13
BRANCH   9  14
ATOM     14  C   UNL     1      -3.435   3.882  25.476  0.00  0.00    +0.138 C 
BRANCH  14   6
ATOM      4  O   UNL     1      -5.760   2.793  26.807  0.00  0.00    -0.272 OA
ATOM      6  N   UNL     1      -4.326   2.879  24.976  0.00  0.00    -0.310 N 
ATOM     17  C   UNL     1      -5.428   2.411  25.689  0.00  0.00    +0.251 C 
ATOM     33  H   UNL     1      -4.117   2.469  24.070  0.00  0.00    +0.149 HD
BRANCH  17  19
ATOM     19  C   UNL     1      -6.195   1.353  24.922  0.00  0.00    +0.324 C 
BRANCH  19   5
ATOM      5  O   UNL     1      -5.350   0.694  24.002  0.00  0.00    -0.483 OA
BRANCH   5  25
ATOM     25  C   UNL     1      -4.636  -0.385  24.469  0.00  0.00    +0.121 A 
ATOM     27  C   UNL     1      -4.507  -1.528  23.681  0.00  0.00    +0.045 A 
ATOM     28  C   UNL     1      -4.042  -0.335  25.729  0.00  0.00    +0.045 A 
ATOM     29  C   UNL     1      -3.783  -2.623  24.154  0.00  0.00    +0.004 A 
ATOM     30  C   UNL     1      -3.318  -1.429  26.203  0.00  0.00    +0.004 A 
ATOM     31  C   UNL     1      -3.188  -2.573  25.416  0.00  0.00    +0.000 A 
ENDBRANCH   5  25
ENDBRANCH  19   5
ENDBRANCH  17  19
ENDBRANCH  14   6
ENDBRANCH   9  14
TORSDOF 9
ENDMDL
MODEL 3
REMARK VINA RESULT:      -0.7      1.758      4.473
REMARK  Name = 75536305
REMARK  9 active torsions:
REMARK  status: ('A' for Active; 'I' for Inactive)
REMARK    1  A    between atoms: O_2  and  C_10
REMARK    2  A    between atoms: O_5  and  C_19
REMARK    3  A    between atoms: O_5  and  C_25
REMARK    4  A    between atoms: N_6  and  C_14
REMARK    5  A    between atoms: C_8  and  C_13
REMARK    6  A    between atoms: C_9  and  C_14
REMARK    7  A    between atoms: C_13  and  C_15
REMARK    8  A    between atoms: C_17  and  C_19
REMARK    9  A    between atoms: C_18  and  C_20
REMARK                            x       y       z     vdW  Elec       q    Type
REMARK                         _______ _______ _______ _____ _____    ______ ____
ROOT
ATOM      1  O   UNL     1      -2.011   3.488  23.751  0.00  0.00    -0.369 OA
ATOM      8  C   UNL     1      -2.521   2.154  23.689  0.00  0.00    +0.125 C 
ATOM      9  C   UNL     1      -2.436   4.250  24.888  0.00  0.00    +0.164 C 
ATOM     10  C   UNL     1      -3.967   4.300  24.987  0.00  0.00    +0.145 C 
ATOM     11  C   UNL     1      -4.050   2.162  23.665  0.00  0.00    +0.034 C 
ATOM     12  C   UNL     1      -4.601   2.917  24.871  0.00  0.00    +0.036 C 
ENDROOT
BRANCH  10   2
ATOM      2  O   UNL     1      -4.471   5.102  23.916  0.00  0.00    -0.389 OA
ATOM     32  H   UNL     1      -5.169   4.591  23.470  0.00  0.00    +0.210 HD
ENDBRANCH  10   2
BRANCH   8  13
ATOM     13  C   UNL     1      -1.963   1.508  22.425  0.00  0.00    +0.090 C 
BRANCH  13  15
ATOM      3  O   UNL     1       0.630  -0.898  23.116  0.00  0.00    -0.354 OA
ATOM      7  N   UNL     1      -0.698  -0.548  22.900  0.00  0.00    -0.083 NA
ATOM     15  C   UNL     1      -0.679   0.771  22.697  0.00  0.00    +0.087 A 
ATOM     16  C   UNL     1       0.619   1.306  22.773  0.00  0.00    +0.076 A 
ATOM     18  C   UNL     1       1.404   0.215  23.038  0.00  0.00    +0.167 A 
BRANCH  18  20
ATOM     20  C   UNL     1       2.809   0.011  23.240  0.00  0.00    +0.020 A 
ATOM     21  C   UNL     1       3.278  -1.225  23.687  0.00  0.00    +0.011 A 
ATOM     22  C   UNL     1       3.707   1.048  22.990  0.00  0.00    +0.011 A 
ATOM     23  C   UNL     1       4.645  -1.423  23.883  0.00  0.00    +0.001 A 
ATOM     24  C   UNL     1       5.074   0.850  23.187  0.00  0.00    +0.001 A 
ATOM     26  C   UNL     1       5.543  -0.385  23.634  0.00  0.00    +0.000 A 
ENDBRANCH  18  20
ENDBRANCH  13  15
ENDBRANCH   8  13
BRANCH   9  14
ATOM     14  C   UNL     1      -1.772   3.747  26.168  0.00  0.00    +0.138 C 
BRANCH  14   6
ATOM      4  O   UNL     1       0.678   2.209  26.160  0.00  0.00    -0.272 OA
ATOM      6  N   UNL     1      -1.647   2.321  26.154  0.00  0.00    -0.310 N 
ATOM     17  C   UNL     1      -0.420   1.660  26.151  0.00  0.00    +0.251 C 
ATOM     33  H   UNL     1      -2.501   1.771  26.109  0.00  0.00    +0.149 HD
BRANCH  17  19
ATOM     19  C   UNL     1      -0.584   0.154  26.136  0.00  0.00    +0.324 C 
BRANCH  19   5
ATOM      5  O   UNL     1      -1.907  -0.206  26.472  0.00  0.00    -0.483 OA
BRANCH   5  25
ATOM     25  C   UNL     1      -2.570  -1.039  25.602  0.00  0.00    +0.121 A 
ATOM     27  C   UNL     1      -3.809  -0.662  25.083  0.00  0.00    +0.045 A 
ATOM     28  C   UNL     1      -2.004  -2.260  25.238  0.00  0.00    +0.045 A 
ATOM     29  C   UNL     1      -4.482  -1.507  24.200  0.00  0.00    +0.004 A 
ATOM     30  C   UNL     1      -2.676  -3.106  24.356  0.00  0.00    +0.004 A 
ATOM     31  C   UNL     1      -3.916  -2.729  23.836  0.00  0.00    +0.000 A 
ENDBRANCH   5  25
ENDBRANCH  19   5
ENDBRANCH  17  19
ENDBRANCH  14   6
ENDBRANCH   9  14
TORSDOF 9
ENDMDL
