MODEL 1
REMARK VINA RESULT:      -4.8      0.000      0.000
REMARK  Name = 75537104
REMARK  3 active torsions:
REMARK  status: ('A' for Active; 'I' for Inactive)
REMARK    1  A    between atoms: N_3  and  C_12
REMARK    2  A    between atoms: N_4  and  C_13
REMARK    3  A    between atoms: C_12  and  C_14
REMARK                            x       y       z     vdW  Elec       q    Type
REMARK                         _______ _______ _______ _____ _____    ______ ____
ROOT
ATOM      1  O   UNL     1      -2.782   3.736  25.739  0.00  0.00    -0.252 OA
ATOM      2  N   UNL     1      -1.512   1.897  25.015  0.00  0.00    -0.278 N 
ATOM      3  N   UNL     1       0.520   0.464  23.700  0.00  0.00    -0.293 NA
ATOM      4  N   UNL     1      -3.752   1.738  24.942  0.00  0.00    -0.287 N 
ATOM      6  C   UNL     1      -1.766   0.531  24.607  0.00  0.00    +0.109 C 
ATOM      7  C   UNL     1      -0.895   0.163  23.406  0.00  0.00    +0.109 C 
ATOM      8  C   UNL     1      -3.271   0.506  24.341  0.00  0.00    +0.132 C 
ATOM      9  C   UNL     1      -0.146   2.342  25.188  0.00  0.00    +0.125 C 
ATOM     10  C   UNL     1       0.703   1.901  23.991  0.00  0.00    +0.104 C 
ATOM     11  C   UNL     1      -2.692   2.599  25.293  0.00  0.00    +0.305 C 
ATOM     13  C   UNL     1      -5.160   2.060  25.009  0.00  0.00    +0.133 C 
ENDROOT
BRANCH   3  12
ATOM     12  C   UNL     1       1.370   0.060  22.580  0.00  0.00    +0.140 C 
BRANCH  12  14
ATOM      5  N   UNL     1       3.170  -1.276  23.522  0.00  0.00    -0.259 NA
ATOM     14  C   UNL     1       2.809  -0.087  22.993  0.00  0.00    +0.055 A 
ATOM     15  C   UNL     1       3.677   0.979  22.814  0.00  0.00    +0.024 A 
ATOM     16  C   UNL     1       5.001   0.811  23.205  0.00  0.00    +0.003 A 
ATOM     17  C   UNL     1       4.465  -1.402  23.891  0.00  0.00    +0.111 A 
ATOM     18  C   UNL     1       5.412  -0.399  23.754  0.00  0.00    +0.020 A 
ENDBRANCH  12  14
ENDBRANCH   3  12
TORSDOF 2
ENDMDL
MODEL 2
REMARK VINA RESULT:      -4.8     16.583     18.073
REMARK  Name = 75537104
REMARK  3 active torsions:
REMARK  status: ('A' for Active; 'I' for Inactive)
REMARK    1  A    between atoms: N_3  and  C_12
REMARK    2  A    between atoms: N_4  and  C_13
REMARK    3  A    between atoms: C_12  and  C_14
REMARK                            x       y       z     vdW  Elec       q    Type
REMARK                         _______ _______ _______ _____ _____    ______ ____
ROOT
ATOM      1  O   UNL     1      -1.564 -10.711  15.279  0.00  0.00    -0.252 OA
ATOM      2  N   UNL     1      -2.839 -10.669  13.307  0.00  0.00    -0.278 N 
ATOM      3  N   UNL     1      -3.636  -9.933  10.712  0.00  0.00    -0.293 NA
ATOM      4  N   UNL     1      -3.923 -10.650  15.274  0.00  0.00    -0.287 N 
ATOM      6  C   UNL     1      -4.239 -10.757  12.950  0.00  0.00    +0.109 C 
ATOM      7  C   UNL     1      -4.570  -9.758  11.842  0.00  0.00    +0.109 C 
ATOM      8  C   UNL     1      -4.966 -10.512  14.272  0.00  0.00    +0.132 C 
ATOM      9  C   UNL     1      -1.839 -10.680  12.259  0.00  0.00    +0.125 C 
ATOM     10  C   UNL     1      -2.241  -9.711  11.143  0.00  0.00    +0.104 C 
ATOM     11  C   UNL     1      -2.638 -10.685  14.693  0.00  0.00    +0.305 C 
ATOM     13  C   UNL     1      -4.208 -10.599  16.691  0.00  0.00    +0.133 C 
ENDROOT
BRANCH   3  12
ATOM     12  C   UNL     1      -3.982  -9.024   9.620  0.00  0.00    +0.140 C 
BRANCH  12  14
ATOM      5  N   UNL     1      -6.246  -8.219   9.241  0.00  0.00    -0.259 NA
ATOM     14  C   UNL     1      -5.383  -9.253   9.121  0.00  0.00    +0.055 A 
ATOM     15  C   UNL     1      -5.716 -10.482   8.576  0.00  0.00    +0.024 A 
ATOM     16  C   UNL     1      -7.019 -10.662   8.124  0.00  0.00    +0.003 A 
ATOM     17  C   UNL     1      -7.503  -8.431   8.791  0.00  0.00    +0.111 A 
ATOM     18  C   UNL     1      -7.936  -9.621   8.229  0.00  0.00    +0.020 A 
ENDBRANCH  12  14
ENDBRANCH   3  12
TORSDOF 2
ENDMDL
MODEL 3
REMARK VINA RESULT:      -3.2     16.766     18.197
REMARK  Name = 75537104
REMARK  3 active torsions:
REMARK  status: ('A' for Active; 'I' for Inactive)
REMARK    1  A    between atoms: N_3  and  C_12
REMARK    2  A    between atoms: N_4  and  C_13
REMARK    3  A    between atoms: C_12  and  C_14
REMARK                            x       y       z     vdW  Elec       q    Type
REMARK                         _______ _______ _______ _____ _____    ______ ____
ROOT
ATOM      1  O   UNL     1      -5.012  -9.833  16.505  0.00  0.00    -0.252 OA
ATOM      2  N   UNL     1      -6.052 -10.030  14.409  0.00  0.00    -0.278 N 
ATOM      3  N   UNL     1      -6.506  -9.659  11.658  0.00  0.00    -0.293 NA
ATOM      4  N   UNL     1      -7.346  -9.665  16.208  0.00  0.00    -0.287 N 
ATOM      6  C   UNL     1      -7.407 -10.106  13.903  0.00  0.00    +0.109 C 
ATOM      7  C   UNL     1      -7.548  -9.272  12.630  0.00  0.00    +0.109 C 
ATOM      8  C   UNL     1      -8.260  -9.632  15.079  0.00  0.00    +0.132 C 
ATOM      9  C   UNL     1      -4.945 -10.245  13.502  0.00  0.00    +0.125 C 
ATOM     10  C   UNL     1      -5.157  -9.439  12.217  0.00  0.00    +0.104 C 
ATOM     11  C   UNL     1      -6.010  -9.846  15.796  0.00  0.00    +0.305 C 
ATOM     13  C   UNL     1      -7.785  -9.388  17.558  0.00  0.00    +0.133 C 
ENDROOT
BRANCH   3  12
ATOM     12  C   UNL     1      -6.669  -8.909  10.412  0.00  0.00    +0.140 C 
BRANCH  12  14
ATOM      5  N   UNL     1      -8.100 -10.492   9.246  0.00  0.00    -0.259 NA
ATOM     14  C   UNL     1      -7.968  -9.236   9.726  0.00  0.00    +0.055 A 
ATOM     15  C   UNL     1      -8.944  -8.258   9.622  0.00  0.00    +0.024 A 
ATOM     16  C   UNL     1     -10.133  -8.592   8.983  0.00  0.00    +0.003 A 
ATOM     17  C   UNL     1      -9.270 -10.780   8.631  0.00  0.00    +0.111 A 
ATOM     18  C   UNL     1     -10.308  -9.876   8.476  0.00  0.00    +0.020 A 
ENDBRANCH  12  14
ENDBRANCH   3  12
TORSDOF 2
ENDMDL
MODEL 4
REMARK VINA RESULT:      -3.1      1.843      3.097
REMARK  Name = 75537104
REMARK  3 active torsions:
REMARK  status: ('A' for Active; 'I' for Inactive)
REMARK    1  A    between atoms: N_3  and  C_12
REMARK    2  A    between atoms: N_4  and  C_13
REMARK    3  A    between atoms: C_12  and  C_14
REMARK                            x       y       z     vdW  Elec       q    Type
REMARK                         _______ _______ _______ _____ _____    ______ ____
ROOT
ATOM      1  O   UNL     1      -6.278   1.630  25.135  0.00  0.00    -0.252 OA
ATOM      2  N   UNL     1      -4.026   1.823  24.500  0.00  0.00    -0.278 N 
ATOM      3  N   UNL     1      -1.284   1.216  24.331  0.00  0.00    -0.293 NA
ATOM      4  N   UNL     1      -5.117   3.684  25.127  0.00  0.00    -0.287 N 
ATOM      6  C   UNL     1      -3.081   2.895  24.263  0.00  0.00    +0.109 C 
ATOM      7  C   UNL     1      -1.712   2.536  24.838  0.00  0.00    +0.109 C 
ATOM      8  C   UNL     1      -3.747   4.112  24.903  0.00  0.00    +0.132 C 
ATOM      9  C   UNL     1      -3.649   0.463  24.176  0.00  0.00    +0.125 C 
ATOM     10  C   UNL     1      -2.248   0.166  24.719  0.00  0.00    +0.104 C 
ATOM     11  C   UNL     1      -5.269   2.294  24.940  0.00  0.00    +0.305 C 
ATOM     13  C   UNL     1      -6.131   4.585  25.627  0.00  0.00    +0.133 C 
ENDROOT
BRANCH   3  12
ATOM     12  C   UNL     1       0.053   0.889  24.827  0.00  0.00    +0.140 C 
BRANCH  12  14
ATOM      5  N   UNL     1       2.207   1.208  23.744  0.00  0.00    -0.259 NA
ATOM     14  C   UNL     1       1.008   0.585  23.705  0.00  0.00    +0.055 A 
ATOM     15  C   UNL     1       0.625  -0.299  22.709  0.00  0.00    +0.024 A 
ATOM     16  C   UNL     1       1.531  -0.559  21.687  0.00  0.00    +0.003 A 
ATOM     17  C   UNL     1       3.061   0.930  22.734  0.00  0.00    +0.111 A 
ATOM     18  C   UNL     1       2.776   0.062  21.692  0.00  0.00    +0.020 A 
ENDBRANCH  12  14
ENDBRANCH   3  12
TORSDOF 2
ENDMDL
MODEL 5
REMARK VINA RESULT:      -3.1      3.980      5.127
REMARK  Name = 75537104
REMARK  3 active torsions:
REMARK  status: ('A' for Active; 'I' for Inactive)
REMARK    1  A    between atoms: N_3  and  C_12
REMARK    2  A    between atoms: N_4  and  C_13
REMARK    3  A    between atoms: C_12  and  C_14
REMARK                            x       y       z     vdW  Elec       q    Type
REMARK                         _______ _______ _______ _____ _____    ______ ____
ROOT
ATOM      1  O   UNL     1      -3.527   5.032  26.521  0.00  0.00    -0.252 OA
ATOM      2  N   UNL     1      -3.890   3.192  25.108  0.00  0.00    -0.278 N 
ATOM      3  N   UNL     1      -4.579   0.580  24.323  0.00  0.00    -0.293 NA
ATOM      4  N   UNL     1      -2.024   4.407  24.813  0.00  0.00    -0.287 N 
ATOM      6  C   UNL     1      -3.272   2.627  23.927  0.00  0.00    +0.109 C 
ATOM      7  C   UNL     1      -3.230   1.102  24.026  0.00  0.00    +0.109 C 
ATOM      8  C   UNL     1      -1.903   3.304  23.875  0.00  0.00    +0.132 C 
ATOM      9  C   UNL     1      -5.149   2.651  25.576  0.00  0.00    +0.125 C 
ATOM     10  C   UNL     1      -5.082   1.121  25.602  0.00  0.00    +0.104 C 
ATOM     11  C   UNL     1      -3.193   4.305  25.595  0.00  0.00    +0.305 C 
ATOM     13  C   UNL     1      -0.972   5.382  24.990  0.00  0.00    +0.133 C 
ENDROOT
BRANCH   3  12
ATOM     12  C   UNL     1      -4.563  -0.882  24.360  0.00  0.00    +0.140 C 
BRANCH  12  14
ATOM      5  N   UNL     1      -2.473  -0.755  25.598  0.00  0.00    -0.259 NA
ATOM     14  C   UNL     1      -3.191  -1.420  24.666  0.00  0.00    +0.055 A 
ATOM     15  C   UNL     1      -2.739  -2.545  23.995  0.00  0.00    +0.024 A 
ATOM     16  C   UNL     1      -1.467  -3.017  24.302  0.00  0.00    +0.003 A 
ATOM     17  C   UNL     1      -1.241  -1.243  25.869  0.00  0.00    +0.111 A 
ATOM     18  C   UNL     1      -0.697  -2.360  25.256  0.00  0.00    +0.020 A 
ENDBRANCH  12  14
ENDBRANCH   3  12
TORSDOF 2
ENDMDL
MODEL 6
REMARK VINA RESULT:      -2.8      3.877      6.036
REMARK  Name = 75537104
REMARK  3 active torsions:
REMARK  status: ('A' for Active; 'I' for Inactive)
REMARK    1  A    between atoms: N_3  and  C_12
REMARK    2  A    between atoms: N_4  and  C_13
REMARK    3  A    between atoms: C_12  and  C_14
REMARK                            x       y       z     vdW  Elec       q    Type
REMARK                         _______ _______ _______ _____ _____    ______ ____
ROOT
ATOM      1  O   UNL     1      -2.050  -3.367  23.800  0.00  0.00    -0.252 OA
ATOM      2  N   UNL     1      -2.812  -1.362  24.757  0.00  0.00    -0.278 N 
ATOM      3  N   UNL     1      -3.983   1.190  24.920  0.00  0.00    -0.293 NA
ATOM      4  N   UNL     1      -0.790  -2.129  25.364  0.00  0.00    -0.287 N 
ATOM      6  C   UNL     1      -2.377  -0.454  25.798  0.00  0.00    +0.109 C 
ATOM      7  C   UNL     1      -2.588   0.996  25.362  0.00  0.00    +0.109 C 
ATOM      8  C   UNL     1      -0.920  -0.847  26.035  0.00  0.00    +0.132 C 
ATOM      9  C   UNL     1      -4.111  -1.169  24.147  0.00  0.00    +0.125 C 
ATOM     10  C   UNL     1      -4.303   0.306  23.781  0.00  0.00    +0.104 C 
ATOM     11  C   UNL     1      -1.906  -2.410  24.549  0.00  0.00    +0.305 C 
ATOM     13  C   UNL     1       0.422  -2.914  25.437  0.00  0.00    +0.133 C 
ENDROOT
BRANCH   3  12
ATOM     12  C   UNL     1      -4.213   2.589  24.558  0.00  0.00    +0.140 C 
BRANCH  12  14
ATOM      5  N   UNL     1      -1.888   2.914  23.920  0.00  0.00    -0.259 NA
ATOM     14  C   UNL     1      -2.944   3.397  24.611  0.00  0.00    +0.055 A 
ATOM     15  C   UNL     1      -2.918   4.571  25.348  0.00  0.00    +0.024 A 
ATOM     16  C   UNL     1      -1.731   5.294  25.377  0.00  0.00    +0.003 A 
ATOM     17  C   UNL     1      -0.752   3.645  23.971  0.00  0.00    +0.111 A 
ATOM     18  C   UNL     1      -0.622   4.830  24.677  0.00  0.00    +0.020 A 
ENDBRANCH  12  14
ENDBRANCH   3  12
TORSDOF 2
ENDMDL
MODEL 7
REMARK VINA RESULT:      -2.6      3.268      6.181
REMARK  Name = 75537104
REMARK  3 active torsions:
REMARK  status: ('A' for Active; 'I' for Inactive)
REMARK    1  A    between atoms: N_3  and  C_12
REMARK    2  A    between atoms: N_4  and  C_13
REMARK    3  A    between atoms: C_12  and  C_14
REMARK                            x       y       z     vdW  Elec       q    Type
REMARK                         _______ _______ _______ _____ _____    ______ ____
ROOT
ATOM      1  O   UNL     1      -0.652  -2.891  25.198  0.00  0.00    -0.252 OA
ATOM      2  N   UNL     1      -1.132  -0.832  24.175  0.00  0.00    -0.278 N 
ATOM      3  N   UNL     1      -1.085   1.941  23.708  0.00  0.00    -0.293 NA
ATOM      4  N   UNL     1      -2.823  -2.270  24.516  0.00  0.00    -0.287 N 
ATOM      6  C   UNL     1      -2.273  -0.206  23.541  0.00  0.00    +0.109 C 
ATOM      7  C   UNL     1      -2.373   1.262  23.952  0.00  0.00    +0.109 C 
ATOM      8  C   UNL     1      -3.452  -1.076  23.977  0.00  0.00    +0.132 C 
ATOM      9  C   UNL     1       0.156  -0.173  24.124  0.00  0.00    +0.125 C 
ATOM     10  C   UNL     1       0.000   1.308  24.485  0.00  0.00    +0.104 C 
ATOM     11  C   UNL     1      -1.434  -2.099  24.689  0.00  0.00    +0.305 C 
ATOM     13  C   UNL     1      -3.594  -3.414  24.948  0.00  0.00    +0.133 C 
ENDROOT
BRANCH   3  12
ATOM     12  C   UNL     1      -1.187   3.362  24.042  0.00  0.00    +0.140 C 
BRANCH  12  14
ATOM      5  N   UNL     1      -3.602   3.650  24.062  0.00  0.00    -0.259 NA
ATOM     14  C   UNL     1      -2.459   3.674  24.783  0.00  0.00    +0.055 A 
ATOM     15  C   UNL     1      -2.401   3.964  26.137  0.00  0.00    +0.024 A 
ATOM     16  C   UNL     1      -3.594   4.247  26.793  0.00  0.00    +0.003 A 
ATOM     17  C   UNL     1      -4.741   3.931  24.734  0.00  0.00    +0.111 A 
ATOM     18  C   UNL     1      -4.792   4.232  26.085  0.00  0.00    +0.020 A 
ENDBRANCH  12  14
ENDBRANCH   3  12
TORSDOF 2
ENDMDL
MODEL 8
REMARK VINA RESULT:      -2.5     16.498     18.339
REMARK  Name = 75537104
REMARK  3 active torsions:
REMARK  status: ('A' for Active; 'I' for Inactive)
REMARK    1  A    between atoms: N_3  and  C_12
REMARK    2  A    between atoms: N_4  and  C_13
REMARK    3  A    between atoms: C_12  and  C_14
REMARK                            x       y       z     vdW  Elec       q    Type
REMARK                         _______ _______ _______ _____ _____    ______ ____
ROOT
ATOM      1  O   UNL     1      -0.699  -9.622  12.345  0.00  0.00    -0.252 OA
ATOM      2  N   UNL     1      -2.923 -10.143  11.800  0.00  0.00    -0.278 N 
ATOM      3  N   UNL     1      -5.474  -9.878  10.644  0.00  0.00    -0.293 NA
ATOM      4  N   UNL     1      -2.259 -10.414  13.928  0.00  0.00    -0.287 N 
ATOM      6  C   UNL     1      -4.061 -10.747  12.461  0.00  0.00    +0.109 C 
ATOM      7  C   UNL     1      -5.343  -9.994  12.110  0.00  0.00    +0.109 C 
ATOM      8  C   UNL     1      -3.681 -10.713  13.940  0.00  0.00    +0.132 C 
ATOM      9  C   UNL     1      -3.002  -9.848  10.385  0.00  0.00    +0.125 C 
ATOM     10  C   UNL     1      -4.327  -9.147  10.069  0.00  0.00    +0.104 C 
ATOM     11  C   UNL     1      -1.818 -10.015  12.650  0.00  0.00    +0.305 C 
ATOM     13  C   UNL     1      -1.468 -10.397  15.138  0.00  0.00    +0.133 C 
ENDROOT
BRANCH   3  12
ATOM     12  C   UNL     1      -6.729  -9.212  10.295  0.00  0.00    +0.140 C 
BRANCH  12  14
ATOM      5  N   UNL     1      -7.791  -9.444  12.471  0.00  0.00    -0.259 NA
ATOM     14  C   UNL     1      -7.874  -9.692  11.145  0.00  0.00    +0.055 A 
ATOM     15  C   UNL     1      -8.935 -10.350  10.543  0.00  0.00    +0.024 A 
ATOM     16  C   UNL     1      -9.978 -10.781  11.356  0.00  0.00    +0.003 A 
ATOM     17  C   UNL     1      -8.823  -9.878  13.229  0.00  0.00    +0.111 A 
ATOM     18  C   UNL     1      -9.929 -10.544  12.726  0.00  0.00    +0.020 A 
ENDBRANCH  12  14
ENDBRANCH   3  12
TORSDOF 2
ENDMDL
MODEL 9
REMARK VINA RESULT:      -2.5     15.747     17.583
REMARK  Name = 75537104
REMARK  3 active torsions:
REMARK  status: ('A' for Active; 'I' for Inactive)
REMARK    1  A    between atoms: N_3  and  C_12
REMARK    2  A    between atoms: N_4  and  C_13
REMARK    3  A    between atoms: C_12  and  C_14
REMARK                            x       y       z     vdW  Elec       q    Type
REMARK                         _______ _______ _______ _____ _____    ______ ____
ROOT
ATOM      1  O   UNL     1      11.038  -8.191  32.831  0.00  0.00    -0.252 OA
ATOM      2  N   UNL     1      12.546  -7.967  31.043  0.00  0.00    -0.278 N 
ATOM      3  N   UNL     1      14.816  -8.433  29.450  0.00  0.00    -0.293 NA
ATOM      4  N   UNL     1      11.728  -6.099  31.985  0.00  0.00    -0.287 N 
ATOM      6  C   UNL     1      13.061  -6.892  30.222  0.00  0.00    +0.109 C 
ATOM      7  C   UNL     1      14.558  -7.079  29.979  0.00  0.00    +0.109 C 
ATOM      8  C   UNL     1      12.691  -5.631  31.003  0.00  0.00    +0.132 C 
ATOM      9  C   UNL     1      12.866  -9.337  30.699  0.00  0.00    +0.125 C 
ATOM     10  C   UNL     1      14.363  -9.466  30.405  0.00  0.00    +0.104 C 
ATOM     11  C   UNL     1      11.685  -7.507  32.048  0.00  0.00    +0.305 C 
ATOM     13  C   UNL     1      11.034  -5.192  32.871  0.00  0.00    +0.133 C 
ENDROOT
BRANCH   3  12
ATOM     12  C   UNL     1      16.240  -8.602  29.156  0.00  0.00    +0.140 C 
BRANCH  12  14
ATOM      5  N   UNL     1      16.878  -9.691  27.077  0.00  0.00    -0.259 NA
ATOM     14  C   UNL     1      16.518  -8.536  27.679  0.00  0.00    +0.055 A 
ATOM     15  C   UNL     1      16.396  -7.323  27.020  0.00  0.00    +0.024 A 
ATOM     16  C   UNL     1      16.660  -7.295  25.655  0.00  0.00    +0.003 A 
ATOM     17  C   UNL     1      17.127  -9.625  25.750  0.00  0.00    +0.111 A 
ATOM     18  C   UNL     1      17.033  -8.464  24.999  0.00  0.00    +0.020 A 
ENDBRANCH  12  14
ENDBRANCH   3  12
TORSDOF 2
ENDMDL
MODEL 10
REMARK VINA RESULT:      -2.1      1.939      3.153
REMARK  Name = 75537104
REMARK  3 active torsions:
REMARK  status: ('A' for Active; 'I' for Inactive)
REMARK    1  A    between atoms: N_3  and  C_12
REMARK    2  A    between atoms: N_4  and  C_13
REMARK    3  A    between atoms: C_12  and  C_14
REMARK                            x       y       z     vdW  Elec       q    Type
REMARK                         _______ _______ _______ _____ _____    ______ ____
ROOT
ATOM      1  O   UNL     1      -5.923   4.252  25.818  0.00  0.00    -0.252 OA
ATOM      2  N   UNL     1      -3.806   3.248  25.664  0.00  0.00    -0.278 N 
ATOM      3  N   UNL     1      -1.053   2.993  25.145  0.00  0.00    -0.293 NA
ATOM      4  N   UNL     1      -5.587   2.091  24.933  0.00  0.00    -0.287 N 
ATOM      6  C   UNL     1      -3.274   1.948  25.313  0.00  0.00    +0.109 C 
ATOM      7  C   UNL     1      -2.012   2.100  24.465  0.00  0.00    +0.109 C 
ATOM      8  C   UNL     1      -4.442   1.258  24.609  0.00  0.00    +0.132 C 
ATOM      9  C   UNL     1      -2.915   4.255  26.203  0.00  0.00    +0.125 C 
ATOM     10  C   UNL     1      -1.640   4.331  25.359  0.00  0.00    +0.104 C 
ATOM     11  C   UNL     1      -5.197   3.315  25.516  0.00  0.00    +0.305 C 
ATOM     13  C   UNL     1      -6.932   1.730  24.547  0.00  0.00    +0.133 C 
ENDROOT
BRANCH   3  12
ATOM     12  C   UNL     1       0.183   3.097  24.370  0.00  0.00    +0.140 C 
BRANCH  12  14
ATOM      5  N   UNL     1       1.920   1.692  23.407  0.00  0.00    -0.259 NA
ATOM     14  C   UNL     1       0.660   1.752  23.891  0.00  0.00    +0.055 A 
ATOM     15  C   UNL     1      -0.195   0.664  23.966  0.00  0.00    +0.024 A 
ATOM     16  C   UNL     1       0.276  -0.565  23.516  0.00  0.00    +0.003 A 
ATOM     17  C   UNL     1       2.343   0.482  22.978  0.00  0.00    +0.111 A 
ATOM     18  C   UNL     1       1.568  -0.667  23.011  0.00  0.00    +0.020 A 
ENDBRANCH  12  14
ENDBRANCH   3  12
TORSDOF 2
ENDMDL
