MODEL 1
REMARK VINA RESULT:       2.3      0.000      0.000
REMARK  Name = 40780412
REMARK  9 active torsions:
REMARK  status: ('A' for Active; 'I' for Inactive)
REMARK    1  A    between atoms: O_2  and  C_24
REMARK    2  A    between atoms: O_2  and  C_26
REMARK    3  A    between atoms: N_3  and  C_9
REMARK    4  A    between atoms: N_4  and  C_17
REMARK    5  A    between atoms: N_6  and  C_21
REMARK    6  A    between atoms: C_7  and  C_10
REMARK    7  A    between atoms: C_13  and  C_15
REMARK    8  A    between atoms: C_14  and  C_16
REMARK    9  A    between atoms: C_21  and  C_25
REMARK                            x       y       z     vdW  Elec       q    Type
REMARK                         _______ _______ _______ _____ _____    ______ ____
ROOT
ATOM      4  N   UNL     1       0.978  -0.181  23.724  0.00  0.00    -0.236 N 
ATOM      5  N   UNL     1       0.331  -1.351  23.860  0.00  0.00    -0.171 NA
ATOM     10  C   UNL     1      -1.085   0.422  24.121  0.00  0.00    +0.003 A 
ATOM     13  C   UNL     1       0.174   0.912  23.872  0.00  0.00    +0.046 A 
ATOM     14  C   UNL     1      -0.928  -0.977  24.102  0.00  0.00    +0.064 A 
ATOM     15  C   UNL     1       0.667   2.300  23.766  0.00  0.00    +0.066 C 
ATOM     16  C   UNL     1      -1.961  -2.006  24.313  0.00  0.00    +0.068 C 
ENDROOT
BRANCH   4  17
ATOM     17  C   UNL     1       2.347  -0.172  23.456  0.00  0.00    +0.066 A 
ATOM     19  C   UNL     1       3.141  -1.247  23.855  0.00  0.00    +0.031 A 
ATOM     20  C   UNL     1       2.921   0.910  22.790  0.00  0.00    +0.031 A 
ATOM     22  C   UNL     1       4.510  -1.239  23.589  0.00  0.00    +0.048 A 
ATOM     23  C   UNL     1       4.290   0.918  22.523  0.00  0.00    +0.048 A 
ATOM     24  C   UNL     1       5.085  -0.156  22.923  0.00  0.00    +0.120 A 
BRANCH  24   2
ATOM      2  O   UNL     1       6.421  -0.148  22.662  0.00  0.00    -0.495 OA
ATOM     26  C   UNL     1       7.301  -0.156  23.786  0.00  0.00    +0.277 C 
ENDBRANCH  24   2
ENDBRANCH   4  17
BRANCH  10   7
ATOM      7  C   UNL     1      -2.351   1.210  24.362  0.00  0.00    +0.047 C 
ATOM      8  C   UNL     1      -2.122   2.492  25.187  0.00  0.00    +0.039 C 
ATOM      9  C   UNL     1      -3.124   3.529  24.653  0.00  0.00    +0.098 C 
ATOM     11  C   UNL     1      -3.005   1.744  23.121  0.00  0.00    -0.021 C 
ATOM     12  C   UNL     1      -3.429   3.001  23.286  0.00  0.00    -0.009 C 
BRANCH   9   3
ATOM      1  O   UNL     1      -5.036   1.414  25.179  0.00  0.00    -0.253 OA
ATOM      3  N   UNL     1      -4.325   3.606  25.476  0.00  0.00    -0.293 N 
ATOM      6  N   UNL     1      -6.259   2.877  26.502  0.00  0.00    -0.300 N 
ATOM     18  C   UNL     1      -5.194   2.529  25.674  0.00  0.00    +0.300 C 
ATOM     27  H   UNL     1      -4.566   4.498  25.898  0.00  0.00    +0.151 HD
ATOM     28  H   UNL     1      -6.299   3.821  26.874  0.00  0.00    +0.150 HD
BRANCH   6  21
ATOM     21  C   UNL     1      -7.301   1.947  26.867  0.00  0.00    +0.102 C 
ATOM     25  C   UNL     1      -6.843   1.001  27.958  0.00  0.00    +0.024 C 
ENDBRANCH   6  21
ENDBRANCH   9   3
ENDBRANCH  10   7
TORSDOF 5
ENDMDL
MODEL 2
REMARK VINA RESULT:       2.4      1.481      2.134
REMARK  Name = 40780412
REMARK  9 active torsions:
REMARK  status: ('A' for Active; 'I' for Inactive)
REMARK    1  A    between atoms: O_2  and  C_24
REMARK    2  A    between atoms: O_2  and  C_26
REMARK    3  A    between atoms: N_3  and  C_9
REMARK    4  A    between atoms: N_4  and  C_17
REMARK    5  A    between atoms: N_6  and  C_21
REMARK    6  A    between atoms: C_7  and  C_10
REMARK    7  A    between atoms: C_13  and  C_15
REMARK    8  A    between atoms: C_14  and  C_16
REMARK    9  A    between atoms: C_21  and  C_25
REMARK                            x       y       z     vdW  Elec       q    Type
REMARK                         _______ _______ _______ _____ _____    ______ ____
ROOT
ATOM      4  N   UNL     1       0.780  -0.584  23.887  0.00  0.00    -0.236 N 
ATOM      5  N   UNL     1       0.253  -1.807  23.701  0.00  0.00    -0.171 NA
ATOM     10  C   UNL     1      -1.296  -0.345  24.527  0.00  0.00    +0.003 A 
ATOM     13  C   UNL     1      -0.107   0.328  24.381  0.00  0.00    +0.046 A 
ATOM     14  C   UNL     1      -1.015  -1.655  24.093  0.00  0.00    +0.064 A 
ATOM     15  C   UNL     1       0.249   1.733  24.665  0.00  0.00    +0.066 C 
ATOM     16  C   UNL     1      -1.933  -2.805  24.036  0.00  0.00    +0.068 C 
ENDROOT
BRANCH   4  17
ATOM     17  C   UNL     1       2.120  -0.353  23.578  0.00  0.00    +0.066 A 
ATOM     19  C   UNL     1       3.087  -1.298  23.921  0.00  0.00    +0.031 A 
ATOM     20  C   UNL     1       2.493   0.823  22.926  0.00  0.00    +0.031 A 
ATOM     22  C   UNL     1       4.428  -1.066  23.613  0.00  0.00    +0.048 A 
ATOM     23  C   UNL     1       3.833   1.053  22.618  0.00  0.00    +0.048 A 
ATOM     24  C   UNL     1       4.801   0.109  22.962  0.00  0.00    +0.120 A 
BRANCH  24   2
ATOM      2  O   UNL     1       6.110   0.335  22.660  0.00  0.00    -0.495 OA
ATOM     26  C   UNL     1       7.056  -0.632  23.114  0.00  0.00    +0.277 C 
ENDBRANCH  24   2
ENDBRANCH   4  17
BRANCH  10   7
ATOM      7  C   UNL     1      -2.608   0.201  25.039  0.00  0.00    +0.047 C 
ATOM      8  C   UNL     1      -3.579   0.610  23.913  0.00  0.00    +0.039 C 
ATOM      9  C   UNL     1      -4.992   0.306  24.435  0.00  0.00    +0.098 C 
ATOM     11  C   UNL     1      -3.430  -0.776  25.828  0.00  0.00    -0.021 C 
ATOM     12  C   UNL     1      -4.725  -0.710  25.501  0.00  0.00    -0.009 C 
BRANCH   9   3
ATOM      1  O   UNL     1      -3.912   2.992  24.588  0.00  0.00    -0.253 OA
ATOM      3  N   UNL     1      -5.642   1.493  24.980  0.00  0.00    -0.293 N 
ATOM      6  N   UNL     1      -5.882   3.706  25.585  0.00  0.00    -0.300 N 
ATOM     18  C   UNL     1      -5.041   2.754  25.012  0.00  0.00    +0.300 C 
ATOM     27  H   UNL     1      -6.565   1.392  25.393  0.00  0.00    +0.151 HD
ATOM     28  H   UNL     1      -6.804   3.418  25.897  0.00  0.00    +0.150 HD
BRANCH   6  21
ATOM     21  C   UNL     1      -5.504   5.090  25.739  0.00  0.00    +0.102 C 
ATOM     25  C   UNL     1      -4.102   5.223  26.300  0.00  0.00    +0.024 C 
ENDBRANCH   6  21
ENDBRANCH   9   3
ENDBRANCH  10   7
TORSDOF 5
ENDMDL
MODEL 3
REMARK VINA RESULT:       3.3      2.074      9.028
REMARK  Name = 40780412
REMARK  9 active torsions:
REMARK  status: ('A' for Active; 'I' for Inactive)
REMARK    1  A    between atoms: O_2  and  C_24
REMARK    2  A    between atoms: O_2  and  C_26
REMARK    3  A    between atoms: N_3  and  C_9
REMARK    4  A    between atoms: N_4  and  C_17
REMARK    5  A    between atoms: N_6  and  C_21
REMARK    6  A    between atoms: C_7  and  C_10
REMARK    7  A    between atoms: C_13  and  C_15
REMARK    8  A    between atoms: C_14  and  C_16
REMARK    9  A    between atoms: C_21  and  C_25
REMARK                            x       y       z     vdW  Elec       q    Type
REMARK                         _______ _______ _______ _____ _____    ______ ____
ROOT
ATOM      4  N   UNL     1      -2.407   1.051  24.802  0.00  0.00    -0.236 N 
ATOM      5  N   UNL     1      -2.552  -0.285  24.804  0.00  0.00    -0.171 NA
ATOM     10  C   UNL     1      -0.394   0.322  24.365  0.00  0.00    +0.003 A 
ATOM     13  C   UNL     1      -1.133   1.466  24.543  0.00  0.00    +0.046 A 
ATOM     14  C   UNL     1      -1.319  -0.725  24.537  0.00  0.00    +0.064 A 
ATOM     15  C   UNL     1      -0.739   2.889  24.489  0.00  0.00    +0.066 C 
ATOM     16  C   UNL     1      -1.070  -2.175  24.454  0.00  0.00    +0.068 C 
ENDROOT
BRANCH   4  17
ATOM     17  C   UNL     1      -3.510   1.868  25.052  0.00  0.00    +0.066 A 
ATOM     19  C   UNL     1      -3.322   3.210  25.382  0.00  0.00    +0.031 A 
ATOM     20  C   UNL     1      -4.800   1.343  24.972  0.00  0.00    +0.031 A 
ATOM     22  C   UNL     1      -4.425   4.027  25.633  0.00  0.00    +0.048 A 
ATOM     23  C   UNL     1      -5.901   2.160  25.222  0.00  0.00    +0.048 A 
ATOM     24  C   UNL     1      -5.714   3.502  25.554  0.00  0.00    +0.120 A 
BRANCH  24   2
ATOM      2  O   UNL     1      -6.790   4.300  25.798  0.00  0.00    -0.495 OA
ATOM     26  C   UNL     1      -6.669   5.678  25.451  0.00  0.00    +0.277 C 
ENDBRANCH  24   2
ENDBRANCH   4  17
BRANCH  10   7
ATOM      7  C   UNL     1       1.081   0.215  24.053  0.00  0.00    +0.047 C 
ATOM      8  C   UNL     1       1.370  -0.485  22.710  0.00  0.00    +0.039 C 
ATOM      9  C   UNL     1       2.624   0.193  22.136  0.00  0.00    +0.098 C 
ATOM     11  C   UNL     1       1.784   1.530  23.883  0.00  0.00    -0.021 C 
ATOM     12  C   UNL     1       2.626   1.511  22.845  0.00  0.00    -0.009 C 
BRANCH   9   3
ATOM      1  O   UNL     1       4.971   1.093  23.582  0.00  0.00    -0.253 OA
ATOM      3  N   UNL     1       3.836  -0.568  22.419  0.00  0.00    -0.293 N 
ATOM      6  N   UNL     1       5.946  -0.988  23.253  0.00  0.00    -0.300 N 
ATOM     18  C   UNL     1       4.924  -0.049  23.127  0.00  0.00    +0.300 C 
ATOM     27  H   UNL     1       3.912  -1.511  22.049  0.00  0.00    +0.151 HD
ATOM     28  H   UNL     1       5.812  -1.911  22.853  0.00  0.00    +0.150 HD
BRANCH   6  21
ATOM     21  C   UNL     1       7.183  -0.708  23.941  0.00  0.00    +0.102 C 
ATOM     25  C   UNL     1       8.290  -0.350  22.970  0.00  0.00    +0.024 C 
ENDBRANCH   6  21
ENDBRANCH   9   3
ENDBRANCH  10   7
TORSDOF 5
ENDMDL
MODEL 4
REMARK VINA RESULT:       4.1      1.490      2.557
REMARK  Name = 40780412
REMARK  9 active torsions:
REMARK  status: ('A' for Active; 'I' for Inactive)
REMARK    1  A    between atoms: O_2  and  C_24
REMARK    2  A    between atoms: O_2  and  C_26
REMARK    3  A    between atoms: N_3  and  C_9
REMARK    4  A    between atoms: N_4  and  C_17
REMARK    5  A    between atoms: N_6  and  C_21
REMARK    6  A    between atoms: C_7  and  C_10
REMARK    7  A    between atoms: C_13  and  C_15
REMARK    8  A    between atoms: C_14  and  C_16
REMARK    9  A    between atoms: C_21  and  C_25
REMARK                            x       y       z     vdW  Elec       q    Type
REMARK                         _______ _______ _______ _____ _____    ______ ____
ROOT
ATOM      4  N   UNL     1       1.480   0.986  23.857  0.00  0.00    -0.236 N 
ATOM      5  N   UNL     1       1.276   2.313  23.927  0.00  0.00    -0.171 NA
ATOM     10  C   UNL     1      -0.623   1.146  24.427  0.00  0.00    +0.003 A 
ATOM     13  C   UNL     1       0.373   0.243  24.147  0.00  0.00    +0.046 A 
ATOM     14  C   UNL     1      -0.010   2.404  24.276  0.00  0.00    +0.064 A 
ATOM     15  C   UNL     1       0.362  -1.234  24.131  0.00  0.00    +0.066 C 
ATOM     16  C   UNL     1      -0.618   3.734  24.456  0.00  0.00    +0.068 C 
ENDROOT
BRANCH   4  17
ATOM     17  C   UNL     1       2.740   0.496  23.511  0.00  0.00    +0.066 A 
ATOM     19  C   UNL     1       3.111  -0.796  23.884  0.00  0.00    +0.031 A 
ATOM     20  C   UNL     1       3.629   1.298  22.795  0.00  0.00    +0.031 A 
ATOM     22  C   UNL     1       4.371  -1.286  23.540  0.00  0.00    +0.048 A 
ATOM     23  C   UNL     1       4.888   0.808  22.452  0.00  0.00    +0.048 A 
ATOM     24  C   UNL     1       5.260  -0.484  22.824  0.00  0.00    +0.120 A 
BRANCH  24   2
ATOM      2  O   UNL     1       6.490  -0.962  22.489  0.00  0.00    -0.495 OA
ATOM     26  C   UNL     1       7.615  -0.361  23.127  0.00  0.00    +0.277 C 
ENDBRANCH  24   2
ENDBRANCH   4  17
BRANCH  10   7
ATOM      7  C   UNL     1      -2.055   0.852  24.810  0.00  0.00    +0.047 C 
ATOM      8  C   UNL     1      -3.005   0.775  23.599  0.00  0.00    +0.039 C 
ATOM      9  C   UNL     1      -4.060  -0.288  23.950  0.00  0.00    +0.098 C 
ATOM     11  C   UNL     1      -2.268  -0.481  25.466  0.00  0.00    -0.021 C 
ATOM     12  C   UNL     1      -3.362  -1.093  25.001  0.00  0.00    -0.009 C 
BRANCH   9   3
ATOM      1  O   UNL     1      -4.360   2.285  25.255  0.00  0.00    -0.253 OA
ATOM      3  N   UNL     1      -5.289   0.309  24.462  0.00  0.00    -0.293 N 
ATOM      6  N   UNL     1      -6.635   1.885  25.473  0.00  0.00    -0.300 N 
ATOM     18  C   UNL     1      -5.339   1.561  25.081  0.00  0.00    +0.300 C 
ATOM     27  H   UNL     1      -6.148  -0.230  24.403  0.00  0.00    +0.151 HD
ATOM     28  H   UNL     1      -7.384   1.228  25.277  0.00  0.00    +0.150 HD
BRANCH   6  21
ATOM     21  C   UNL     1      -6.964   3.125  26.136  0.00  0.00    +0.102 C 
ATOM     25  C   UNL     1      -6.123   4.273  25.614  0.00  0.00    +0.024 C 
ENDBRANCH   6  21
ENDBRANCH   9   3
ENDBRANCH  10   7
TORSDOF 5
ENDMDL
MODEL 5
REMARK VINA RESULT:       6.2      1.281      2.074
REMARK  Name = 40780412
REMARK  9 active torsions:
REMARK  status: ('A' for Active; 'I' for Inactive)
REMARK    1  A    between atoms: O_2  and  C_24
REMARK    2  A    between atoms: O_2  and  C_26
REMARK    3  A    between atoms: N_3  and  C_9
REMARK    4  A    between atoms: N_4  and  C_17
REMARK    5  A    between atoms: N_6  and  C_21
REMARK    6  A    between atoms: C_7  and  C_10
REMARK    7  A    between atoms: C_13  and  C_15
REMARK    8  A    between atoms: C_14  and  C_16
REMARK    9  A    between atoms: C_21  and  C_25
REMARK                            x       y       z     vdW  Elec       q    Type
REMARK                         _______ _______ _______ _____ _____    ______ ____
ROOT
ATOM      4  N   UNL     1       1.524   1.233  23.648  0.00  0.00    -0.236 N 
ATOM      5  N   UNL     1       1.500   2.560  23.857  0.00  0.00    -0.171 NA
ATOM     10  C   UNL     1      -0.610   1.692  23.749  0.00  0.00    +0.003 A 
ATOM     13  C   UNL     1       0.285   0.665  23.575  0.00  0.00    +0.046 A 
ATOM     14  C   UNL     1       0.195   2.835  23.918  0.00  0.00    +0.064 A 
ATOM     15  C   UNL     1       0.068  -0.779  23.351  0.00  0.00    +0.066 C 
ATOM     16  C   UNL     1      -0.243   4.224  24.141  0.00  0.00    +0.068 C 
ENDROOT
BRANCH   4  17
ATOM     17  C   UNL     1       2.747   0.572  23.529  0.00  0.00    +0.066 A 
ATOM     19  C   UNL     1       2.824  -0.800  23.771  0.00  0.00    +0.031 A 
ATOM     20  C   UNL     1       3.892   1.282  23.169  0.00  0.00    +0.031 A 
ATOM     22  C   UNL     1       4.047  -1.461  23.654  0.00  0.00    +0.048 A 
ATOM     23  C   UNL     1       5.114   0.621  23.052  0.00  0.00    +0.048 A 
ATOM     24  C   UNL     1       5.192  -0.751  23.294  0.00  0.00    +0.120 A 
BRANCH  24   2
ATOM      2  O   UNL     1       6.385  -1.396  23.179  0.00  0.00    -0.495 OA
ATOM     26  C   UNL     1       7.526  -0.598  22.865  0.00  0.00    +0.277 C 
ENDBRANCH  24   2
ENDBRANCH   4  17
BRANCH  10   7
ATOM      7  C   UNL     1      -2.119   1.610  23.756  0.00  0.00    +0.047 C 
ATOM      8  C   UNL     1      -2.782   2.677  24.649  0.00  0.00    +0.039 C 
ATOM      9  C   UNL     1      -4.103   3.052  23.958  0.00  0.00    +0.098 C 
ATOM     11  C   UNL     1      -2.768   1.861  22.427  0.00  0.00    -0.021 C 
ATOM     12  C   UNL     1      -3.849   2.639  22.542  0.00  0.00    -0.009 C 
BRANCH   9   3
ATOM      1  O   UNL     1      -5.133   3.249  26.661  0.00  0.00    -0.253 OA
ATOM      3  N   UNL     1      -5.241   2.339  24.526  0.00  0.00    -0.293 N 
ATOM      6  N   UNL     1      -6.774   1.698  26.126  0.00  0.00    -0.300 N 
ATOM     18  C   UNL     1      -5.668   2.497  25.848  0.00  0.00    +0.300 C 
ATOM     27  H   UNL     1      -5.727   1.662  23.945  0.00  0.00    +0.151 HD
ATOM     28  H   UNL     1      -7.156   1.117  25.386  0.00  0.00    +0.150 HD
BRANCH   6  21
ATOM     21  C   UNL     1      -7.414   1.672  27.420  0.00  0.00    +0.102 C 
ATOM     25  C   UNL     1      -6.926   0.506  28.256  0.00  0.00    +0.024 C 
ENDBRANCH   6  21
ENDBRANCH   9   3
ENDBRANCH  10   7
TORSDOF 5
ENDMDL
