MODEL 1
REMARK VINA RESULT:      -4.5      0.000      0.000
REMARK  Name = 51137077
REMARK  3 active torsions:
REMARK  status: ('A' for Active; 'I' for Inactive)
REMARK    1  A    between atoms: N_3  and  C_9
REMARK    2  A    between atoms: C_5  and  C_10
REMARK    3  A    between atoms: C_9  and  C_11
REMARK                            x       y       z     vdW  Elec       q    Type
REMARK                         _______ _______ _______ _____ _____    ______ ____
ROOT
ATOM      3  N   UNL     1      -6.608  -9.545  10.363  0.00  0.00    -0.297 NA
ATOM      5  C   UNL     1      -5.911  -9.370  12.595  0.00  0.00    +0.060 C 
ATOM      6  C   UNL     1      -5.081 -10.451  11.881  0.00  0.00    +0.027 C 
ATOM      7  C   UNL     1      -7.114  -9.129  11.674  0.00  0.00    +0.095 C 
ATOM      8  C   UNL     1      -5.868 -10.781  10.619  0.00  0.00    +0.085 C 
ENDROOT
BRANCH   5  10
ATOM      1  S   UNL     1      -7.968  -9.940  14.375  0.00  0.00    -0.072 S 
ATOM      4  N   UNL     1      -5.470  -9.850  15.008  0.00  0.00    -0.244 NA
ATOM     10  C   UNL     1      -6.313  -9.711  14.012  0.00  0.00    +0.084 A 
ATOM     12  C   UNL     1      -7.554 -10.256  16.019  0.00  0.00    +0.039 A 
ATOM     13  C   UNL     1      -6.166 -10.162  16.167  0.00  0.00    +0.078 A 
ATOM     16  C   UNL     1      -8.396 -10.564  17.099  0.00  0.00    +0.017 A 
ATOM     17  C   UNL     1      -5.605 -10.386  17.441  0.00  0.00    +0.029 A 
ATOM     20  C   UNL     1      -7.813 -10.781  18.350  0.00  0.00    +0.001 A 
ATOM     21  C   UNL     1      -6.436 -10.694  18.522  0.00  0.00    +0.002 A 
ENDBRANCH   5  10
BRANCH   3   9
ATOM      9  C   UNL     1      -7.673  -9.729   9.389  0.00  0.00    +0.122 C 
BRANCH   9  11
ATOM      2  F   UNL     1     -10.453  -9.232   9.607  0.00  0.00    -0.205 F 
ATOM     11  C   UNL     1      -8.308  -8.420   8.998  0.00  0.00    +0.002 A 
ATOM     14  C   UNL     1      -9.685  -8.243   9.131  0.00  0.00    +0.128 A 
ATOM     15  C   UNL     1      -7.515  -7.385   8.502  0.00  0.00    +0.008 A 
ATOM     18  C   UNL     1     -10.270  -7.030   8.768  0.00  0.00    +0.038 A 
ATOM     19  C   UNL     1      -8.101  -6.171   8.140  0.00  0.00    +0.000 A 
ATOM     22  C   UNL     1      -9.477  -5.994   8.273  0.00  0.00    +0.003 A 
ENDBRANCH   9  11
ENDBRANCH   3   9
TORSDOF 3
ENDMDL
MODEL 2
REMARK VINA RESULT:      -4.2     15.952     18.068
REMARK  Name = 51137077
REMARK  3 active torsions:
REMARK  status: ('A' for Active; 'I' for Inactive)
REMARK    1  A    between atoms: N_3  and  C_9
REMARK    2  A    between atoms: C_5  and  C_10
REMARK    3  A    between atoms: C_9  and  C_11
REMARK                            x       y       z     vdW  Elec       q    Type
REMARK                         _______ _______ _______ _____ _____    ______ ____
ROOT
ATOM      3  N   UNL     1       0.771  -0.537  23.687  0.00  0.00    -0.297 NA
ATOM      5  C   UNL     1      -1.097  -0.119  25.042  0.00  0.00    +0.060 C 
ATOM      6  C   UNL     1      -1.270  -1.472  24.330  0.00  0.00    +0.027 C 
ATOM      7  C   UNL     1       0.031   0.583  24.274  0.00  0.00    +0.095 C 
ATOM      8  C   UNL     1      -0.259  -1.451  23.191  0.00  0.00    +0.085 C 
ENDROOT
BRANCH   5  10
ATOM      1  S   UNL     1      -3.876  -0.064  25.063  0.00  0.00    -0.072 S 
ATOM      4  N   UNL     1      -2.371   2.020  25.267  0.00  0.00    -0.244 NA
ATOM     10  C   UNL     1      -2.355   0.714  25.134  0.00  0.00    +0.084 A 
ATOM     12  C   UNL     1      -4.655   1.466  25.223  0.00  0.00    +0.039 A 
ATOM     13  C   UNL     1      -3.683   2.466  25.319  0.00  0.00    +0.078 A 
ATOM     16  C   UNL     1      -6.028   1.760  25.260  0.00  0.00    +0.017 A 
ATOM     17  C   UNL     1      -4.101   3.806  25.458  0.00  0.00    +0.029 A 
ATOM     20  C   UNL     1      -6.415   3.094  25.398  0.00  0.00    +0.001 A 
ATOM     21  C   UNL     1      -5.466   4.107  25.496  0.00  0.00    +0.002 A 
ENDBRANCH   5  10
BRANCH   3   9
ATOM      9  C   UNL     1       1.684  -0.110  22.637  0.00  0.00    +0.122 C 
BRANCH   9  11
ATOM      2  F   UNL     1       3.477   2.082  22.543  0.00  0.00    -0.205 F 
ATOM     11  C   UNL     1       3.122  -0.205  23.072  0.00  0.00    +0.002 A 
ATOM     14  C   UNL     1       3.952   0.914  22.999  0.00  0.00    +0.128 A 
ATOM     15  C   UNL     1       3.625  -1.416  23.549  0.00  0.00    +0.008 A 
ATOM     18  C   UNL     1       5.283   0.823  23.403  0.00  0.00    +0.038 A 
ATOM     19  C   UNL     1       4.957  -1.507  23.953  0.00  0.00    +0.000 A 
ATOM     22  C   UNL     1       5.786  -0.387  23.881  0.00  0.00    +0.003 A 
ENDBRANCH   9  11
ENDBRANCH   3   9
TORSDOF 3
ENDMDL
MODEL 3
REMARK VINA RESULT:      -2.2     14.657     17.295
REMARK  Name = 51137077
REMARK  3 active torsions:
REMARK  status: ('A' for Active; 'I' for Inactive)
REMARK    1  A    between atoms: N_3  and  C_9
REMARK    2  A    between atoms: C_5  and  C_10
REMARK    3  A    between atoms: C_9  and  C_11
REMARK                            x       y       z     vdW  Elec       q    Type
REMARK                         _______ _______ _______ _____ _____    ______ ____
ROOT
ATOM      3  N   UNL     1      -3.228   1.735  24.599  0.00  0.00    -0.297 NA
ATOM      5  C   UNL     1      -0.997   2.118  23.986  0.00  0.00    +0.060 C 
ATOM      6  C   UNL     1      -1.897   2.214  22.742  0.00  0.00    +0.027 C 
ATOM      7  C   UNL     1      -1.867   1.423  25.043  0.00  0.00    +0.095 C 
ATOM      8  C   UNL     1      -3.205   1.548  23.149  0.00  0.00    +0.085 C 
ENDROOT
BRANCH   5  10
ATOM      1  S   UNL     1       0.391  -0.285  23.840  0.00  0.00    -0.072 S 
ATOM      4  N   UNL     1       1.454   2.041  23.504  0.00  0.00    -0.244 NA
ATOM     10  C   UNL     1       0.325   1.422  23.761  0.00  0.00    +0.084 A 
ATOM     12  C   UNL     1       2.081  -0.225  23.502  0.00  0.00    +0.039 A 
ATOM     13  C   UNL     1       2.471   1.109  23.353  0.00  0.00    +0.078 A 
ATOM     16  C   UNL     1       2.996  -1.283  23.378  0.00  0.00    +0.017 A 
ATOM     17  C   UNL     1       3.823   1.392  23.070  0.00  0.00    +0.029 A 
ATOM     20  C   UNL     1       4.329  -0.975  23.097  0.00  0.00    +0.001 A 
ATOM     21  C   UNL     1       4.741   0.345  22.945  0.00  0.00    +0.002 A 
ENDBRANCH   5  10
BRANCH   3   9
ATOM      9  C   UNL     1      -4.229   0.902  25.249  0.00  0.00    +0.122 C 
BRANCH   9  11
ATOM      2  F   UNL     1      -2.780  -0.846  26.945  0.00  0.00    -0.205 F 
ATOM     11  C   UNL     1      -4.026  -0.559  24.945  0.00  0.00    +0.002 A 
ATOM     14  C   UNL     1      -3.301  -1.364  25.823  0.00  0.00    +0.128 A 
ATOM     15  C   UNL     1      -4.565  -1.107  23.781  0.00  0.00    +0.008 A 
ATOM     18  C   UNL     1      -3.115  -2.716  25.539  0.00  0.00    +0.038 A 
ATOM     19  C   UNL     1      -4.379  -2.460  23.496  0.00  0.00    +0.000 A 
ATOM     22  C   UNL     1      -3.655  -3.264  24.375  0.00  0.00    +0.003 A 
ENDBRANCH   9  11
ENDBRANCH   3   9
TORSDOF 3
ENDMDL
MODEL 4
REMARK VINA RESULT:      -1.7     15.539     17.362
REMARK  Name = 51137077
REMARK  3 active torsions:
REMARK  status: ('A' for Active; 'I' for Inactive)
REMARK    1  A    between atoms: N_3  and  C_9
REMARK    2  A    between atoms: C_5  and  C_10
REMARK    3  A    between atoms: C_9  and  C_11
REMARK                            x       y       z     vdW  Elec       q    Type
REMARK                         _______ _______ _______ _____ _____    ______ ____
ROOT
ATOM      3  N   UNL     1      -3.236  -0.932  24.567  0.00  0.00    -0.297 NA
ATOM      5  C   UNL     1      -0.941  -1.413  24.597  0.00  0.00    +0.060 C 
ATOM      6  C   UNL     1      -1.383  -0.927  25.988  0.00  0.00    +0.027 C 
ATOM      7  C   UNL     1      -2.087  -1.007  23.661  0.00  0.00    +0.095 C 
ATOM      8  C   UNL     1      -2.730  -0.254  25.761  0.00  0.00    +0.085 C 
ENDROOT
BRANCH   5  10
ATOM      1  S   UNL     1       0.496   0.653  23.417  0.00  0.00    -0.072 S 
ATOM      4  N   UNL     1       1.532  -1.552  24.262  0.00  0.00    -0.244 NA
ATOM     10  C   UNL     1       0.404  -0.893  24.141  0.00  0.00    +0.084 A 
ATOM     12  C   UNL     1       2.199   0.454  23.233  0.00  0.00    +0.039 A 
ATOM     13  C   UNL     1       2.572  -0.793  23.745  0.00  0.00    +0.078 A 
ATOM     16  C   UNL     1       3.138   1.337  22.676  0.00  0.00    +0.017 A 
ATOM     17  C   UNL     1       3.931  -1.166  23.697  0.00  0.00    +0.029 A 
ATOM     20  C   UNL     1       4.477   0.943  22.640  0.00  0.00    +0.001 A 
ATOM     21  C   UNL     1       4.872  -0.292  23.144  0.00  0.00    +0.002 A 
ENDBRANCH   5  10
BRANCH   3   9
ATOM      9  C   UNL     1      -4.368  -0.236  23.973  0.00  0.00    +0.122 C 
BRANCH   9  11
ATOM      2  F   UNL     1      -2.851   1.878  22.850  0.00  0.00    -0.205 F 
ATOM     11  C   UNL     1      -4.463   1.189  24.450  0.00  0.00    +0.002 A 
ATOM     14  C   UNL     1      -3.687   2.182  23.854  0.00  0.00    +0.128 A 
ATOM     15  C   UNL     1      -5.331   1.515  25.493  0.00  0.00    +0.008 A 
ATOM     18  C   UNL     1      -3.778   3.501  24.298  0.00  0.00    +0.038 A 
ATOM     19  C   UNL     1      -5.423   2.834  25.938  0.00  0.00    +0.000 A 
ATOM     22  C   UNL     1      -4.647   3.826  25.340  0.00  0.00    +0.003 A 
ENDBRANCH   9  11
ENDBRANCH   3   9
TORSDOF 3
ENDMDL
MODEL 5
REMARK VINA RESULT:      -1.6     15.224     17.802
REMARK  Name = 51137077
REMARK  3 active torsions:
REMARK  status: ('A' for Active; 'I' for Inactive)
REMARK    1  A    between atoms: N_3  and  C_9
REMARK    2  A    between atoms: C_5  and  C_10
REMARK    3  A    between atoms: C_9  and  C_11
REMARK                            x       y       z     vdW  Elec       q    Type
REMARK                         _______ _______ _______ _____ _____    ______ ____
ROOT
ATOM      3  N   UNL     1      -0.363   3.550  25.323  0.00  0.00    -0.297 NA
ATOM      5  C   UNL     1      -0.309   1.207  25.237  0.00  0.00    +0.060 C 
ATOM      6  C   UNL     1       0.479   1.783  24.048  0.00  0.00    +0.027 C 
ATOM      7  C   UNL     1      -1.136   2.387  25.765  0.00  0.00    +0.095 C 
ATOM      8  C   UNL     1       0.036   3.238  23.950  0.00  0.00    +0.085 C 
ENDROOT
BRANCH   5  10
ATOM      1  S   UNL     1      -0.441  -1.559  24.994  0.00  0.00    -0.072 S 
ATOM      4  N   UNL     1      -2.416   0.043  24.565  0.00  0.00    -0.244 NA
ATOM     10  C   UNL     1      -1.151  -0.005  24.913  0.00  0.00    +0.084 A 
ATOM     12  C   UNL     1      -1.944  -2.260  24.523  0.00  0.00    +0.039 A 
ATOM     13  C   UNL     1      -2.885  -1.242  24.338  0.00  0.00    +0.078 A 
ATOM     16  C   UNL     1      -2.267  -3.613  24.331  0.00  0.00    +0.017 A 
ATOM     17  C   UNL     1      -4.194  -1.594  23.947  0.00  0.00    +0.029 A 
ATOM     20  C   UNL     1      -3.571  -3.933  23.945  0.00  0.00    +0.001 A 
ATOM     21  C   UNL     1      -4.524  -2.938  23.755  0.00  0.00    +0.002 A 
ENDBRANCH   5  10
BRANCH   3   9
ATOM      9  C   UNL     1      -1.122   4.788  25.411  0.00  0.00    +0.122 C 
BRANCH   9  11
ATOM      2  F   UNL     1      -2.759   4.192  27.646  0.00  0.00    -0.205 F 
ATOM     11  C   UNL     1      -2.605   4.546  25.304  0.00  0.00    +0.002 A 
ATOM     14  C   UNL     1      -3.352   4.256  26.445  0.00  0.00    +0.128 A 
ATOM     15  C   UNL     1      -3.230   4.611  24.059  0.00  0.00    +0.008 A 
ATOM     18  C   UNL     1      -4.724   4.033  26.343  0.00  0.00    +0.038 A 
ATOM     19  C   UNL     1      -4.604   4.388  23.956  0.00  0.00    +0.000 A 
ATOM     22  C   UNL     1      -5.350   4.099  25.098  0.00  0.00    +0.003 A 
ENDBRANCH   9  11
ENDBRANCH   3   9
TORSDOF 3
ENDMDL
MODEL 6
REMARK VINA RESULT:      -1.6     16.139     17.924
REMARK  Name = 51137077
REMARK  3 active torsions:
REMARK  status: ('A' for Active; 'I' for Inactive)
REMARK    1  A    between atoms: N_3  and  C_9
REMARK    2  A    between atoms: C_5  and  C_10
REMARK    3  A    between atoms: C_9  and  C_11
REMARK                            x       y       z     vdW  Elec       q    Type
REMARK                         _______ _______ _______ _____ _____    ______ ____
ROOT
ATOM      3  N   UNL     1      -2.901  -0.147  24.635  0.00  0.00    -0.297 NA
ATOM      5  C   UNL     1      -0.892  -0.946  23.727  0.00  0.00    +0.060 C 
ATOM      6  C   UNL     1      -1.253  -1.766  24.977  0.00  0.00    +0.027 C 
ATOM      7  C   UNL     1      -1.776   0.305  23.813  0.00  0.00    +0.095 C 
ATOM      8  C   UNL     1      -2.291  -0.928  25.712  0.00  0.00    +0.085 C 
ENDROOT
BRANCH   5  10
ATOM      1  S   UNL     1       1.036   0.929  23.025  0.00  0.00    -0.072 S 
ATOM      4  N   UNL     1       1.551  -1.456  23.861  0.00  0.00    -0.244 NA
ATOM     10  C   UNL     1       0.577  -0.621  23.583  0.00  0.00    +0.084 A 
ATOM     12  C   UNL     1       2.694   0.473  23.155  0.00  0.00    +0.039 A 
ATOM     13  C   UNL     1       2.772  -0.843  23.620  0.00  0.00    +0.078 A 
ATOM     16  C   UNL     1       3.844   1.226  22.865  0.00  0.00    +0.017 A 
ATOM     17  C   UNL     1       4.045  -1.424  23.801  0.00  0.00    +0.029 A 
ATOM     20  C   UNL     1       5.091   0.628  23.053  0.00  0.00    +0.001 A 
ATOM     21  C   UNL     1       5.194  -0.680  23.515  0.00  0.00    +0.002 A 
ENDBRANCH   5  10
BRANCH   3   9
ATOM      9  C   UNL     1      -3.702   0.959  25.138  0.00  0.00    +0.122 C 
BRANCH   9  11
ATOM      2  F   UNL     1      -4.732   3.374  24.074  0.00  0.00    -0.205 F 
ATOM     11  C   UNL     1      -2.932   2.253  25.141  0.00  0.00    +0.002 A 
ATOM     14  C   UNL     1      -3.499   3.406  24.600  0.00  0.00    +0.128 A 
ATOM     15  C   UNL     1      -1.649   2.296  25.687  0.00  0.00    +0.008 A 
ATOM     18  C   UNL     1      -2.784   4.604  24.604  0.00  0.00    +0.038 A 
ATOM     19  C   UNL     1      -0.934   3.494  25.691  0.00  0.00    +0.000 A 
ATOM     22  C   UNL     1      -1.501   4.647  25.151  0.00  0.00    +0.003 A 
ENDBRANCH   9  11
ENDBRANCH   3   9
TORSDOF 3
ENDMDL
MODEL 7
REMARK VINA RESULT:      -1.5     15.718     17.357
REMARK  Name = 51137077
REMARK  3 active torsions:
REMARK  status: ('A' for Active; 'I' for Inactive)
REMARK    1  A    between atoms: N_3  and  C_9
REMARK    2  A    between atoms: C_5  and  C_10
REMARK    3  A    between atoms: C_9  and  C_11
REMARK                            x       y       z     vdW  Elec       q    Type
REMARK                         _______ _______ _______ _____ _____    ______ ____
ROOT
ATOM      3  N   UNL     1      -3.892  -0.869  24.806  0.00  0.00    -0.297 NA
ATOM      5  C   UNL     1      -1.607  -1.330  24.555  0.00  0.00    +0.060 C 
ATOM      6  C   UNL     1      -1.935  -1.153  26.048  0.00  0.00    +0.027 C 
ATOM      7  C   UNL     1      -2.819  -0.743  23.818  0.00  0.00    +0.095 C 
ATOM      8  C   UNL     1      -3.289  -0.456  26.074  0.00  0.00    +0.085 C 
ENDROOT
BRANCH   5  10
ATOM      1  S   UNL     1      -0.191   0.980  23.935  0.00  0.00    -0.072 S 
ATOM      4  N   UNL     1       0.792  -1.403  23.859  0.00  0.00    -0.244 NA
ATOM     10  C   UNL     1      -0.297  -0.718  24.116  0.00  0.00    +0.084 A 
ATOM     12  C   UNL     1       1.460   0.817  23.465  0.00  0.00    +0.039 A 
ATOM     13  C   UNL     1       1.809  -0.538  23.483  0.00  0.00    +0.078 A 
ATOM     16  C   UNL     1       2.380   1.815  23.105  0.00  0.00    +0.017 A 
ATOM     17  C   UNL     1       3.124  -0.903  23.129  0.00  0.00    +0.029 A 
ATOM     20  C   UNL     1       3.676   1.426  22.760  0.00  0.00    +0.001 A 
ATOM     21  C   UNL     1       4.046   0.085  22.770  0.00  0.00    +0.002 A 
ENDBRANCH   5  10
BRANCH   3   9
ATOM      9  C   UNL     1      -5.060  -0.070  24.463  0.00  0.00    +0.122 C 
BRANCH   9  11
ATOM      2  F   UNL     1      -6.475   1.497  26.353  0.00  0.00    -0.205 F 
ATOM     11  C   UNL     1      -4.811   1.402  24.662  0.00  0.00    +0.002 A 
ATOM     14  C   UNL     1      -5.545   2.114  25.610  0.00  0.00    +0.128 A 
ATOM     15  C   UNL     1      -3.845   2.052  23.895  0.00  0.00    +0.008 A 
ATOM     18  C   UNL     1      -5.312   3.477  25.792  0.00  0.00    +0.038 A 
ATOM     19  C   UNL     1      -3.612   3.416  24.077  0.00  0.00    +0.000 A 
ATOM     22  C   UNL     1      -4.345   4.127  25.026  0.00  0.00    +0.003 A 
ENDBRANCH   9  11
ENDBRANCH   3   9
TORSDOF 3
ENDMDL
MODEL 8
REMARK VINA RESULT:      -1.5     16.798     18.322
REMARK  Name = 51137077
REMARK  3 active torsions:
REMARK  status: ('A' for Active; 'I' for Inactive)
REMARK    1  A    between atoms: N_3  and  C_9
REMARK    2  A    between atoms: C_5  and  C_10
REMARK    3  A    between atoms: C_9  and  C_11
REMARK                            x       y       z     vdW  Elec       q    Type
REMARK                         _______ _______ _______ _____ _____    ______ ____
ROOT
ATOM      3  N   UNL     1       1.078   1.069  23.140  0.00  0.00    -0.297 NA
ATOM      5  C   UNL     1      -0.794   2.384  23.658  0.00  0.00    +0.060 C 
ATOM      6  C   UNL     1       0.269   2.546  24.759  0.00  0.00    +0.027 C 
ATOM      7  C   UNL     1      -0.363   1.132  22.883  0.00  0.00    +0.095 C 
ATOM      8  C   UNL     1       1.220   1.372  24.565  0.00  0.00    +0.085 C 
ENDROOT
BRANCH   5  10
ATOM      1  S   UNL     1      -3.045   0.810  24.087  0.00  0.00    -0.072 S 
ATOM      4  N   UNL     1      -2.885   3.319  24.658  0.00  0.00    -0.244 NA
ATOM     10  C   UNL     1      -2.218   2.305  24.159  0.00  0.00    +0.084 A 
ATOM     12  C   UNL     1      -4.435   1.556  24.782  0.00  0.00    +0.039 A 
ATOM     13  C   UNL     1      -4.159   2.906  25.019  0.00  0.00    +0.078 A 
ATOM     16  C   UNL     1      -5.681   0.988  25.094  0.00  0.00    +0.017 A 
ATOM     17  C   UNL     1      -5.166   3.713  25.589  0.00  0.00    +0.029 A 
ATOM     20  C   UNL     1      -6.660   1.809  25.657  0.00  0.00    +0.001 A 
ATOM     21  C   UNL     1      -6.408   3.155  25.902  0.00  0.00    +0.002 A 
ENDBRANCH   5  10
BRANCH   3   9
ATOM      9  C   UNL     1       1.650  -0.222  22.789  0.00  0.00    +0.122 C 
BRANCH   9  11
ATOM      2  F   UNL     1       3.460   1.936  22.479  0.00  0.00    -0.205 F 
ATOM     11  C   UNL     1       3.106  -0.310  23.161  0.00  0.00    +0.002 A 
ATOM     14  C   UNL     1       3.943   0.791  22.982  0.00  0.00    +0.128 A 
ATOM     15  C   UNL     1       3.618  -1.497  23.686  0.00  0.00    +0.008 A 
ATOM     18  C   UNL     1       5.292   0.706  23.328  0.00  0.00    +0.038 A 
ATOM     19  C   UNL     1       4.967  -1.582  24.032  0.00  0.00    +0.000 A 
ATOM     22  C   UNL     1       5.803  -0.480  23.853  0.00  0.00    +0.003 A 
ENDBRANCH   9  11
ENDBRANCH   3   9
TORSDOF 3
ENDMDL
MODEL 9
REMARK VINA RESULT:      -1.2     16.617     18.175
REMARK  Name = 51137077
REMARK  3 active torsions:
REMARK  status: ('A' for Active; 'I' for Inactive)
REMARK    1  A    between atoms: N_3  and  C_9
REMARK    2  A    between atoms: C_5  and  C_10
REMARK    3  A    between atoms: C_9  and  C_11
REMARK                            x       y       z     vdW  Elec       q    Type
REMARK                         _______ _______ _______ _____ _____    ______ ____
ROOT
ATOM      3  N   UNL     1       0.940   0.799  23.024  0.00  0.00    -0.297 NA
ATOM      5  C   UNL     1      -1.020   2.063  23.264  0.00  0.00    +0.060 C 
ATOM      6  C   UNL     1       0.110   2.706  24.087  0.00  0.00    +0.027 C 
ATOM      7  C   UNL     1      -0.515   0.650  22.946  0.00  0.00    +0.095 C 
ATOM      8  C   UNL     1       1.172   1.620  24.212  0.00  0.00    +0.085 C 
ENDROOT
BRANCH   5  10
ATOM      1  S   UNL     1      -3.197   0.585  24.160  0.00  0.00    -0.072 S 
ATOM      4  N   UNL     1      -2.982   3.146  24.371  0.00  0.00    -0.244 NA
ATOM     10  C   UNL     1      -2.375   2.068  23.936  0.00  0.00    +0.084 A 
ATOM     12  C   UNL     1      -4.499   1.432  24.909  0.00  0.00    +0.039 A 
ATOM     13  C   UNL     1      -4.203   2.799  24.931  0.00  0.00    +0.078 A 
ATOM     16  C   UNL     1      -5.696   0.924  25.438  0.00  0.00    +0.017 A 
ATOM     17  C   UNL     1      -5.138   3.685  25.504  0.00  0.00    +0.029 A 
ATOM     20  C   UNL     1      -6.605   1.824  26.000  0.00  0.00    +0.001 A 
ATOM     21  C   UNL     1      -6.332   3.188  26.034  0.00  0.00    +0.002 A 
ENDBRANCH   5  10
BRANCH   3   9
ATOM      9  C   UNL     1       1.627  -0.482  23.093  0.00  0.00    +0.122 C 
BRANCH   9  11
ATOM      2  F   UNL     1       3.287  -2.398  24.357  0.00  0.00    -0.205 F 
ATOM     11  C   UNL     1       3.117  -0.312  23.238  0.00  0.00    +0.002 A 
ATOM     14  C   UNL     1       3.875  -1.295  23.873  0.00  0.00    +0.128 A 
ATOM     15  C   UNL     1       3.737   0.832  22.736  0.00  0.00    +0.008 A 
ATOM     18  C   UNL     1       5.254  -1.135  24.005  0.00  0.00    +0.038 A 
ATOM     19  C   UNL     1       5.116   0.992  22.868  0.00  0.00    +0.000 A 
ATOM     22  C   UNL     1       5.875   0.008  23.502  0.00  0.00    +0.003 A 
ENDBRANCH   9  11
ENDBRANCH   3   9
TORSDOF 3
ENDMDL
MODEL 10
REMARK VINA RESULT:      -1.1     14.826     17.315
REMARK  Name = 51137077
REMARK  3 active torsions:
REMARK  status: ('A' for Active; 'I' for Inactive)
REMARK    1  A    between atoms: N_3  and  C_9
REMARK    2  A    between atoms: C_5  and  C_10
REMARK    3  A    between atoms: C_9  and  C_11
REMARK                            x       y       z     vdW  Elec       q    Type
REMARK                         _______ _______ _______ _____ _____    ______ ____
ROOT
ATOM      3  N   UNL     1      -3.422   1.856  24.816  0.00  0.00    -0.297 NA
ATOM      5  C   UNL     1      -1.139   2.247  24.449  0.00  0.00    +0.060 C 
ATOM      6  C   UNL     1      -1.957   2.856  23.297  0.00  0.00    +0.027 C 
ATOM      7  C   UNL     1      -2.113   1.294  25.156  0.00  0.00    +0.095 C 
ATOM      8  C   UNL     1      -3.328   2.200  23.397  0.00  0.00    +0.085 C 
ENDROOT
BRANCH   5  10
ATOM      1  S   UNL     1       0.179  -0.134  23.881  0.00  0.00    -0.072 S 
ATOM      4  N   UNL     1       1.262   2.203  23.755  0.00  0.00    -0.244 NA
ATOM     10  C   UNL     1       0.145   1.570  24.026  0.00  0.00    +0.084 A 
ATOM     12  C   UNL     1       1.836  -0.051  23.412  0.00  0.00    +0.039 A 
ATOM     13  C   UNL     1       2.242   1.287  23.401  0.00  0.00    +0.078 A 
ATOM     16  C   UNL     1       2.714  -1.095  23.078  0.00  0.00    +0.017 A 
ATOM     17  C   UNL     1       3.572   1.589  23.043  0.00  0.00    +0.029 A 
ATOM     20  C   UNL     1       4.026  -0.769  22.727  0.00  0.00    +0.001 A 
ATOM     21  C   UNL     1       4.452   0.555  22.709  0.00  0.00    +0.002 A 
ENDBRANCH   5  10
BRANCH   3   9
ATOM      9  C   UNL     1      -4.512   0.932  25.090  0.00  0.00    +0.122 C 
BRANCH   9  11
ATOM      2  F   UNL     1      -4.460  -0.694  22.770  0.00  0.00    -0.205 F 
ATOM     11  C   UNL     1      -4.045  -0.500  25.099  0.00  0.00    +0.002 A 
ATOM     14  C   UNL     1      -4.046  -1.244  23.920  0.00  0.00    +0.128 A 
ATOM     15  C   UNL     1      -3.611  -1.080  26.291  0.00  0.00    +0.008 A 
ATOM     18  C   UNL     1      -3.613  -2.570  23.932  0.00  0.00    +0.038 A 
ATOM     19  C   UNL     1      -3.177  -2.407  26.302  0.00  0.00    +0.000 A 
ATOM     22  C   UNL     1      -3.178  -3.151  25.123  0.00  0.00    +0.003 A 
ENDBRANCH   9  11
ENDBRANCH   3   9
TORSDOF 3
ENDMDL
