MODEL 1
REMARK VINA RESULT:      -4.8      0.000      0.000
REMARK  Name = 75367730
REMARK  6 active torsions:
REMARK  status: ('A' for Active; 'I' for Inactive)
REMARK    1  A    between atoms: O_5  and  C_11
REMARK    2  A    between atoms: O_5  and  C_19
REMARK    3  A    between atoms: O_6  and  C_22
REMARK    4  A    between atoms: O_6  and  C_26
REMARK    5  A    between atoms: N_7  and  C_13
REMARK    6  A    between atoms: C_13  and  C_16
REMARK                            x       y       z     vdW  Elec       q    Type
REMARK                         _______ _______ _______ _____ _____    ______ ____
ROOT
ATOM      4  O   UNL     1      -6.417   2.733  24.942  0.00  0.00    -0.375 OA
ATOM      7  N   UNL     1      -3.579   3.171  24.744  0.00  0.00    -0.292 NA
ATOM     10  C   UNL     1      -3.581   1.985  25.600  0.00  0.00    +0.131 C 
ATOM     11  C   UNL     1      -4.677   1.001  25.172  0.00  0.00    +0.215 C 
ATOM     12  C   UNL     1      -4.501   4.230  25.169  0.00  0.00    +0.113 C 
ATOM     14  C   UNL     1      -6.108   1.445  25.460  0.00  0.00    +0.205 C 
ATOM     15  C   UNL     1      -5.851   3.779  25.723  0.00  0.00    +0.175 C 
ENDROOT
BRANCH  11   5
ATOM      5  O   UNL     1      -4.444  -0.236  25.846  0.00  0.00    -0.468 OA
BRANCH   5  19
ATOM      8  N   UNL     1      -2.166  -0.697  25.923  0.00  0.00    -0.219 NA
ATOM      9  N   UNL     1      -2.543  -2.729  24.027  0.00  0.00    -0.256 NA
ATOM     19  C   UNL     1      -3.381  -0.979  25.410  0.00  0.00    +0.234 A 
ATOM     23  C   UNL     1      -3.565  -1.977  24.479  0.00  0.00    +0.177 A 
ATOM     24  C   UNL     1      -1.143  -1.450  25.471  0.00  0.00    +0.134 A 
ATOM     25  C   UNL     1      -1.328  -2.447  24.539  0.00  0.00    +0.130 A 
ENDBRANCH   5  19
ENDBRANCH  11   5
BRANCH   7  13
ATOM     13  C   UNL     1      -2.230   3.715  24.584  0.00  0.00    +0.119 C 
BRANCH  13  16
ATOM     16  C   UNL     1      -1.239   2.652  24.191  0.00  0.00    -0.033 A 
ATOM     17  C   UNL     1      -0.018   2.556  24.858  0.00  0.00    +0.008 A 
ATOM     18  C   UNL     1      -1.543   1.765  23.160  0.00  0.00    +0.008 A 
ATOM     20  C   UNL     1       0.900   1.570  24.493  0.00  0.00    +0.046 A 
ATOM     21  C   UNL     1      -0.625   0.780  22.794  0.00  0.00    +0.046 A 
ATOM     22  C   UNL     1       0.596   0.683  23.460  0.00  0.00    +0.130 A 
BRANCH  22   6
ATOM      6  O   UNL     1       1.491  -0.279  23.105  0.00  0.00    -0.406 OA
BRANCH   6  26
ATOM      1  F   UNL     1       3.059   1.381  22.967  0.00  0.00    -0.133 F 
ATOM      2  F   UNL     1       3.706  -0.706  23.010  0.00  0.00    -0.133 F 
ATOM      3  F   UNL     1       2.732   0.075  21.216  0.00  0.00    -0.133 F 
ATOM     26  C   UNL     1       2.743   0.132  22.564  0.00  0.00    +0.575 C 
ENDBRANCH   6  26
ENDBRANCH  22   6
ENDBRANCH  13  16
ENDBRANCH   7  13
TORSDOF 6
ENDMDL
MODEL 2
REMARK VINA RESULT:      -3.7      3.191      5.458
REMARK  Name = 75367730
REMARK  6 active torsions:
REMARK  status: ('A' for Active; 'I' for Inactive)
REMARK    1  A    between atoms: O_5  and  C_11
REMARK    2  A    between atoms: O_5  and  C_19
REMARK    3  A    between atoms: O_6  and  C_22
REMARK    4  A    between atoms: O_6  and  C_26
REMARK    5  A    between atoms: N_7  and  C_13
REMARK    6  A    between atoms: C_13  and  C_16
REMARK                            x       y       z     vdW  Elec       q    Type
REMARK                         _______ _______ _______ _____ _____    ______ ____
ROOT
ATOM      4  O   UNL     1      -3.836  -3.192  24.652  0.00  0.00    -0.375 OA
ATOM      7  N   UNL     1      -1.546  -1.454  24.784  0.00  0.00    -0.292 NA
ATOM     10  C   UNL     1      -2.426  -0.629  23.958  0.00  0.00    +0.131 C 
ATOM     11  C   UNL     1      -3.882  -0.736  24.432  0.00  0.00    +0.215 C 
ATOM     12  C   UNL     1      -1.437  -2.851  24.351  0.00  0.00    +0.113 C 
ATOM     14  C   UNL     1      -4.565  -2.074  24.160  0.00  0.00    +0.205 C 
ATOM     15  C   UNL     1      -2.715  -3.508  23.834  0.00  0.00    +0.175 C 
ENDROOT
BRANCH  11   5
ATOM      5  O   UNL     1      -4.631   0.293  23.785  0.00  0.00    -0.468 OA
BRANCH   5  19
ATOM      8  N   UNL     1      -4.374   2.576  24.146  0.00  0.00    -0.219 NA
ATOM      9  N   UNL     1      -6.035   2.377  26.396  0.00  0.00    -0.256 NA
ATOM     19  C   UNL     1      -4.916   1.403  24.531  0.00  0.00    +0.234 A 
ATOM     23  C   UNL     1      -5.732   1.307  25.637  0.00  0.00    +0.177 A 
ATOM     24  C   UNL     1      -4.677   3.647  24.905  0.00  0.00    +0.134 A 
ATOM     25  C   UNL     1      -5.493   3.550  26.011  0.00  0.00    +0.130 A 
ENDBRANCH   5  19
ENDBRANCH  11   5
BRANCH   7  13
ATOM     13  C   UNL     1      -0.212  -0.861  24.904  0.00  0.00    +0.119 C 
BRANCH  13  16
ATOM     16  C   UNL     1      -0.269   0.642  24.942  0.00  0.00    -0.033 A 
ATOM     17  C   UNL     1       0.105   1.383  23.820  0.00  0.00    +0.008 A 
ATOM     18  C   UNL     1      -0.693   1.294  26.099  0.00  0.00    +0.008 A 
ATOM     20  C   UNL     1       0.052   2.776  23.856  0.00  0.00    +0.046 A 
ATOM     21  C   UNL     1      -0.745   2.688  26.135  0.00  0.00    +0.046 A 
ATOM     22  C   UNL     1      -0.372   3.429  25.014  0.00  0.00    +0.130 A 
BRANCH  22   6
ATOM      6  O   UNL     1      -0.423   4.789  25.049  0.00  0.00    -0.406 OA
BRANCH   6  26
ATOM      1  F   UNL     1      -2.476   5.035  24.069  0.00  0.00    -0.133 F 
ATOM      2  F   UNL     1      -2.320   5.030  26.249  0.00  0.00    -0.133 F 
ATOM      3  F   UNL     1      -1.586   6.758  25.129  0.00  0.00    -0.133 F 
ATOM     26  C   UNL     1      -1.702   5.413  25.108  0.00  0.00    +0.575 C 
ENDBRANCH   6  26
ENDBRANCH  22   6
ENDBRANCH  13  16
ENDBRANCH   7  13
TORSDOF 6
ENDMDL
MODEL 3
REMARK VINA RESULT:      -3.2      3.783      6.083
REMARK  Name = 75367730
REMARK  6 active torsions:
REMARK  status: ('A' for Active; 'I' for Inactive)
REMARK    1  A    between atoms: O_5  and  C_11
REMARK    2  A    between atoms: O_5  and  C_19
REMARK    3  A    between atoms: O_6  and  C_22
REMARK    4  A    between atoms: O_6  and  C_26
REMARK    5  A    between atoms: N_7  and  C_13
REMARK    6  A    between atoms: C_13  and  C_16
REMARK                            x       y       z     vdW  Elec       q    Type
REMARK                         _______ _______ _______ _____ _____    ______ ____
ROOT
ATOM      4  O   UNL     1       1.557  -0.969  23.855  0.00  0.00    -0.375 OA
ATOM      7  N   UNL     1       0.277   1.570  24.301  0.00  0.00    -0.292 NA
ATOM     10  C   UNL     1      -0.811   0.679  24.703  0.00  0.00    +0.131 C 
ATOM     11  C   UNL     1      -0.269  -0.542  25.458  0.00  0.00    +0.215 C 
ATOM     12  C   UNL     1       0.901   1.229  23.018  0.00  0.00    +0.113 C 
ATOM     14  C   UNL     1       0.501  -1.551  24.610  0.00  0.00    +0.205 C 
ATOM     15  C   UNL     1       1.080  -0.258  22.719  0.00  0.00    +0.175 C 
ENDROOT
BRANCH  11   5
ATOM      5  O   UNL     1      -1.375  -1.212  26.063  0.00  0.00    -0.468 OA
BRANCH   5  19
ATOM      8  N   UNL     1      -3.335  -0.526  25.017  0.00  0.00    -0.219 NA
ATOM      9  N   UNL     1      -3.588  -3.078  23.882  0.00  0.00    -0.256 NA
ATOM     19  C   UNL     1      -2.434  -1.502  25.247  0.00  0.00    +0.234 A 
ATOM     23  C   UNL     1      -2.559  -2.755  24.690  0.00  0.00    +0.177 A 
ATOM     24  C   UNL     1      -4.365  -0.849  24.209  0.00  0.00    +0.134 A 
ATOM     25  C   UNL     1      -4.489  -2.103  23.652  0.00  0.00    +0.130 A 
ENDBRANCH   5  19
ENDBRANCH  11   5
BRANCH   7  13
ATOM     13  C   UNL     1      -0.152   2.969  24.293  0.00  0.00    +0.119 C 
BRANCH  13  16
ATOM     16  C   UNL     1      -1.616   3.109  24.616  0.00  0.00    -0.033 A 
ATOM     17  C   UNL     1      -2.577   2.720  23.683  0.00  0.00    +0.008 A 
ATOM     18  C   UNL     1      -2.011   3.627  25.849  0.00  0.00    +0.008 A 
ATOM     20  C   UNL     1      -3.933   2.849  23.983  0.00  0.00    +0.046 A 
ATOM     21  C   UNL     1      -3.367   3.757  26.149  0.00  0.00    +0.046 A 
ATOM     22  C   UNL     1      -4.328   3.369  25.216  0.00  0.00    +0.130 A 
BRANCH  22   6
ATOM      6  O   UNL     1      -5.651   3.495  25.509  0.00  0.00    -0.406 OA
BRANCH   6  26
ATOM      1  F   UNL     1      -7.191   1.955  24.808  0.00  0.00    -0.133 F 
ATOM      2  F   UNL     1      -5.513   1.307  26.050  0.00  0.00    -0.133 F 
ATOM      3  F   UNL     1      -7.115   2.490  26.951  0.00  0.00    -0.133 F 
ATOM     26  C   UNL     1      -6.385   2.317  25.829  0.00  0.00    +0.575 C 
ENDBRANCH   6  26
ENDBRANCH  22   6
ENDBRANCH  13  16
ENDBRANCH   7  13
TORSDOF 6
ENDMDL
MODEL 4
REMARK VINA RESULT:      -2.9      3.090      5.652
REMARK  Name = 75367730
REMARK  6 active torsions:
REMARK  status: ('A' for Active; 'I' for Inactive)
REMARK    1  A    between atoms: O_5  and  C_11
REMARK    2  A    between atoms: O_5  and  C_19
REMARK    3  A    between atoms: O_6  and  C_22
REMARK    4  A    between atoms: O_6  and  C_26
REMARK    5  A    between atoms: N_7  and  C_13
REMARK    6  A    between atoms: C_13  and  C_16
REMARK                            x       y       z     vdW  Elec       q    Type
REMARK                         _______ _______ _______ _____ _____    ______ ____
ROOT
ATOM      4  O   UNL     1      -2.606  -3.472  23.478  0.00  0.00    -0.375 OA
ATOM      7  N   UNL     1      -4.100  -1.118  24.194  0.00  0.00    -0.292 NA
ATOM     10  C   UNL     1      -2.971  -0.975  25.112  0.00  0.00    +0.131 C 
ATOM     11  C   UNL     1      -1.660  -1.408  24.442  0.00  0.00    +0.215 C 
ATOM     12  C   UNL     1      -4.710  -2.452  24.183  0.00  0.00    +0.113 C 
ATOM     14  C   UNL     1      -1.514  -2.907  24.193  0.00  0.00    +0.205 C 
ATOM     15  C   UNL     1      -3.758  -3.640  24.298  0.00  0.00    +0.175 C 
ENDROOT
BRANCH  11   5
ATOM      5  O   UNL     1      -0.580  -0.981  25.271  0.00  0.00    -0.468 OA
BRANCH   5  19
ATOM      8  N   UNL     1      -0.585   1.124  26.259  0.00  0.00    -0.219 NA
ATOM      9  N   UNL     1       0.744   2.149  24.012  0.00  0.00    -0.256 NA
ATOM     19  C   UNL     1      -0.250   0.345  25.211  0.00  0.00    +0.234 A 
ATOM     23  C   UNL     1       0.403   0.849  24.108  0.00  0.00    +0.177 A 
ATOM     24  C   UNL     1      -0.243   2.425  26.164  0.00  0.00    +0.134 A 
ATOM     25  C   UNL     1       0.409   2.928  25.060  0.00  0.00    +0.130 A 
ENDBRANCH   5  19
ENDBRANCH  11   5
BRANCH   7  13
ATOM     13  C   UNL     1      -5.123  -0.101  24.440  0.00  0.00    +0.119 C 
BRANCH  13  16
ATOM     16  C   UNL     1      -4.555   1.291  24.383  0.00  0.00    -0.033 A 
ATOM     17  C   UNL     1      -5.106   2.303  25.170  0.00  0.00    +0.008 A 
ATOM     18  C   UNL     1      -3.477   1.570  23.544  0.00  0.00    +0.008 A 
ATOM     20  C   UNL     1      -4.578   3.593  25.118  0.00  0.00    +0.046 A 
ATOM     21  C   UNL     1      -2.950   2.861  23.490  0.00  0.00    +0.046 A 
ATOM     22  C   UNL     1      -3.501   3.872  24.277  0.00  0.00    +0.130 A 
BRANCH  22   6
ATOM      6  O   UNL     1      -2.986   5.131  24.225  0.00  0.00    -0.406 OA
BRANCH   6  26
ATOM      1  F   UNL     1      -0.727   5.297  24.552  0.00  0.00    -0.133 F 
ATOM      2  F   UNL     1      -2.056   6.771  25.469  0.00  0.00    -0.133 F 
ATOM      3  F   UNL     1      -2.014   4.733  26.258  0.00  0.00    -0.133 F 
ATOM     26  C   UNL     1      -1.937   5.467  25.128  0.00  0.00    +0.575 C 
ENDBRANCH   6  26
ENDBRANCH  22   6
ENDBRANCH  13  16
ENDBRANCH   7  13
TORSDOF 6
ENDMDL
MODEL 5
REMARK VINA RESULT:      -2.4      3.380      4.882
REMARK  Name = 75367730
REMARK  6 active torsions:
REMARK  status: ('A' for Active; 'I' for Inactive)
REMARK    1  A    between atoms: O_5  and  C_11
REMARK    2  A    between atoms: O_5  and  C_19
REMARK    3  A    between atoms: O_6  and  C_22
REMARK    4  A    between atoms: O_6  and  C_26
REMARK    5  A    between atoms: N_7  and  C_13
REMARK    6  A    between atoms: C_13  and  C_16
REMARK                            x       y       z     vdW  Elec       q    Type
REMARK                         _______ _______ _______ _____ _____    ______ ____
ROOT
ATOM      4  O   UNL     1      -1.378   5.917  24.943  0.00  0.00    -0.375 OA
ATOM      7  N   UNL     1      -3.486   3.989  25.297  0.00  0.00    -0.292 NA
ATOM     10  C   UNL     1      -2.333   3.092  25.329  0.00  0.00    +0.131 C 
ATOM     11  C   UNL     1      -1.156   3.736  26.074  0.00  0.00    +0.215 C 
ATOM     12  C   UNL     1      -3.486   4.944  24.183  0.00  0.00    +0.113 C 
ATOM     14  C   UNL     1      -0.476   4.896  25.351  0.00  0.00    +0.205 C 
ATOM     15  C   UNL     1      -2.135   5.542  23.797  0.00  0.00    +0.175 C 
ENDROOT
BRANCH  11   5
ATOM      5  O   UNL     1      -0.182   2.722  26.318  0.00  0.00    -0.468 OA
BRANCH   5  19
ATOM      8  N   UNL     1       0.463   1.838  24.266  0.00  0.00    -0.219 NA
ATOM      9  N   UNL     1      -0.781  -0.580  24.951  0.00  0.00    -0.256 NA
ATOM     19  C   UNL     1      -0.166   1.668  25.447  0.00  0.00    +0.234 A 
ATOM     23  C   UNL     1      -0.776   0.480  25.783  0.00  0.00    +0.177 A 
ATOM     24  C   UNL     1       0.458   0.777  23.434  0.00  0.00    +0.134 A 
ATOM     25  C   UNL     1      -0.153  -0.411  23.771  0.00  0.00    +0.130 A 
ENDBRANCH   5  19
ENDBRANCH  11   5
BRANCH   7  13
ATOM     13  C   UNL     1      -4.746   3.244  25.317  0.00  0.00    +0.119 C 
BRANCH  13  16
ATOM     16  C   UNL     1      -4.566   1.827  24.841  0.00  0.00    -0.033 A 
ATOM     17  C   UNL     1      -3.765   1.559  23.732  0.00  0.00    +0.008 A 
ATOM     18  C   UNL     1      -5.202   0.782  25.510  0.00  0.00    +0.008 A 
ATOM     20  C   UNL     1      -3.598   0.246  23.291  0.00  0.00    +0.046 A 
ATOM     21  C   UNL     1      -5.037  -0.532  25.070  0.00  0.00    +0.046 A 
ATOM     22  C   UNL     1      -4.235  -0.799  23.960  0.00  0.00    +0.130 A 
BRANCH  22   6
ATOM      6  O   UNL     1      -4.072  -2.081  23.531  0.00  0.00    -0.406 OA
BRANCH   6  26
ATOM      1  F   UNL     1      -3.276  -2.540  25.626  0.00  0.00    -0.133 F 
ATOM      2  F   UNL     1      -3.933  -4.183  24.343  0.00  0.00    -0.133 F 
ATOM      3  F   UNL     1      -2.072  -3.137  23.871  0.00  0.00    -0.133 F 
ATOM     26  C   UNL     1      -3.324  -2.975  24.349  0.00  0.00    +0.575 C 
ENDBRANCH   6  26
ENDBRANCH  22   6
ENDBRANCH  13  16
ENDBRANCH   7  13
TORSDOF 6
ENDMDL
MODEL 6
REMARK VINA RESULT:      -2.3      3.351      4.833
REMARK  Name = 75367730
REMARK  6 active torsions:
REMARK  status: ('A' for Active; 'I' for Inactive)
REMARK    1  A    between atoms: O_5  and  C_11
REMARK    2  A    between atoms: O_5  and  C_19
REMARK    3  A    between atoms: O_6  and  C_22
REMARK    4  A    between atoms: O_6  and  C_26
REMARK    5  A    between atoms: N_7  and  C_13
REMARK    6  A    between atoms: C_13  and  C_16
REMARK                            x       y       z     vdW  Elec       q    Type
REMARK                         _______ _______ _______ _____ _____    ______ ____
ROOT
ATOM      4  O   UNL     1      -2.250   5.837  24.080  0.00  0.00    -0.375 OA
ATOM      7  N   UNL     1      -0.675   3.437  24.282  0.00  0.00    -0.292 NA
ATOM     10  C   UNL     1      -2.012   2.846  24.273  0.00  0.00    +0.131 C 
ATOM     11  C   UNL     1      -2.937   3.598  23.307  0.00  0.00    +0.215 C 
ATOM     12  C   UNL     1      -0.509   4.555  25.216  0.00  0.00    +0.113 C 
ATOM     14  C   UNL     1      -3.351   4.999  23.750  0.00  0.00    +0.205 C 
ATOM     15  C   UNL     1      -1.689   5.515  25.348  0.00  0.00    +0.175 C 
ENDROOT
BRANCH  11   5
ATOM      5  O   UNL     1      -4.117   2.814  23.128  0.00  0.00    -0.468 OA
BRANCH   5  19
ATOM      8  N   UNL     1      -4.645   1.020  24.509  0.00  0.00    -0.219 NA
ATOM      9  N   UNL     1      -5.966   2.782  26.244  0.00  0.00    -0.256 NA
ATOM     19  C   UNL     1      -4.716   2.343  24.264  0.00  0.00    +0.234 A 
ATOM     23  C   UNL     1      -5.365   3.208  25.117  0.00  0.00    +0.177 A 
ATOM     24  C   UNL     1      -5.246   0.593  25.638  0.00  0.00    +0.134 A 
ATOM     25  C   UNL     1      -5.896   1.458  26.490  0.00  0.00    +0.130 A 
ENDBRANCH   5  19
ENDBRANCH  11   5
BRANCH   7  13
ATOM     13  C   UNL     1       0.356   2.426  24.524  0.00  0.00    +0.119 C 
BRANCH  13  16
ATOM     16  C   UNL     1      -0.221   1.037  24.569  0.00  0.00    -0.033 A 
ATOM     17  C   UNL     1      -0.990   0.635  25.661  0.00  0.00    +0.008 A 
ATOM     18  C   UNL     1       0.015   0.150  23.519  0.00  0.00    +0.008 A 
ATOM     20  C   UNL     1      -1.525  -0.652  25.702  0.00  0.00    +0.046 A 
ATOM     21  C   UNL     1      -0.519  -1.138  23.560  0.00  0.00    +0.046 A 
ATOM     22  C   UNL     1      -1.288  -1.539  24.652  0.00  0.00    +0.130 A 
BRANCH  22   6
ATOM      6  O   UNL     1      -1.811  -2.796  24.692  0.00  0.00    -0.406 OA
BRANCH   6  26
ATOM      1  F   UNL     1      -3.832  -2.819  25.762  0.00  0.00    -0.133 F 
ATOM      2  F   UNL     1      -3.690  -1.967  23.755  0.00  0.00    -0.133 F 
ATOM      3  F   UNL     1      -3.538  -4.132  24.010  0.00  0.00    -0.133 F 
ATOM     26  C   UNL     1      -3.221  -2.943  24.565  0.00  0.00    +0.575 C 
ENDBRANCH   6  26
ENDBRANCH  22   6
ENDBRANCH  13  16
ENDBRANCH   7  13
TORSDOF 6
ENDMDL
MODEL 7
REMARK VINA RESULT:      -2.1      3.788      7.106
REMARK  Name = 75367730
REMARK  6 active torsions:
REMARK  status: ('A' for Active; 'I' for Inactive)
REMARK    1  A    between atoms: O_5  and  C_11
REMARK    2  A    between atoms: O_5  and  C_19
REMARK    3  A    between atoms: O_6  and  C_22
REMARK    4  A    between atoms: O_6  and  C_26
REMARK    5  A    between atoms: N_7  and  C_13
REMARK    6  A    between atoms: C_13  and  C_16
REMARK                            x       y       z     vdW  Elec       q    Type
REMARK                         _______ _______ _______ _____ _____    ______ ____
ROOT
ATOM      4  O   UNL     1       2.174   0.500  22.568  0.00  0.00    -0.375 OA
ATOM      7  N   UNL     1      -0.275  -0.493  23.709  0.00  0.00    -0.292 NA
ATOM     10  C   UNL     1       0.093   0.478  24.738  0.00  0.00    +0.131 C 
ATOM     11  C   UNL     1       0.701   1.739  24.110  0.00  0.00    +0.215 C 
ATOM     12  C   UNL     1       0.811  -1.390  23.301  0.00  0.00    +0.113 C 
ATOM     14  C   UNL     1       2.092   1.567  23.505  0.00  0.00    +0.205 C 
ATOM     15  C   UNL     1       2.205  -0.774  23.203  0.00  0.00    +0.175 C 
ENDROOT
BRANCH  11   5
ATOM      5  O   UNL     1       0.770   2.744  25.122  0.00  0.00    -0.468 OA
BRANCH   5  19
ATOM      8  N   UNL     1      -0.364   4.724  24.672  0.00  0.00    -0.219 NA
ATOM      9  N   UNL     1      -2.505   3.820  26.241  0.00  0.00    -0.256 NA
ATOM     19  C   UNL     1      -0.342   3.524  25.286  0.00  0.00    +0.234 A 
ATOM     23  C   UNL     1      -1.394   3.081  26.056  0.00  0.00    +0.177 A 
ATOM     24  C   UNL     1      -1.475   5.464  24.856  0.00  0.00    +0.134 A 
ATOM     25  C   UNL     1      -2.527   5.020  25.627  0.00  0.00    +0.130 A 
ENDBRANCH   5  19
ENDBRANCH  11   5
BRANCH   7  13
ATOM     13  C   UNL     1      -1.448  -1.275  24.104  0.00  0.00    +0.119 C 
BRANCH  13  16
ATOM     16  C   UNL     1      -2.660  -0.405  24.302  0.00  0.00    -0.033 A 
ATOM     17  C   UNL     1      -2.821   0.752  23.541  0.00  0.00    +0.008 A 
ATOM     18  C   UNL     1      -3.623  -0.757  25.248  0.00  0.00    +0.008 A 
ATOM     20  C   UNL     1      -3.944   1.558  23.724  0.00  0.00    +0.046 A 
ATOM     21  C   UNL     1      -4.747   0.049  25.432  0.00  0.00    +0.046 A 
ATOM     22  C   UNL     1      -4.907   1.207  24.671  0.00  0.00    +0.130 A 
BRANCH  22   6
ATOM      6  O   UNL     1      -6.004   1.993  24.850  0.00  0.00    -0.406 OA
BRANCH   6  26
ATOM      1  F   UNL     1      -6.783   2.193  26.992  0.00  0.00    -0.133 F 
ATOM      2  F   UNL     1      -4.814   2.996  26.486  0.00  0.00    -0.133 F 
ATOM      3  F   UNL     1      -6.604   4.010  25.747  0.00  0.00    -0.133 F 
ATOM     26  C   UNL     1      -6.070   2.801  26.021  0.00  0.00    +0.575 C 
ENDBRANCH   6  26
ENDBRANCH  22   6
ENDBRANCH  13  16
ENDBRANCH   7  13
TORSDOF 6
ENDMDL
MODEL 8
REMARK VINA RESULT:      -1.5      3.184      5.762
REMARK  Name = 75367730
REMARK  6 active torsions:
REMARK  status: ('A' for Active; 'I' for Inactive)
REMARK    1  A    between atoms: O_5  and  C_11
REMARK    2  A    between atoms: O_5  and  C_19
REMARK    3  A    between atoms: O_6  and  C_22
REMARK    4  A    between atoms: O_6  and  C_26
REMARK    5  A    between atoms: N_7  and  C_13
REMARK    6  A    between atoms: C_13  and  C_16
REMARK                            x       y       z     vdW  Elec       q    Type
REMARK                         _______ _______ _______ _____ _____    ______ ____
ROOT
ATOM      4  O   UNL     1      -1.865  -3.304  24.011  0.00  0.00    -0.375 OA
ATOM      7  N   UNL     1      -3.630  -1.036  24.165  0.00  0.00    -0.292 NA
ATOM     10  C   UNL     1      -2.418  -0.436  24.723  0.00  0.00    +0.131 C 
ATOM     11  C   UNL     1      -1.169  -0.938  23.987  0.00  0.00    +0.215 C 
ATOM     12  C   UNL     1      -3.986  -2.337  24.740  0.00  0.00    +0.113 C 
ATOM     14  C   UNL     1      -0.796  -2.396  24.245  0.00  0.00    +0.205 C 
ATOM     15  C   UNL     1      -2.830  -3.283  25.057  0.00  0.00    +0.175 C 
ENDROOT
BRANCH  11   5
ATOM      5  O   UNL     1      -0.069  -0.115  24.377  0.00  0.00    -0.468 OA
BRANCH   5  19
ATOM      8  N   UNL     1       2.034   0.721  23.845  0.00  0.00    -0.219 NA
ATOM      9  N   UNL     1       1.827  -0.453  21.307  0.00  0.00    -0.256 NA
ATOM     19  C   UNL     1       0.948   0.016  23.471  0.00  0.00    +0.234 A 
ATOM     23  C   UNL     1       0.847  -0.561  22.224  0.00  0.00    +0.177 A 
ATOM     24  C   UNL     1       3.015   0.828  22.927  0.00  0.00    +0.134 A 
ATOM     25  C   UNL     1       2.913   0.252  21.679  0.00  0.00    +0.130 A 
ENDBRANCH   5  19
ENDBRANCH  11   5
BRANCH   7  13
ATOM     13  C   UNL     1      -4.769  -0.121  24.251  0.00  0.00    +0.119 C 
BRANCH  13  16
ATOM     16  C   UNL     1      -4.330   1.317  24.330  0.00  0.00    -0.033 A 
ATOM     17  C   UNL     1      -3.427   1.823  23.394  0.00  0.00    +0.008 A 
ATOM     18  C   UNL     1      -4.824   2.142  25.339  0.00  0.00    +0.008 A 
ATOM     20  C   UNL     1      -3.020   3.155  23.467  0.00  0.00    +0.046 A 
ATOM     21  C   UNL     1      -4.416   3.474  25.413  0.00  0.00    +0.046 A 
ATOM     22  C   UNL     1      -3.514   3.980  24.477  0.00  0.00    +0.130 A 
BRANCH  22   6
ATOM      6  O   UNL     1      -3.117   5.281  24.548  0.00  0.00    -0.406 OA
BRANCH   6  26
ATOM      1  F   UNL     1      -1.720   6.843  25.466  0.00  0.00    -0.133 F 
ATOM      2  F   UNL     1      -1.581   4.762  26.120  0.00  0.00    -0.133 F 
ATOM      3  F   UNL     1      -0.869   5.306  24.126  0.00  0.00    -0.133 F 
ATOM     26  C   UNL     1      -1.816   5.561  25.054  0.00  0.00    +0.575 C 
ENDBRANCH   6  26
ENDBRANCH  22   6
ENDBRANCH  13  16
ENDBRANCH   7  13
TORSDOF 6
ENDMDL
MODEL 9
REMARK VINA RESULT:      -1.4      4.443      7.257
REMARK  Name = 75367730
REMARK  6 active torsions:
REMARK  status: ('A' for Active; 'I' for Inactive)
REMARK    1  A    between atoms: O_5  and  C_11
REMARK    2  A    between atoms: O_5  and  C_19
REMARK    3  A    between atoms: O_6  and  C_22
REMARK    4  A    between atoms: O_6  and  C_26
REMARK    5  A    between atoms: N_7  and  C_13
REMARK    6  A    between atoms: C_13  and  C_16
REMARK                            x       y       z     vdW  Elec       q    Type
REMARK                         _______ _______ _______ _____ _____    ______ ____
ROOT
ATOM      4  O   UNL     1       0.123  -1.227  23.271  0.00  0.00    -0.375 OA
ATOM      7  N   UNL     1      -0.001   1.600  23.802  0.00  0.00    -0.292 NA
ATOM     10  C   UNL     1       1.430   1.468  23.534  0.00  0.00    +0.131 C 
ATOM     11  C   UNL     1       1.686   0.470  22.397  0.00  0.00    +0.215 C 
ATOM     12  C   UNL     1      -0.539   0.609  24.741  0.00  0.00    +0.113 C 
ATOM     14  C   UNL     1       1.421  -0.995  22.737  0.00  0.00    +0.205 C 
ATOM     15  C   UNL     1       0.016  -0.809  24.628  0.00  0.00    +0.175 C 
ENDROOT
BRANCH  11   5
ATOM      5  O   UNL     1       3.050   0.600  21.996  0.00  0.00    -0.468 OA
BRANCH   5  19
ATOM      8  N   UNL     1       4.894   1.031  23.344  0.00  0.00    -0.219 NA
ATOM      9  N   UNL     1       4.915  -1.662  24.126  0.00  0.00    -0.256 NA
ATOM     19  C   UNL     1       3.992   0.145  22.876  0.00  0.00    +0.234 A 
ATOM     23  C   UNL     1       4.003  -1.177  23.261  0.00  0.00    +0.177 A 
ATOM     24  C   UNL     1       5.807   0.547  24.210  0.00  0.00    +0.134 A 
ATOM     25  C   UNL     1       5.818  -0.777  24.593  0.00  0.00    +0.130 A 
ENDBRANCH   5  19
ENDBRANCH  11   5
BRANCH   7  13
ATOM     13  C   UNL     1      -0.340   2.951  24.252  0.00  0.00    +0.119 C 
BRANCH  13  16
ATOM     16  C   UNL     1      -1.778   3.053  24.686  0.00  0.00    -0.033 A 
ATOM     17  C   UNL     1      -2.788   2.523  23.884  0.00  0.00    +0.008 A 
ATOM     18  C   UNL     1      -2.100   3.679  25.890  0.00  0.00    +0.008 A 
ATOM     20  C   UNL     1      -4.120   2.617  24.286  0.00  0.00    +0.046 A 
ATOM     21  C   UNL     1      -3.432   3.775  26.292  0.00  0.00    +0.046 A 
ATOM     22  C   UNL     1      -4.442   3.244  25.490  0.00  0.00    +0.130 A 
BRANCH  22   6
ATOM      6  O   UNL     1      -5.742   3.337  25.883  0.00  0.00    -0.406 OA
BRANCH   6  26
ATOM      1  F   UNL     1      -7.301   1.927  24.980  0.00  0.00    -0.133 F 
ATOM      2  F   UNL     1      -5.623   1.093  26.106  0.00  0.00    -0.133 F 
ATOM      3  F   UNL     1      -7.209   2.150  27.177  0.00  0.00    -0.133 F 
ATOM     26  C   UNL     1      -6.486   2.132  26.037  0.00  0.00    +0.575 C 
ENDBRANCH   6  26
ENDBRANCH  22   6
ENDBRANCH  13  16
ENDBRANCH   7  13
TORSDOF 6
ENDMDL
MODEL 10
REMARK VINA RESULT:      -1.3      2.571      4.343
REMARK  Name = 75367730
REMARK  6 active torsions:
REMARK  status: ('A' for Active; 'I' for Inactive)
REMARK    1  A    between atoms: O_5  and  C_11
REMARK    2  A    between atoms: O_5  and  C_19
REMARK    3  A    between atoms: O_6  and  C_22
REMARK    4  A    between atoms: O_6  and  C_26
REMARK    5  A    between atoms: N_7  and  C_13
REMARK    6  A    between atoms: C_13  and  C_16
REMARK                            x       y       z     vdW  Elec       q    Type
REMARK                         _______ _______ _______ _____ _____    ______ ____
ROOT
ATOM      4  O   UNL     1      -0.863   4.351  25.768  0.00  0.00    -0.375 OA
ATOM      7  N   UNL     1      -0.897   1.980  24.136  0.00  0.00    -0.292 NA
ATOM     10  C   UNL     1      -2.336   2.217  24.247  0.00  0.00    +0.131 C 
ATOM     11  C   UNL     1      -2.651   3.717  24.193  0.00  0.00    +0.215 C 
ATOM     12  C   UNL     1      -0.170   2.037  25.409  0.00  0.00    +0.113 C 
ATOM     14  C   UNL     1      -2.231   4.522  25.420  0.00  0.00    +0.205 C 
ATOM     15  C   UNL     1      -0.620   3.102  26.406  0.00  0.00    +0.175 C 
ENDROOT
BRANCH  11   5
ATOM      5  O   UNL     1      -4.061   3.864  24.018  0.00  0.00    -0.468 OA
BRANCH   5  19
ATOM      8  N   UNL     1      -5.013   1.770  24.358  0.00  0.00    -0.219 NA
ATOM      9  N   UNL     1      -6.266   2.748  26.668  0.00  0.00    -0.256 NA
ATOM     19  C   UNL     1      -4.858   3.045  24.769  0.00  0.00    +0.234 A 
ATOM     23  C   UNL     1      -5.474   3.524  25.904  0.00  0.00    +0.177 A 
ATOM     24  C   UNL     1      -5.806   0.993  25.123  0.00  0.00    +0.134 A 
ATOM     25  C   UNL     1      -6.422   1.474  26.258  0.00  0.00    +0.130 A 
ENDBRANCH   5  19
ENDBRANCH  11   5
BRANCH   7  13
ATOM     13  C   UNL     1      -0.612   0.718  23.452  0.00  0.00    +0.119 C 
BRANCH  13  16
ATOM     16  C   UNL     1       0.856   0.558  23.159  0.00  0.00    -0.033 A 
ATOM     17  C   UNL     1       1.727   1.629  23.354  0.00  0.00    +0.008 A 
ATOM     18  C   UNL     1       1.344  -0.662  22.693  0.00  0.00    +0.008 A 
ATOM     20  C   UNL     1       3.087   1.481  23.083  0.00  0.00    +0.046 A 
ATOM     21  C   UNL     1       2.704  -0.811  22.420  0.00  0.00    +0.046 A 
ATOM     22  C   UNL     1       3.575   0.260  22.615  0.00  0.00    +0.130 A 
BRANCH  22   6
ATOM      6  O   UNL     1       4.903   0.115  22.351  0.00  0.00    -0.406 OA
BRANCH   6  26
ATOM      1  F   UNL     1       7.055  -0.288  23.013  0.00  0.00    -0.133 F 
ATOM      2  F   UNL     1       5.736   0.885  24.302  0.00  0.00    -0.133 F 
ATOM      3  F   UNL     1       5.401  -1.266  24.105  0.00  0.00    -0.133 F 
ATOM     26  C   UNL     1       5.781  -0.155  23.439  0.00  0.00    +0.575 C 
ENDBRANCH   6  26
ENDBRANCH  22   6
ENDBRANCH  13  16
ENDBRANCH   7  13
TORSDOF 6
ENDMDL
