MODEL 1
REMARK VINA RESULT:      -5.2      0.000      0.000
REMARK  Name = 38028297
REMARK  14 active torsions:
REMARK  status: ('A' for Active; 'I' for Inactive)
REMARK    1  A    between atoms: O_3  and  C_23
REMARK    2  A    between atoms: O_3  and  C_27
REMARK    3  A    between atoms: N_4  and  C_14
REMARK    4  A    between atoms: N_5  and  C_22
REMARK    5  A    between atoms: C_7  and  C_11
REMARK    6  A    between atoms: C_8  and  C_14
REMARK    7  A    between atoms: C_10  and  C_15
REMARK    8  A    between atoms: C_11  and  C_16
REMARK    9  A    between atoms: C_11  and  C_17
REMARK   10  A    between atoms: C_12  and  C_18
REMARK   11  A    between atoms: C_15  and  C_19
REMARK   12  A    between atoms: C_20  and  C_21
REMARK   13  A    between atoms: C_21  and  C_23
REMARK   14  A    between atoms: C_22  and  C_24
REMARK                            x       y       z     vdW  Elec       q    Type
REMARK                         _______ _______ _______ _____ _____    ______ ____
ROOT
ATOM      7  C   UNL     1      -1.176   0.301  24.669  0.00  0.00    +0.000 C 
ATOM      8  C   UNL     1      -0.399  -1.031  24.529  0.00  0.00    +0.032 C 
ATOM      9  C   UNL     1      -2.313   0.153  25.692  0.00  0.00    +0.012 C 
ATOM     10  C   UNL     1      -3.308  -0.954  25.299  0.00  0.00    +0.023 C 
ATOM     12  C   UNL     1      -2.601  -2.228  24.886  0.00  0.00    -0.073 C 
ATOM     13  C   UNL     1      -1.296  -2.245  24.558  0.00  0.00    -0.022 C 
ATOM     18  C   UNL     1      -3.414  -3.492  24.902  0.00  0.00    +0.039 C 
ENDROOT
BRANCH   7  11
ATOM     11  C   UNL     1      -0.257   1.456  25.079  0.00  0.00    -0.013 C 
ATOM     16  C   UNL     1      -0.395   2.620  24.102  0.00  0.00    +0.007 C 
ATOM     17  C   UNL     1      -0.570   1.905  26.503  0.00  0.00    +0.007 C 
ENDBRANCH   7  11
BRANCH   8  14
ATOM     14  C   UNL     1       0.443  -1.048  23.247  0.00  0.00    +0.112 C 
BRANCH  14   4
ATOM      2  O   UNL     1       2.244  -0.233  21.144  0.00  0.00    -0.276 OA
ATOM      4  N   UNL     1       1.570  -0.177  23.368  0.00  0.00    -0.315 N 
ATOM     20  C   UNL     1       2.394   0.167  22.295  0.00  0.00    +0.215 C 
ATOM     30  H   UNL     1       1.748   0.247  24.274  0.00  0.00    +0.149 HD
BRANCH  20  21
ATOM     21  C   UNL     1       3.511   1.110  22.713  0.00  0.00    +0.124 C 
BRANCH  21  23
ATOM     23  C   UNL     1       4.888   0.468  22.635  0.00  0.00    +0.168 C 
BRANCH  23   3
ATOM      3  O   UNL     1       5.385   0.256  23.950  0.00  0.00    -0.382 OA
ATOM     27  C   UNL     1       5.368  -1.123  24.298  0.00  0.00    +0.194 C 
ENDBRANCH  23   3
ENDBRANCH  21  23
ENDBRANCH  20  21
ENDBRANCH  14   4
ENDBRANCH   8  14
BRANCH  10  15
ATOM     15  C   UNL     1      -4.263  -0.475  24.198  0.00  0.00    +0.103 C 
BRANCH  15  19
ATOM      1  O   UNL     1      -3.757   1.740  23.369  0.00  0.00    -0.276 OA
ATOM      5  N   UNL     1      -5.255   1.491  25.128  0.00  0.00    -0.310 N 
ATOM     19  C   UNL     1      -4.374   1.032  24.159  0.00  0.00    +0.214 C 
ATOM     31  H   UNL     1      -5.731   0.821  25.724  0.00  0.00    +0.149 HD
BRANCH   5  22
ATOM     22  C   UNL     1      -5.555   2.891  25.322  0.00  0.00    +0.159 C 
BRANCH  22  24
ATOM      6  N   UNL     1      -4.040   4.398  24.167  0.00  0.00    -0.258 NA
ATOM     24  C   UNL     1      -4.316   3.738  25.314  0.00  0.00    +0.058 A 
ATOM     25  C   UNL     1      -3.531   3.802  26.455  0.00  0.00    +0.025 A 
ATOM     26  C   UNL     1      -2.390   4.595  26.415  0.00  0.00    +0.003 A 
ATOM     28  C   UNL     1      -2.922   5.159  24.167  0.00  0.00    +0.111 A 
ATOM     29  C   UNL     1      -2.072   5.291  25.254  0.00  0.00    +0.020 A 
ENDBRANCH  22  24
ENDBRANCH   5  22
ENDBRANCH  15  19
ENDBRANCH  10  15
TORSDOF 10
ENDMDL
MODEL 2
REMARK VINA RESULT:      -5.2      1.978      6.854
REMARK  Name = 38028297
REMARK  14 active torsions:
REMARK  status: ('A' for Active; 'I' for Inactive)
REMARK    1  A    between atoms: O_3  and  C_23
REMARK    2  A    between atoms: O_3  and  C_27
REMARK    3  A    between atoms: N_4  and  C_14
REMARK    4  A    between atoms: N_5  and  C_22
REMARK    5  A    between atoms: C_7  and  C_11
REMARK    6  A    between atoms: C_8  and  C_14
REMARK    7  A    between atoms: C_10  and  C_15
REMARK    8  A    between atoms: C_11  and  C_16
REMARK    9  A    between atoms: C_11  and  C_17
REMARK   10  A    between atoms: C_12  and  C_18
REMARK   11  A    between atoms: C_15  and  C_19
REMARK   12  A    between atoms: C_20  and  C_21
REMARK   13  A    between atoms: C_21  and  C_23
REMARK   14  A    between atoms: C_22  and  C_24
REMARK                            x       y       z     vdW  Elec       q    Type
REMARK                         _______ _______ _______ _____ _____    ______ ____
ROOT
ATOM      7  C   UNL     1      -3.306   1.098  23.621  0.00  0.00    +0.000 C 
ATOM      8  C   UNL     1      -4.611   0.499  24.200  0.00  0.00    +0.032 C 
ATOM      9  C   UNL     1      -2.394  -0.018  23.088  0.00  0.00    +0.012 C 
ATOM     10  C   UNL     1      -2.021  -1.037  24.180  0.00  0.00    +0.023 C 
ATOM     12  C   UNL     1      -3.231  -1.475  24.979  0.00  0.00    -0.073 C 
ATOM     13  C   UNL     1      -4.385  -0.783  24.965  0.00  0.00    -0.022 C 
ATOM     18  C   UNL     1      -3.102  -2.754  25.759  0.00  0.00    +0.039 C 
ENDROOT
BRANCH   7  11
ATOM     11  C   UNL     1      -3.590   2.112  22.508  0.00  0.00    -0.013 C 
ATOM     16  C   UNL     1      -3.641   3.527  23.076  0.00  0.00    +0.007 C 
ATOM     17  C   UNL     1      -2.534   2.008  21.412  0.00  0.00    +0.007 C 
ENDBRANCH   7  11
BRANCH   8  14
ATOM     14  C   UNL     1      -5.331   1.510  25.101  0.00  0.00    +0.112 C 
BRANCH  14   4
ATOM      2  O   UNL     1      -5.731   4.284  25.791  0.00  0.00    -0.276 OA
ATOM      4  N   UNL     1      -4.394   2.383  25.735  0.00  0.00    -0.315 N 
ATOM     20  C   UNL     1      -4.669   3.719  26.034  0.00  0.00    +0.215 C 
ATOM     30  H   UNL     1      -3.500   1.995  26.022  0.00  0.00    +0.149 HD
BRANCH  20  21
ATOM     21  C   UNL     1      -3.492   4.407  26.708  0.00  0.00    +0.124 C 
BRANCH  21  23
ATOM     23  C   UNL     1      -2.156   4.055  26.071  0.00  0.00    +0.168 C 
BRANCH  23   3
ATOM      3  O   UNL     1      -1.646   5.192  25.387  0.00  0.00    -0.382 OA
ATOM     27  C   UNL     1      -0.496   4.864  24.617  0.00  0.00    +0.194 C 
ENDBRANCH  23   3
ENDBRANCH  21  23
ENDBRANCH  20  21
ENDBRANCH  14   4
ENDBRANCH   8  14
BRANCH  10  15
ATOM     15  C   UNL     1      -0.927  -0.484  25.101  0.00  0.00    +0.103 C 
BRANCH  15  19
ATOM      1  O   UNL     1       0.258   1.561  24.584  0.00  0.00    -0.276 OA
ATOM      5  N   UNL     1       0.726  -0.370  23.379  0.00  0.00    -0.310 N 
ATOM     19  C   UNL     1       0.070   0.370  24.351  0.00  0.00    +0.214 C 
ATOM     31  H   UNL     1       0.510  -1.357  23.276  0.00  0.00    +0.149 HD
BRANCH   5  22
ATOM     22  C   UNL     1       1.734   0.190  22.507  0.00  0.00    +0.159 C 
BRANCH  22  24
ATOM      6  N   UNL     1       3.370  -1.298  23.510  0.00  0.00    -0.258 NA
ATOM     24  C   UNL     1       3.122  -0.064  23.017  0.00  0.00    +0.058 A 
ATOM     25  C   UNL     1       4.062   0.953  22.960  0.00  0.00    +0.025 A 
ATOM     26  C   UNL     1       5.339   0.685  23.440  0.00  0.00    +0.003 A 
ATOM     28  C   UNL     1       4.623  -1.520  23.968  0.00  0.00    +0.111 A 
ATOM     29  C   UNL     1       5.634  -0.573  23.955  0.00  0.00    +0.020 A 
ENDBRANCH  22  24
ENDBRANCH   5  22
ENDBRANCH  15  19
ENDBRANCH  10  15
TORSDOF 10
ENDMDL
MODEL 3
REMARK VINA RESULT:      -4.9      1.634      3.340
REMARK  Name = 38028297
REMARK  14 active torsions:
REMARK  status: ('A' for Active; 'I' for Inactive)
REMARK    1  A    between atoms: O_3  and  C_23
REMARK    2  A    between atoms: O_3  and  C_27
REMARK    3  A    between atoms: N_4  and  C_14
REMARK    4  A    between atoms: N_5  and  C_22
REMARK    5  A    between atoms: C_7  and  C_11
REMARK    6  A    between atoms: C_8  and  C_14
REMARK    7  A    between atoms: C_10  and  C_15
REMARK    8  A    between atoms: C_11  and  C_16
REMARK    9  A    between atoms: C_11  and  C_17
REMARK   10  A    between atoms: C_12  and  C_18
REMARK   11  A    between atoms: C_15  and  C_19
REMARK   12  A    between atoms: C_20  and  C_21
REMARK   13  A    between atoms: C_21  and  C_23
REMARK   14  A    between atoms: C_22  and  C_24
REMARK                            x       y       z     vdW  Elec       q    Type
REMARK                         _______ _______ _______ _____ _____    ______ ____
ROOT
ATOM      7  C   UNL     1      -3.388  -0.848  24.999  0.00  0.00    +0.000 C 
ATOM      8  C   UNL     1      -2.175  -0.112  24.380  0.00  0.00    +0.032 C 
ATOM      9  C   UNL     1      -4.653  -0.593  24.164  0.00  0.00    +0.012 C 
ATOM     10  C   UNL     1      -4.991   0.905  24.063  0.00  0.00    +0.023 C 
ATOM     12  C   UNL     1      -3.773   1.736  23.716  0.00  0.00    -0.073 C 
ATOM     13  C   UNL     1      -2.522   1.259  23.851  0.00  0.00    -0.022 C 
ATOM     18  C   UNL     1      -4.024   3.112  23.165  0.00  0.00    +0.039 C 
ENDROOT
BRANCH   7  11
ATOM     11  C   UNL     1      -3.140  -2.356  25.117  0.00  0.00    -0.013 C 
ATOM     16  C   UNL     1      -4.072  -3.123  24.184  0.00  0.00    +0.007 C 
ATOM     17  C   UNL     1      -1.681  -2.681  24.810  0.00  0.00    +0.007 C 
ENDBRANCH   7  11
BRANCH   8  14
ATOM     14  C   UNL     1      -1.025   0.005  25.388  0.00  0.00    +0.112 C 
BRANCH  14   4
ATOM      2  O   UNL     1       0.449  -0.754  23.026  0.00  0.00    -0.276 OA
ATOM      4  N   UNL     1       0.088   0.691  24.811  0.00  0.00    -0.315 N 
ATOM     20  C   UNL     1       0.748   0.253  23.661  0.00  0.00    +0.215 C 
ATOM     30  H   UNL     1       0.381   1.566  25.236  0.00  0.00    +0.149 HD
BRANCH  20  21
ATOM     21  C   UNL     1       1.891   1.177  23.272  0.00  0.00    +0.124 C 
BRANCH  21  23
ATOM     23  C   UNL     1       3.091   0.430  22.708  0.00  0.00    +0.168 C 
BRANCH  23   3
ATOM      3  O   UNL     1       4.288   1.052  23.157  0.00  0.00    -0.382 OA
ATOM     27  C   UNL     1       5.285   0.091  23.480  0.00  0.00    +0.194 C 
ENDBRANCH  23   3
ENDBRANCH  21  23
ENDBRANCH  20  21
ENDBRANCH  14   4
ENDBRANCH   8  14
BRANCH  10  15
ATOM     15  C   UNL     1      -5.651   1.412  25.351  0.00  0.00    +0.103 C 
BRANCH  15  19
ATOM      1  O   UNL     1      -5.850   3.820  25.452  0.00  0.00    -0.276 OA
ATOM      5  N   UNL     1      -3.974   2.788  26.353  0.00  0.00    -0.310 N 
ATOM     19  C   UNL     1      -5.202   2.810  25.709  0.00  0.00    +0.214 C 
ATOM     31  H   UNL     1      -3.523   1.896  26.535  0.00  0.00    +0.149 HD
BRANCH   5  22
ATOM     22  C   UNL     1      -3.300   3.983  26.809  0.00  0.00    +0.159 C 
BRANCH  22  24
ATOM      6  N   UNL     1      -1.127   3.415  25.885  0.00  0.00    -0.258 NA
ATOM     24  C   UNL     1      -2.123   4.328  25.945  0.00  0.00    +0.058 A 
ATOM     25  C   UNL     1      -2.110   5.536  25.266  0.00  0.00    +0.025 A 
ATOM     26  C   UNL     1      -1.005   5.825  24.474  0.00  0.00    +0.003 A 
ATOM     28  C   UNL     1      -0.069   3.732  25.105  0.00  0.00    +0.111 A 
ATOM     29  C   UNL     1       0.040   4.911  24.386  0.00  0.00    +0.020 A 
ENDBRANCH  22  24
ENDBRANCH   5  22
ENDBRANCH  15  19
ENDBRANCH  10  15
TORSDOF 10
ENDMDL
MODEL 4
REMARK VINA RESULT:      -4.4      1.656      7.513
REMARK  Name = 38028297
REMARK  14 active torsions:
REMARK  status: ('A' for Active; 'I' for Inactive)
REMARK    1  A    between atoms: O_3  and  C_23
REMARK    2  A    between atoms: O_3  and  C_27
REMARK    3  A    between atoms: N_4  and  C_14
REMARK    4  A    between atoms: N_5  and  C_22
REMARK    5  A    between atoms: C_7  and  C_11
REMARK    6  A    between atoms: C_8  and  C_14
REMARK    7  A    between atoms: C_10  and  C_15
REMARK    8  A    between atoms: C_11  and  C_16
REMARK    9  A    between atoms: C_11  and  C_17
REMARK   10  A    between atoms: C_12  and  C_18
REMARK   11  A    between atoms: C_15  and  C_19
REMARK   12  A    between atoms: C_20  and  C_21
REMARK   13  A    between atoms: C_21  and  C_23
REMARK   14  A    between atoms: C_22  and  C_24
REMARK                            x       y       z     vdW  Elec       q    Type
REMARK                         _______ _______ _______ _____ _____    ______ ____
ROOT
ATOM      7  C   UNL     1      -2.880  -1.189  24.555  0.00  0.00    +0.000 C 
ATOM      8  C   UNL     1      -3.450  -0.244  25.640  0.00  0.00    +0.032 C 
ATOM      9  C   UNL     1      -1.378  -1.425  24.784  0.00  0.00    +0.012 C 
ATOM     10  C   UNL     1      -0.573  -0.112  24.761  0.00  0.00    +0.023 C 
ATOM     12  C   UNL     1      -1.225   0.964  25.604  0.00  0.00    -0.073 C 
ATOM     13  C   UNL     1      -2.508   0.881  25.999  0.00  0.00    -0.022 C 
ATOM     18  C   UNL     1      -0.356   2.117  26.022  0.00  0.00    +0.039 C 
ENDROOT
BRANCH   7  11
ATOM     11  C   UNL     1      -3.616  -2.532  24.525  0.00  0.00    -0.013 C 
ATOM     16  C   UNL     1      -4.733  -2.504  23.486  0.00  0.00    +0.007 C 
ATOM     17  C   UNL     1      -2.640  -3.668  24.240  0.00  0.00    +0.007 C 
ENDBRANCH   7  11
BRANCH   8  14
ATOM     14  C   UNL     1      -4.802   0.339  25.212  0.00  0.00    +0.112 C 
BRANCH  14   4
ATOM      2  O   UNL     1      -6.216   2.423  26.622  0.00  0.00    -0.276 OA
ATOM      4  N   UNL     1      -4.701   1.748  24.993  0.00  0.00    -0.315 N 
ATOM     20  C   UNL     1      -5.425   2.693  25.723  0.00  0.00    +0.215 C 
ATOM     30  H   UNL     1      -4.033   2.076  24.302  0.00  0.00    +0.149 HD
BRANCH  20  21
ATOM     21  C   UNL     1      -5.118   4.115  25.279  0.00  0.00    +0.124 C 
BRANCH  21  23
ATOM     23  C   UNL     1      -3.751   4.248  24.624  0.00  0.00    +0.168 C 
BRANCH  23   3
ATOM      3  O   UNL     1      -2.757   4.389  25.631  0.00  0.00    -0.382 OA
ATOM     27  C   UNL     1      -1.604   5.057  25.135  0.00  0.00    +0.194 C 
ENDBRANCH  23   3
ENDBRANCH  21  23
ENDBRANCH  20  21
ENDBRANCH  14   4
ENDBRANCH   8  14
BRANCH  10  15
ATOM     15  C   UNL     1      -0.351   0.375  23.324  0.00  0.00    +0.103 C 
BRANCH  15  19
ATOM      1  O   UNL     1       1.699   1.600  23.712  0.00  0.00    -0.276 OA
ATOM      5  N   UNL     1       1.616   0.012  22.017  0.00  0.00    -0.310 N 
ATOM     19  C   UNL     1       1.090   0.750  23.067  0.00  0.00    +0.214 C 
ATOM     31  H   UNL     1       1.035  -0.681  21.556  0.00  0.00    +0.149 HD
BRANCH   5  22
ATOM     22  C   UNL     1       2.976   0.163  21.549  0.00  0.00    +0.159 C 
BRANCH  22  24
ATOM      6  N   UNL     1       3.947  -1.350  23.183  0.00  0.00    -0.258 NA
ATOM     24  C   UNL     1       3.977  -0.115  22.633  0.00  0.00    +0.058 A 
ATOM     25  C   UNL     1       4.863   0.881  23.010  0.00  0.00    +0.025 A 
ATOM     26  C   UNL     1       5.777   0.591  24.017  0.00  0.00    +0.003 A 
ATOM     28  C   UNL     1       4.850  -1.595  24.158  0.00  0.00    +0.111 A 
ATOM     29  C   UNL     1       5.778  -0.668  24.607  0.00  0.00    +0.020 A 
ENDBRANCH  22  24
ENDBRANCH   5  22
ENDBRANCH  15  19
ENDBRANCH  10  15
TORSDOF 10
ENDMDL
MODEL 5
REMARK VINA RESULT:      -4.2      1.672      4.700
REMARK  Name = 38028297
REMARK  14 active torsions:
REMARK  status: ('A' for Active; 'I' for Inactive)
REMARK    1  A    between atoms: O_3  and  C_23
REMARK    2  A    between atoms: O_3  and  C_27
REMARK    3  A    between atoms: N_4  and  C_14
REMARK    4  A    between atoms: N_5  and  C_22
REMARK    5  A    between atoms: C_7  and  C_11
REMARK    6  A    between atoms: C_8  and  C_14
REMARK    7  A    between atoms: C_10  and  C_15
REMARK    8  A    between atoms: C_11  and  C_16
REMARK    9  A    between atoms: C_11  and  C_17
REMARK   10  A    between atoms: C_12  and  C_18
REMARK   11  A    between atoms: C_15  and  C_19
REMARK   12  A    between atoms: C_20  and  C_21
REMARK   13  A    between atoms: C_21  and  C_23
REMARK   14  A    between atoms: C_22  and  C_24
REMARK                            x       y       z     vdW  Elec       q    Type
REMARK                         _______ _______ _______ _____ _____    ______ ____
ROOT
ATOM      7  C   UNL     1      -2.242   2.122  23.654  0.00  0.00    +0.000 C 
ATOM      8  C   UNL     1      -0.869   2.796  23.894  0.00  0.00    +0.032 C 
ATOM      9  C   UNL     1      -3.313   3.182  23.351  0.00  0.00    +0.012 C 
ATOM     10  C   UNL     1      -3.463   4.201  24.495  0.00  0.00    +0.023 C 
ATOM     12  C   UNL     1      -2.121   4.714  24.972  0.00  0.00    -0.073 C 
ATOM     13  C   UNL     1      -0.970   4.080  24.682  0.00  0.00    -0.022 C 
ATOM     18  C   UNL     1      -2.124   5.999  25.752  0.00  0.00    +0.039 C 
ENDROOT
BRANCH   7  11
ATOM     11  C   UNL     1      -2.184   1.102  22.511  0.00  0.00    -0.013 C 
ATOM     16  C   UNL     1      -3.317   0.090  22.643  0.00  0.00    +0.007 C 
ATOM     17  C   UNL     1      -2.246   1.811  21.162  0.00  0.00    +0.007 C 
ENDBRANCH   7  11
BRANCH   8  14
ATOM     14  C   UNL     1       0.101   1.839  24.599  0.00  0.00    +0.112 C 
BRANCH  14   4
ATOM      2  O   UNL     1       0.576  -0.615  23.156  0.00  0.00    -0.276 OA
ATOM      4  N   UNL     1       1.216   1.538  23.757  0.00  0.00    -0.315 N 
ATOM     20  C   UNL     1       1.371   0.319  23.093  0.00  0.00    +0.215 C 
ATOM     30  H   UNL     1       1.906   2.267  23.601  0.00  0.00    +0.149 HD
BRANCH  20  21
ATOM     21  C   UNL     1       2.647   0.277  22.268  0.00  0.00    +0.124 C 
BRANCH  21  23
ATOM     23  C   UNL     1       3.800   1.023  22.921  0.00  0.00    +0.168 C 
BRANCH  23   3
ATOM      3  O   UNL     1       4.991   0.256  22.796  0.00  0.00    -0.382 OA
ATOM     27  C   UNL     1       5.417  -0.253  24.053  0.00  0.00    +0.194 C 
ENDBRANCH  23   3
ENDBRANCH  21  23
ENDBRANCH  20  21
ENDBRANCH  14   4
ENDBRANCH   8  14
BRANCH  10  15
ATOM     15  C   UNL     1      -4.271   3.612  25.658  0.00  0.00    +0.103 C 
BRANCH  15  19
ATOM      1  O   UNL     1      -5.945   2.225  24.599  0.00  0.00    -0.276 OA
ATOM      5  N   UNL     1      -4.242   1.228  25.827  0.00  0.00    -0.310 N 
ATOM     19  C   UNL     1      -4.931   2.304  25.287  0.00  0.00    +0.214 C 
ATOM     31  H   UNL     1      -3.402   1.399  26.370  0.00  0.00    +0.149 HD
BRANCH   5  22
ATOM     22  C   UNL     1      -4.649  -0.146  25.636  0.00  0.00    +0.159 C 
BRANCH  22  24
ATOM      6  N   UNL     1      -2.276  -0.621  25.837  0.00  0.00    -0.258 NA
ATOM     24  C   UNL     1      -3.477  -1.049  25.387  0.00  0.00    +0.058 A 
ATOM     25  C   UNL     1      -3.675  -2.249  24.723  0.00  0.00    +0.025 A 
ATOM     26  C   UNL     1      -2.568  -3.063  24.508  0.00  0.00    +0.003 A 
ATOM     28  C   UNL     1      -1.224  -1.439  25.609  0.00  0.00    +0.111 A 
ATOM     29  C   UNL     1      -1.315  -2.658  24.957  0.00  0.00    +0.020 A 
ENDBRANCH  22  24
ENDBRANCH   5  22
ENDBRANCH  15  19
ENDBRANCH  10  15
TORSDOF 10
ENDMDL
MODEL 6
REMARK VINA RESULT:      -3.7      1.973      6.797
REMARK  Name = 38028297
REMARK  14 active torsions:
REMARK  status: ('A' for Active; 'I' for Inactive)
REMARK    1  A    between atoms: O_3  and  C_23
REMARK    2  A    between atoms: O_3  and  C_27
REMARK    3  A    between atoms: N_4  and  C_14
REMARK    4  A    between atoms: N_5  and  C_22
REMARK    5  A    between atoms: C_7  and  C_11
REMARK    6  A    between atoms: C_8  and  C_14
REMARK    7  A    between atoms: C_10  and  C_15
REMARK    8  A    between atoms: C_11  and  C_16
REMARK    9  A    between atoms: C_11  and  C_17
REMARK   10  A    between atoms: C_12  and  C_18
REMARK   11  A    between atoms: C_15  and  C_19
REMARK   12  A    between atoms: C_20  and  C_21
REMARK   13  A    between atoms: C_21  and  C_23
REMARK   14  A    between atoms: C_22  and  C_24
REMARK                            x       y       z     vdW  Elec       q    Type
REMARK                         _______ _______ _______ _____ _____    ______ ____
ROOT
ATOM      7  C   UNL     1      -3.338   2.590  25.379  0.00  0.00    +0.000 C 
ATOM      8  C   UNL     1      -4.314   2.072  24.294  0.00  0.00    +0.032 C 
ATOM      9  C   UNL     1      -2.206   3.406  24.735  0.00  0.00    +0.012 C 
ATOM     10  C   UNL     1      -1.405   2.582  23.710  0.00  0.00    +0.023 C 
ATOM     12  C   UNL     1      -2.313   1.822  22.765  0.00  0.00    -0.073 C 
ATOM     13  C   UNL     1      -3.614   1.615  23.037  0.00  0.00    -0.022 C 
ATOM     18  C   UNL     1      -1.702   1.342  21.477  0.00  0.00    +0.039 C 
ENDROOT
BRANCH   7  11
ATOM     11  C   UNL     1      -4.056   3.441  26.431  0.00  0.00    -0.013 C 
ATOM     16  C   UNL     1      -3.169   4.600  26.874  0.00  0.00    +0.007 C 
ATOM     17  C   UNL     1      -5.384   3.955  25.885  0.00  0.00    +0.007 C 
ENDBRANCH   7  11
BRANCH   8  14
ATOM     14  C   UNL     1      -5.187   0.933  24.835  0.00  0.00    +0.112 C 
BRANCH  14   4
ATOM      2  O   UNL     1      -3.580  -1.007  26.244  0.00  0.00    -0.276 OA
ATOM      4  N   UNL     1      -4.735  -0.331  24.343  0.00  0.00    -0.315 N 
ATOM     20  C   UNL     1      -3.956  -1.214  25.093  0.00  0.00    +0.215 C 
ATOM     30  H   UNL     1      -5.036  -0.616  23.415  0.00  0.00    +0.149 HD
BRANCH  20  21
ATOM     21  C   UNL     1      -3.624  -2.480  24.320  0.00  0.00    +0.124 C 
BRANCH  21  23
ATOM     23  C   UNL     1      -2.176  -2.916  24.492  0.00  0.00    +0.168 C 
BRANCH  23   3
ATOM      3  O   UNL     1      -1.322  -1.791  24.331  0.00  0.00    -0.382 OA
ATOM     27  C   UNL     1      -0.317  -1.752  25.336  0.00  0.00    +0.194 C 
ENDBRANCH  23   3
ENDBRANCH  21  23
ENDBRANCH  20  21
ENDBRANCH  14   4
ENDBRANCH   8  14
BRANCH  10  15
ATOM     15  C   UNL     1      -0.423   1.635  24.409  0.00  0.00    +0.103 C 
BRANCH  15  19
ATOM      1  O   UNL     1       1.760   2.261  23.574  0.00  0.00    -0.276 OA
ATOM      5  N   UNL     1       0.829   0.230  22.934  0.00  0.00    -0.310 N 
ATOM     19  C   UNL     1       0.846   1.441  23.610  0.00  0.00    +0.214 C 
ATOM     31  H   UNL     1       0.030  -0.388  23.042  0.00  0.00    +0.149 HD
BRANCH   5  22
ATOM     22  C   UNL     1       1.913  -0.218  22.090  0.00  0.00    +0.159 C 
BRANCH  22  24
ATOM      6  N   UNL     1       3.507  -1.417  23.476  0.00  0.00    -0.258 NA
ATOM     24  C   UNL     1       3.218  -0.265  22.829  0.00  0.00    +0.058 A 
ATOM     25  C   UNL     1       4.047   0.846  22.814  0.00  0.00    +0.025 A 
ATOM     26  C   UNL     1       5.249   0.769  23.508  0.00  0.00    +0.003 A 
ATOM     28  C   UNL     1       4.684  -1.453  24.139  0.00  0.00    +0.111 A 
ATOM     29  C   UNL     1       5.582  -0.399  24.186  0.00  0.00    +0.020 A 
ENDBRANCH  22  24
ENDBRANCH   5  22
ENDBRANCH  15  19
ENDBRANCH  10  15
TORSDOF 10
ENDMDL
MODEL 7
REMARK VINA RESULT:      -3.1     16.353     18.917
REMARK  Name = 38028297
REMARK  14 active torsions:
REMARK  status: ('A' for Active; 'I' for Inactive)
REMARK    1  A    between atoms: O_3  and  C_23
REMARK    2  A    between atoms: O_3  and  C_27
REMARK    3  A    between atoms: N_4  and  C_14
REMARK    4  A    between atoms: N_5  and  C_22
REMARK    5  A    between atoms: C_7  and  C_11
REMARK    6  A    between atoms: C_8  and  C_14
REMARK    7  A    between atoms: C_10  and  C_15
REMARK    8  A    between atoms: C_11  and  C_16
REMARK    9  A    between atoms: C_11  and  C_17
REMARK   10  A    between atoms: C_12  and  C_18
REMARK   11  A    between atoms: C_15  and  C_19
REMARK   12  A    between atoms: C_20  and  C_21
REMARK   13  A    between atoms: C_21  and  C_23
REMARK   14  A    between atoms: C_22  and  C_24
REMARK                            x       y       z     vdW  Elec       q    Type
REMARK                         _______ _______ _______ _____ _____    ______ ____
ROOT
ATOM      7  C   UNL     1      16.635  -6.048  28.664  0.00  0.00    +0.000 C 
ATOM      8  C   UNL     1      17.405  -5.540  27.420  0.00  0.00    +0.032 C 
ATOM      9  C   UNL     1      16.868  -7.554  28.860  0.00  0.00    +0.012 C 
ATOM     10  C   UNL     1      16.418  -8.376  27.638  0.00  0.00    +0.023 C 
ATOM     12  C   UNL     1      16.920  -7.778  26.340  0.00  0.00    -0.073 C 
ATOM     13  C   UNL     1      17.370  -6.512  26.265  0.00  0.00    -0.022 C 
ATOM     18  C   UNL     1      16.937  -8.681  25.138  0.00  0.00    +0.039 C 
ENDROOT
BRANCH   7  11
ATOM     11  C   UNL     1      17.041  -5.291  29.933  0.00  0.00    -0.013 C 
ATOM     16  C   UNL     1      16.015  -4.211  30.260  0.00  0.00    +0.007 C 
ATOM     17  C   UNL     1      17.200  -6.258  31.101  0.00  0.00    +0.007 C 
ENDBRANCH   7  11
BRANCH   8  14
ATOM     14  C   UNL     1      16.872  -4.178  26.958  0.00  0.00    +0.112 C 
BRANCH  14   4
ATOM      2  O   UNL     1      16.616  -1.717  25.472  0.00  0.00    -0.276 OA
ATOM      4  N   UNL     1      17.115  -3.986  25.562  0.00  0.00    -0.315 N 
ATOM     20  C   UNL     1      16.966  -2.755  24.919  0.00  0.00    +0.215 C 
ATOM     30  H   UNL     1      17.457  -4.777  25.025  0.00  0.00    +0.149 HD
BRANCH  20  21
ATOM     21  C   UNL     1      17.294  -2.843  23.436  0.00  0.00    +0.124 C 
BRANCH  21  23
ATOM     23  C   UNL     1      16.205  -2.251  22.553  0.00  0.00    +0.168 C 
BRANCH  23   3
ATOM      3  O   UNL     1      14.979  -2.929  22.797  0.00  0.00    -0.382 OA
ATOM     27  C   UNL     1      14.013  -2.635  21.796  0.00  0.00    +0.194 C 
ENDBRANCH  23   3
ENDBRANCH  21  23
ENDBRANCH  20  21
ENDBRANCH  14   4
ENDBRANCH   8  14
BRANCH  10  15
ATOM     15  C   UNL     1      14.894  -8.541  27.613  0.00  0.00    +0.103 C 
BRANCH  15  19
ATOM      1  O   UNL     1      14.238 -10.424  28.983  0.00  0.00    -0.276 OA
ATOM      5  N   UNL     1      14.075  -8.271  29.842  0.00  0.00    -0.310 N 
ATOM     19  C   UNL     1      14.374  -9.209  28.865  0.00  0.00    +0.214 C 
ATOM     31  H   UNL     1      14.238  -7.287  29.652  0.00  0.00    +0.149 HD
BRANCH   5  22
ATOM     22  C   UNL     1      13.557  -8.625  31.144  0.00  0.00    +0.159 C 
BRANCH  22  24
ATOM      6  N   UNL     1      11.574  -7.896  32.342  0.00  0.00    -0.258 NA
ATOM     24  C   UNL     1      12.724  -7.525  31.736  0.00  0.00    +0.058 A 
ATOM     25  C   UNL     1      13.161  -6.214  31.635  0.00  0.00    +0.025 A 
ATOM     26  C   UNL     1      12.367  -5.220  32.194  0.00  0.00    +0.003 A 
ATOM     28  C   UNL     1      10.828  -6.901  32.873  0.00  0.00    +0.111 A 
ATOM     29  C   UNL     1      11.176  -5.560  32.827  0.00  0.00    +0.020 A 
ENDBRANCH  22  24
ENDBRANCH   5  22
ENDBRANCH  15  19
ENDBRANCH  10  15
TORSDOF 10
ENDMDL
MODEL 8
REMARK VINA RESULT:      -3.1     16.453     18.776
REMARK  Name = 38028297
REMARK  14 active torsions:
REMARK  status: ('A' for Active; 'I' for Inactive)
REMARK    1  A    between atoms: O_3  and  C_23
REMARK    2  A    between atoms: O_3  and  C_27
REMARK    3  A    between atoms: N_4  and  C_14
REMARK    4  A    between atoms: N_5  and  C_22
REMARK    5  A    between atoms: C_7  and  C_11
REMARK    6  A    between atoms: C_8  and  C_14
REMARK    7  A    between atoms: C_10  and  C_15
REMARK    8  A    between atoms: C_11  and  C_16
REMARK    9  A    between atoms: C_11  and  C_17
REMARK   10  A    between atoms: C_12  and  C_18
REMARK   11  A    between atoms: C_15  and  C_19
REMARK   12  A    between atoms: C_20  and  C_21
REMARK   13  A    between atoms: C_21  and  C_23
REMARK   14  A    between atoms: C_22  and  C_24
REMARK                            x       y       z     vdW  Elec       q    Type
REMARK                         _______ _______ _______ _____ _____    ______ ____
ROOT
ATOM      7  C   UNL     1      16.659  -4.048  30.330  0.00  0.00    +0.000 C 
ATOM      8  C   UNL     1      17.377  -3.651  29.017  0.00  0.00    +0.032 C 
ATOM      9  C   UNL     1      16.864  -5.543  30.621  0.00  0.00    +0.012 C 
ATOM     10  C   UNL     1      16.331  -6.435  29.485  0.00  0.00    +0.023 C 
ATOM     12  C   UNL     1      16.780  -5.944  28.125  0.00  0.00    -0.073 C 
ATOM     13  C   UNL     1      17.258  -4.700  27.937  0.00  0.00    -0.022 C 
ATOM     18  C   UNL     1      16.712  -6.929  26.991  0.00  0.00    +0.039 C 
ENDROOT
BRANCH   7  11
ATOM     11  C   UNL     1      17.150  -3.216  31.520  0.00  0.00    -0.013 C 
ATOM     16  C   UNL     1      16.351  -1.921  31.629  0.00  0.00    +0.007 C 
ATOM     17  C   UNL     1      17.050  -4.024  32.810  0.00  0.00    +0.007 C 
ENDBRANCH   7  11
BRANCH   8  14
ATOM     14  C   UNL     1      16.855  -2.310  28.485  0.00  0.00    +0.112 C 
BRANCH  14   4
ATOM      2  O   UNL     1      15.366  -1.514  26.145  0.00  0.00    -0.276 OA
ATOM      4  N   UNL     1      17.378  -2.043  27.182  0.00  0.00    -0.315 N 
ATOM     20  C   UNL     1      16.583  -1.662  26.099  0.00  0.00    +0.215 C 
ATOM     30  H   UNL     1      18.384  -2.090  27.053  0.00  0.00    +0.149 HD
BRANCH  20  21
ATOM     21  C   UNL     1      17.405  -1.442  24.838  0.00  0.00    +0.124 C 
BRANCH  21  23
ATOM     23  C   UNL     1      17.166  -2.511  23.782  0.00  0.00    +0.168 C 
BRANCH  23   3
ATOM      3  O   UNL     1      16.711  -3.703  24.411  0.00  0.00    -0.382 OA
ATOM     27  C   UNL     1      17.179  -4.861  23.733  0.00  0.00    +0.194 C 
ENDBRANCH  23   3
ENDBRANCH  21  23
ENDBRANCH  20  21
ENDBRANCH  14   4
ENDBRANCH   8  14
BRANCH  10  15
ATOM     15  C   UNL     1      14.804  -6.557  29.548  0.00  0.00    +0.103 C 
BRANCH  15  19
ATOM      1  O   UNL     1      14.877  -7.729  31.663  0.00  0.00    -0.276 OA
ATOM      5  N   UNL     1      13.171  -6.204  31.257  0.00  0.00    -0.310 N 
ATOM     19  C   UNL     1      14.318  -6.914  30.934  0.00  0.00    +0.214 C 
ATOM     31  H   UNL     1      12.794  -5.539  30.589  0.00  0.00    +0.149 HD
BRANCH   5  22
ATOM     22  C   UNL     1      12.485  -6.346  32.522  0.00  0.00    +0.159 C 
BRANCH  22  24
ATOM      6  N   UNL     1      11.719  -8.611  32.098  0.00  0.00    -0.258 NA
ATOM     24  C   UNL     1      11.373  -7.352  32.448  0.00  0.00    +0.058 A 
ATOM     25  C   UNL     1      10.078  -6.953  32.736  0.00  0.00    +0.025 A 
ATOM     26  C   UNL     1       9.072  -7.910  32.659  0.00  0.00    +0.003 A 
ATOM     28  C   UNL     1      10.713  -9.513  32.034  0.00  0.00    +0.111 A 
ATOM     29  C   UNL     1       9.386  -9.217  32.302  0.00  0.00    +0.020 A 
ENDBRANCH  22  24
ENDBRANCH   5  22
ENDBRANCH  15  19
ENDBRANCH  10  15
TORSDOF 10
ENDMDL
MODEL 9
REMARK VINA RESULT:      -2.7      2.505      5.523
REMARK  Name = 38028297
REMARK  14 active torsions:
REMARK  status: ('A' for Active; 'I' for Inactive)
REMARK    1  A    between atoms: O_3  and  C_23
REMARK    2  A    between atoms: O_3  and  C_27
REMARK    3  A    between atoms: N_4  and  C_14
REMARK    4  A    between atoms: N_5  and  C_22
REMARK    5  A    between atoms: C_7  and  C_11
REMARK    6  A    between atoms: C_8  and  C_14
REMARK    7  A    between atoms: C_10  and  C_15
REMARK    8  A    between atoms: C_11  and  C_16
REMARK    9  A    between atoms: C_11  and  C_17
REMARK   10  A    between atoms: C_12  and  C_18
REMARK   11  A    between atoms: C_15  and  C_19
REMARK   12  A    between atoms: C_20  and  C_21
REMARK   13  A    between atoms: C_21  and  C_23
REMARK   14  A    between atoms: C_22  and  C_24
REMARK                            x       y       z     vdW  Elec       q    Type
REMARK                         _______ _______ _______ _____ _____    ______ ____
ROOT
ATOM      7  C   UNL     1      -3.542   2.361  24.167  0.00  0.00    +0.000 C 
ATOM      8  C   UNL     1      -4.212   3.503  24.968  0.00  0.00    +0.032 C 
ATOM      9  C   UNL     1      -4.573   1.278  23.813  0.00  0.00    +0.012 C 
ATOM     10  C   UNL     1      -5.234   0.673  25.065  0.00  0.00    +0.023 C 
ATOM     12  C   UNL     1      -5.685   1.743  26.037  0.00  0.00    -0.073 C 
ATOM     13  C   UNL     1      -5.227   3.007  25.970  0.00  0.00    -0.022 C 
ATOM     18  C   UNL     1      -6.709   1.341  27.062  0.00  0.00    +0.039 C 
ENDROOT
BRANCH   7  11
ATOM     11  C   UNL     1      -2.874   2.878  22.888  0.00  0.00    -0.013 C 
ATOM     16  C   UNL     1      -2.372   1.713  22.041  0.00  0.00    +0.007 C 
ATOM     17  C   UNL     1      -3.846   3.744  22.093  0.00  0.00    +0.007 C 
ENDBRANCH   7  11
BRANCH   8  14
ATOM     14  C   UNL     1      -3.166   4.364  25.685  0.00  0.00    +0.112 C 
BRANCH  14   4
ATOM      2  O   UNL     1      -0.432   4.815  24.876  0.00  0.00    -0.276 OA
ATOM      4  N   UNL     1      -2.023   3.582  26.040  0.00  0.00    -0.315 N 
ATOM     20  C   UNL     1      -0.729   3.871  25.602  0.00  0.00    +0.215 C 
ATOM     30  H   UNL     1      -2.157   2.806  26.680  0.00  0.00    +0.149 HD
BRANCH  20  21
ATOM     21  C   UNL     1       0.290   2.875  26.135  0.00  0.00    +0.124 C 
BRANCH  21  23
ATOM     23  C   UNL     1       0.253   2.744  27.650  0.00  0.00    +0.168 C 
BRANCH  23   3
ATOM      3  O   UNL     1       1.582   2.736  28.156  0.00  0.00    -0.382 OA
ATOM     27  C   UNL     1       1.612   2.394  29.535  0.00  0.00    +0.194 C 
ENDBRANCH  23   3
ENDBRANCH  21  23
ENDBRANCH  20  21
ENDBRANCH  14   4
ENDBRANCH   8  14
BRANCH  10  15
ATOM     15  C   UNL     1      -4.303  -0.334  25.751  0.00  0.00    +0.103 C 
BRANCH  15  19
ATOM      1  O   UNL     1      -3.987  -1.840  23.883  0.00  0.00    -0.276 OA
ATOM      5  N   UNL     1      -2.132  -0.944  24.959  0.00  0.00    -0.310 N 
ATOM     19  C   UNL     1      -3.491  -1.128  24.753  0.00  0.00    +0.214 C 
ATOM     31  H   UNL     1      -1.821  -0.320  25.697  0.00  0.00    +0.149 HD
BRANCH   5  22
ATOM     22  C   UNL     1      -1.117  -1.583  24.152  0.00  0.00    +0.159 C 
BRANCH  22  24
ATOM      6  N   UNL     1       0.968  -1.128  22.993  0.00  0.00    -0.258 NA
ATOM     24  C   UNL     1      -0.025  -0.630  23.764  0.00  0.00    +0.058 A 
ATOM     25  C   UNL     1      -0.082   0.683  24.203  0.00  0.00    +0.025 A 
ATOM     26  C   UNL     1       0.946   1.540  23.826  0.00  0.00    +0.003 A 
ATOM     28  C   UNL     1       1.949  -0.265  22.647  0.00  0.00    +0.111 A 
ATOM     29  C   UNL     1       1.985   1.065  23.032  0.00  0.00    +0.020 A 
ENDBRANCH  22  24
ENDBRANCH   5  22
ENDBRANCH  15  19
ENDBRANCH  10  15
TORSDOF 10
ENDMDL
