MODEL 1
REMARK VINA RESULT:      -5.6      0.000      0.000
REMARK  Name = 11912218
REMARK  7 active torsions:
REMARK  status: ('A' for Active; 'I' for Inactive)
REMARK    1  A    between atoms: N_4  and  C_18
REMARK    2  A    between atoms: C_5  and  C_14
REMARK    3  A    between atoms: C_6  and  C_15
REMARK    4  A    between atoms: C_7  and  C_13
REMARK    5  A    between atoms: C_14  and  C_16
REMARK    6  A    between atoms: C_15  and  C_17
REMARK    7  A    between atoms: C_18  and  C_19
REMARK                            x       y       z     vdW  Elec       q    Type
REMARK                         _______ _______ _______ _____ _____    ______ ____
ROOT
ATOM      1  O   UNL     1      -3.312   3.544  27.289  0.00  0.00    -0.275 OA
ATOM      3  N   UNL     1      -1.762   3.672  25.555  0.00  0.00    -0.301 N 
ATOM      5  C   UNL     1      -0.728   2.768  23.487  0.00  0.00    +0.010 C 
ATOM      6  C   UNL     1       0.492   2.326  24.336  0.00  0.00    +0.004 C 
ATOM      8  C   UNL     1      -1.424   3.966  24.158  0.00  0.00    +0.111 C 
ATOM     11  C   UNL     1       0.101   2.078  25.803  0.00  0.00    +0.023 C 
ATOM     12  C   UNL     1      -0.630   3.282  26.393  0.00  0.00    +0.108 C 
ATOM     13  C   UNL     1      -3.041   3.769  26.112  0.00  0.00    +0.219 C 
ENDROOT
BRANCH  13   7
ATOM      7  C   UNL     1      -4.156   4.172  25.202  0.00  0.00    +0.075 C 
ATOM      9  C   UNL     1      -4.849   3.122  24.385  0.00  0.00    +0.013 C 
ATOM     10  C   UNL     1      -5.559   3.765  25.541  0.00  0.00    +0.013 C 
ENDBRANCH  13   7
BRANCH   5  14
ATOM     14  C   UNL     1      -1.740   1.648  23.218  0.00  0.00    +0.002 C 
ATOM     16  C   UNL     1      -2.556   1.935  21.975  0.00  0.00    +0.004 C 
ENDBRANCH   5  14
BRANCH   6  15
ATOM     15  C   UNL     1       1.215   1.110  23.759  0.00  0.00    +0.099 C 
BRANCH  15  17
ATOM      2  O   UNL     1       0.012  -0.763  22.812  0.00  0.00    -0.276 OA
ATOM      4  N   UNL     1       0.043  -0.476  25.119  0.00  0.00    -0.311 N 
ATOM     17  C   UNL     1       0.365  -0.141  23.811  0.00  0.00    +0.214 C 
ATOM     25  H   UNL     1       0.380   0.099  25.884  0.00  0.00    +0.149 HD
BRANCH   4  18
ATOM     18  C   UNL     1      -0.762  -1.624  25.464  0.00  0.00    +0.139 C 
BRANCH  18  19
ATOM     19  C   UNL     1      -2.199  -1.443  25.067  0.00  0.00    -0.030 A 
ATOM     20  C   UNL     1      -2.909  -0.327  25.510  0.00  0.00    +0.005 A 
ATOM     21  C   UNL     1      -2.823  -2.388  24.254  0.00  0.00    +0.005 A 
ATOM     22  C   UNL     1      -4.244  -0.158  25.141  0.00  0.00    +0.000 A 
ATOM     23  C   UNL     1      -4.156  -2.220  23.884  0.00  0.00    +0.000 A 
ATOM     24  C   UNL     1      -4.867  -1.104  24.328  0.00  0.00    +0.000 A 
ENDBRANCH  18  19
ENDBRANCH   4  18
ENDBRANCH  15  17
ENDBRANCH   6  15
TORSDOF 6
ENDMDL
MODEL 2
REMARK VINA RESULT:      -5.0      2.539      4.972
REMARK  Name = 11912218
REMARK  7 active torsions:
REMARK  status: ('A' for Active; 'I' for Inactive)
REMARK    1  A    between atoms: N_4  and  C_18
REMARK    2  A    between atoms: C_5  and  C_14
REMARK    3  A    between atoms: C_6  and  C_15
REMARK    4  A    between atoms: C_7  and  C_13
REMARK    5  A    between atoms: C_14  and  C_16
REMARK    6  A    between atoms: C_15  and  C_17
REMARK    7  A    between atoms: C_18  and  C_19
REMARK                            x       y       z     vdW  Elec       q    Type
REMARK                         _______ _______ _______ _____ _____    ______ ____
ROOT
ATOM      1  O   UNL     1      -4.399   4.195  26.873  0.00  0.00    -0.275 OA
ATOM      3  N   UNL     1      -3.606   3.147  24.949  0.00  0.00    -0.301 N 
ATOM      5  C   UNL     1      -2.939   1.110  23.697  0.00  0.00    +0.010 C 
ATOM      6  C   UNL     1      -1.457   1.520  23.895  0.00  0.00    +0.004 C 
ATOM      8  C   UNL     1      -3.836   2.360  23.732  0.00  0.00    +0.111 C 
ATOM     11  C   UNL     1      -1.272   2.384  25.155  0.00  0.00    +0.023 C 
ATOM     12  C   UNL     1      -2.225   3.578  25.153  0.00  0.00    +0.108 C 
ATOM     13  C   UNL     1      -4.595   3.516  25.868  0.00  0.00    +0.219 C 
ENDROOT
BRANCH  13   7
ATOM      7  C   UNL     1      -5.988   3.043  25.603  0.00  0.00    +0.075 C 
ATOM      9  C   UNL     1      -6.197   1.667  25.044  0.00  0.00    +0.013 C 
ATOM     10  C   UNL     1      -6.569   1.963  26.467  0.00  0.00    +0.013 C 
ENDBRANCH  13   7
BRANCH   5  14
ATOM     14  C   UNL     1      -3.438   0.069  24.706  0.00  0.00    +0.002 C 
ATOM     16  C   UNL     1      -4.034  -1.132  24.002  0.00  0.00    +0.004 C 
ENDBRANCH   5  14
BRANCH   6  15
ATOM     15  C   UNL     1      -0.501   0.328  23.917  0.00  0.00    +0.099 C 
BRANCH  15  17
ATOM      2  O   UNL     1       1.532   1.635  23.807  0.00  0.00    -0.276 OA
ATOM      4  N   UNL     1       1.272  -0.191  22.393  0.00  0.00    -0.311 N 
ATOM     17  C   UNL     1       0.873   0.685  23.392  0.00  0.00    +0.214 C 
ATOM     25  H   UNL     1       0.660  -0.951  22.113  0.00  0.00    +0.149 HD
BRANCH   4  18
ATOM     18  C   UNL     1       2.541  -0.085  21.711  0.00  0.00    +0.139 C 
BRANCH  18  19
ATOM     19  C   UNL     1       3.700  -0.212  22.658  0.00  0.00    -0.030 A 
ATOM     20  C   UNL     1       3.911  -1.407  23.346  0.00  0.00    +0.005 A 
ATOM     21  C   UNL     1       4.567   0.864  22.848  0.00  0.00    +0.005 A 
ATOM     22  C   UNL     1       4.987  -1.525  24.225  0.00  0.00    +0.000 A 
ATOM     23  C   UNL     1       5.643   0.746  23.726  0.00  0.00    +0.000 A 
ATOM     24  C   UNL     1       5.853  -0.449  24.415  0.00  0.00    +0.000 A 
ENDBRANCH  18  19
ENDBRANCH   4  18
ENDBRANCH  15  17
ENDBRANCH   6  15
TORSDOF 6
ENDMDL
MODEL 3
REMARK VINA RESULT:      -4.7      1.410      4.862
REMARK  Name = 11912218
REMARK  7 active torsions:
REMARK  status: ('A' for Active; 'I' for Inactive)
REMARK    1  A    between atoms: N_4  and  C_18
REMARK    2  A    between atoms: C_5  and  C_14
REMARK    3  A    between atoms: C_6  and  C_15
REMARK    4  A    between atoms: C_7  and  C_13
REMARK    5  A    between atoms: C_14  and  C_16
REMARK    6  A    between atoms: C_15  and  C_17
REMARK    7  A    between atoms: C_18  and  C_19
REMARK                            x       y       z     vdW  Elec       q    Type
REMARK                         _______ _______ _______ _____ _____    ______ ____
ROOT
ATOM      1  O   UNL     1      -0.252  -0.195  22.498  0.00  0.00    -0.275 OA
ATOM      3  N   UNL     1      -0.667   1.983  23.211  0.00  0.00    -0.301 N 
ATOM      5  C   UNL     1      -1.254   3.620  24.983  0.00  0.00    +0.010 C 
ATOM      6  C   UNL     1      -2.674   3.718  24.369  0.00  0.00    +0.004 C 
ATOM      8  C   UNL     1      -0.243   3.209  23.898  0.00  0.00    +0.111 C 
ATOM     11  C   UNL     1      -3.056   2.431  23.617  0.00  0.00    +0.023 C 
ATOM     12  C   UNL     1      -1.989   2.050  22.593  0.00  0.00    +0.108 C 
ATOM     13  C   UNL     1       0.100   0.819  23.095  0.00  0.00    +0.219 C 
ENDROOT
BRANCH  13   7
ATOM      7  C   UNL     1       1.443   0.815  23.751  0.00  0.00    +0.075 C 
ATOM      9  C   UNL     1       2.472  -0.179  23.300  0.00  0.00    +0.013 C 
ATOM     10  C   UNL     1       2.637   1.275  22.970  0.00  0.00    +0.013 C 
ENDBRANCH  13   7
BRANCH   5  14
ATOM     14  C   UNL     1      -1.158   2.673  26.185  0.00  0.00    +0.002 C 
ATOM     16  C   UNL     1       0.281   2.475  26.612  0.00  0.00    +0.004 C 
ENDBRANCH   5  14
BRANCH   6  15
ATOM     15  C   UNL     1      -3.748   4.081  25.393  0.00  0.00    +0.099 C 
BRANCH  15  17
ATOM      2  O   UNL     1      -5.788   3.062  26.203  0.00  0.00    -0.276 OA
ATOM      4  N   UNL     1      -4.147   1.724  25.246  0.00  0.00    -0.311 N 
ATOM     17  C   UNL     1      -4.690   2.928  25.669  0.00  0.00    +0.214 C 
ATOM     25  H   UNL     1      -3.229   1.708  24.813  0.00  0.00    +0.149 HD
BRANCH   4  18
ATOM     18  C   UNL     1      -4.828   0.457  25.388  0.00  0.00    +0.139 C 
BRANCH  18  19
ATOM     19  C   UNL     1      -3.939  -0.701  25.036  0.00  0.00    -0.030 A 
ATOM     20  C   UNL     1      -2.639  -0.759  25.538  0.00  0.00    +0.005 A 
ATOM     21  C   UNL     1      -4.414  -1.719  24.210  0.00  0.00    +0.005 A 
ATOM     22  C   UNL     1      -1.813  -1.835  25.212  0.00  0.00    +0.000 A 
ATOM     23  C   UNL     1      -3.589  -2.795  23.884  0.00  0.00    +0.000 A 
ATOM     24  C   UNL     1      -2.288  -2.853  24.385  0.00  0.00    +0.000 A 
ENDBRANCH  18  19
ENDBRANCH   4  18
ENDBRANCH  15  17
ENDBRANCH   6  15
TORSDOF 6
ENDMDL
MODEL 4
REMARK VINA RESULT:      -4.6      1.526      2.204
REMARK  Name = 11912218
REMARK  7 active torsions:
REMARK  status: ('A' for Active; 'I' for Inactive)
REMARK    1  A    between atoms: N_4  and  C_18
REMARK    2  A    between atoms: C_5  and  C_14
REMARK    3  A    between atoms: C_6  and  C_15
REMARK    4  A    between atoms: C_7  and  C_13
REMARK    5  A    between atoms: C_14  and  C_16
REMARK    6  A    between atoms: C_15  and  C_17
REMARK    7  A    between atoms: C_18  and  C_19
REMARK                            x       y       z     vdW  Elec       q    Type
REMARK                         _______ _______ _______ _____ _____    ______ ____
ROOT
ATOM      1  O   UNL     1      -4.732   3.849  27.232  0.00  0.00    -0.275 OA
ATOM      3  N   UNL     1      -3.625   3.996  25.188  0.00  0.00    -0.301 N 
ATOM      5  C   UNL     1      -2.318   2.974  23.341  0.00  0.00    +0.010 C 
ATOM      6  C   UNL     1      -1.052   3.675  23.899  0.00  0.00    +0.004 C 
ATOM      8  C   UNL     1      -3.574   3.768  23.739  0.00  0.00    +0.111 C 
ATOM     11  C   UNL     1      -1.171   3.938  25.410  0.00  0.00    +0.023 C 
ATOM     12  C   UNL     1      -2.461   4.683  25.744  0.00  0.00    +0.108 C 
ATOM     13  C   UNL     1      -4.686   3.634  26.024  0.00  0.00    +0.219 C 
ENDROOT
BRANCH  13   7
ATOM      7  C   UNL     1      -5.846   2.933  25.393  0.00  0.00    +0.075 C 
ATOM      9  C   UNL     1      -5.699   1.495  24.991  0.00  0.00    +0.013 C 
ATOM     10  C   UNL     1      -6.559   1.862  26.165  0.00  0.00    +0.013 C 
ENDBRANCH  13   7
BRANCH   5  14
ATOM     14  C   UNL     1      -2.458   1.508  23.769  0.00  0.00    +0.002 C 
ATOM     16  C   UNL     1      -3.168   0.694  22.708  0.00  0.00    +0.004 C 
ENDBRANCH   5  14
BRANCH   6  15
ATOM     15  C   UNL     1       0.240   2.924  23.583  0.00  0.00    +0.099 C 
BRANCH  15  17
ATOM      2  O   UNL     1       0.734   1.790  25.663  0.00  0.00    -0.276 OA
ATOM      4  N   UNL     1       0.229   0.536  23.772  0.00  0.00    -0.311 N 
ATOM     17  C   UNL     1       0.432   1.715  24.474  0.00  0.00    +0.214 C 
ATOM     25  H   UNL     1      -0.019   0.571  22.788  0.00  0.00    +0.149 HD
BRANCH   4  18
ATOM     18  C   UNL     1       0.349  -0.772  24.373  0.00  0.00    +0.139 C 
BRANCH  18  19
ATOM     19  C   UNL     1      -0.986  -1.330  24.776  0.00  0.00    -0.030 A 
ATOM     20  C   UNL     1      -1.541  -2.391  24.063  0.00  0.00    +0.005 A 
ATOM     21  C   UNL     1      -1.668  -0.788  25.865  0.00  0.00    +0.005 A 
ATOM     22  C   UNL     1      -2.781  -2.911  24.437  0.00  0.00    +0.000 A 
ATOM     23  C   UNL     1      -2.907  -1.307  26.240  0.00  0.00    +0.000 A 
ATOM     24  C   UNL     1      -3.464  -2.368  25.525  0.00  0.00    +0.000 A 
ENDBRANCH  18  19
ENDBRANCH   4  18
ENDBRANCH  15  17
ENDBRANCH   6  15
TORSDOF 6
ENDMDL
MODEL 5
REMARK VINA RESULT:      -4.5      1.711      5.866
REMARK  Name = 11912218
REMARK  7 active torsions:
REMARK  status: ('A' for Active; 'I' for Inactive)
REMARK    1  A    between atoms: N_4  and  C_18
REMARK    2  A    between atoms: C_5  and  C_14
REMARK    3  A    between atoms: C_6  and  C_15
REMARK    4  A    between atoms: C_7  and  C_13
REMARK    5  A    between atoms: C_14  and  C_16
REMARK    6  A    between atoms: C_15  and  C_17
REMARK    7  A    between atoms: C_18  and  C_19
REMARK                            x       y       z     vdW  Elec       q    Type
REMARK                         _______ _______ _______ _____ _____    ______ ____
ROOT
ATOM      1  O   UNL     1      -0.421  -1.345  25.777  0.00  0.00    -0.275 OA
ATOM      3  N   UNL     1      -2.411  -0.990  24.620  0.00  0.00    -0.301 N 
ATOM      5  C   UNL     1      -4.048   0.513  23.513  0.00  0.00    +0.010 C 
ATOM      6  C   UNL     1      -4.976   0.346  24.744  0.00  0.00    +0.004 C 
ATOM      8  C   UNL     1      -3.138  -0.720  23.374  0.00  0.00    +0.111 C 
ATOM     11  C   UNL     1      -4.176   0.016  26.015  0.00  0.00    +0.023 C 
ATOM     12  C   UNL     1      -3.257  -1.184  25.796  0.00  0.00    +0.108 C 
ATOM     13  C   UNL     1      -1.021  -1.096  24.735  0.00  0.00    +0.219 C 
ENDROOT
BRANCH  13   7
ATOM      7  C   UNL     1      -0.213  -0.886  23.495  0.00  0.00    +0.075 C 
ATOM      9  C   UNL     1       0.333   0.480  23.202  0.00  0.00    +0.013 C 
ATOM     10  C   UNL     1       1.258  -0.625  23.619  0.00  0.00    +0.013 C 
ENDBRANCH  13   7
BRANCH   5  14
ATOM     14  C   UNL     1      -3.206   1.795  23.536  0.00  0.00    +0.002 C 
ATOM     16  C   UNL     1      -2.596   2.072  22.178  0.00  0.00    +0.004 C 
ENDBRANCH   5  14
BRANCH   6  15
ATOM     15  C   UNL     1      -5.885   1.552  24.978  0.00  0.00    +0.099 C 
BRANCH  15  17
ATOM      2  O   UNL     1      -5.050   3.668  24.156  0.00  0.00    -0.276 OA
ATOM      4  N   UNL     1      -4.478   2.971  26.298  0.00  0.00    -0.311 N 
ATOM     17  C   UNL     1      -5.108   2.847  25.068  0.00  0.00    +0.214 C 
ATOM     25  H   UNL     1      -4.582   2.240  26.994  0.00  0.00    +0.149 HD
BRANCH   4  18
ATOM     18  C   UNL     1      -3.665   4.109  26.657  0.00  0.00    +0.139 C 
BRANCH  18  19
ATOM     19  C   UNL     1      -2.310   4.058  26.010  0.00  0.00    -0.030 A 
ATOM     20  C   UNL     1      -1.483   2.954  26.212  0.00  0.00    +0.005 A 
ATOM     21  C   UNL     1      -1.880   5.114  25.208  0.00  0.00    +0.005 A 
ATOM     22  C   UNL     1      -0.225   2.905  25.611  0.00  0.00    +0.000 A 
ATOM     23  C   UNL     1      -0.623   5.066  24.606  0.00  0.00    +0.000 A 
ATOM     24  C   UNL     1       0.205   3.962  24.808  0.00  0.00    +0.000 A 
ENDBRANCH  18  19
ENDBRANCH   4  18
ENDBRANCH  15  17
ENDBRANCH   6  15
TORSDOF 6
ENDMDL
MODEL 6
REMARK VINA RESULT:      -3.9      1.756      3.587
REMARK  Name = 11912218
REMARK  7 active torsions:
REMARK  status: ('A' for Active; 'I' for Inactive)
REMARK    1  A    between atoms: N_4  and  C_18
REMARK    2  A    between atoms: C_5  and  C_14
REMARK    3  A    between atoms: C_6  and  C_15
REMARK    4  A    between atoms: C_7  and  C_13
REMARK    5  A    between atoms: C_14  and  C_16
REMARK    6  A    between atoms: C_15  and  C_17
REMARK    7  A    between atoms: C_18  and  C_19
REMARK                            x       y       z     vdW  Elec       q    Type
REMARK                         _______ _______ _______ _____ _____    ______ ____
ROOT
ATOM      1  O   UNL     1      -1.517   3.522  26.720  0.00  0.00    -0.275 OA
ATOM      3  N   UNL     1      -0.494   1.876  25.427  0.00  0.00    -0.301 N 
ATOM      5  C   UNL     1      -0.531   0.232  23.567  0.00  0.00    +0.010 C 
ATOM      6  C   UNL     1      -0.664  -0.899  24.620  0.00  0.00    +0.004 C 
ATOM      8  C   UNL     1       0.174   1.448  24.193  0.00  0.00    +0.111 C 
ATOM     11  C   UNL     1      -1.325  -0.392  25.914  0.00  0.00    +0.023 C 
ATOM     12  C   UNL     1      -0.609   0.844  26.455  0.00  0.00    +0.108 C 
ATOM     13  C   UNL     1      -0.979   3.165  25.675  0.00  0.00    +0.219 C 
ENDROOT
BRANCH  13   7
ATOM      7  C   UNL     1      -0.832   4.174  24.582  0.00  0.00    +0.075 C 
ATOM      9  C   UNL     1      -1.896   5.216  24.403  0.00  0.00    +0.013 C 
ATOM     10  C   UNL     1      -0.550   5.602  24.942  0.00  0.00    +0.013 C 
ENDBRANCH  13   7
BRANCH   5  14
ATOM     14  C   UNL     1      -1.864   0.656  22.937  0.00  0.00    +0.002 C 
ATOM     16  C   UNL     1      -1.722   1.965  22.188  0.00  0.00    +0.004 C 
ENDBRANCH   5  14
BRANCH   6  15
ATOM     15  C   UNL     1      -1.396  -2.131  24.090  0.00  0.00    +0.099 C 
BRANCH  15  17
ATOM      2  O   UNL     1      -3.452  -3.135  24.875  0.00  0.00    -0.276 OA
ATOM      4  N   UNL     1      -3.429  -0.882  24.301  0.00  0.00    -0.311 N 
ATOM     17  C   UNL     1      -2.861  -2.137  24.472  0.00  0.00    +0.214 C 
ATOM     25  H   UNL     1      -2.860  -0.112  23.962  0.00  0.00    +0.149 HD
BRANCH   4  18
ATOM     18  C   UNL     1      -4.816  -0.599  24.587  0.00  0.00    +0.139 C 
BRANCH  18  19
ATOM     19  C   UNL     1      -5.034   0.846  24.936  0.00  0.00    -0.030 A 
ATOM     20  C   UNL     1      -4.266   1.834  24.322  0.00  0.00    +0.005 A 
ATOM     21  C   UNL     1      -6.005   1.198  25.873  0.00  0.00    +0.005 A 
ATOM     22  C   UNL     1      -4.468   3.176  24.645  0.00  0.00    +0.000 A 
ATOM     23  C   UNL     1      -6.208   2.539  26.196  0.00  0.00    +0.000 A 
ATOM     24  C   UNL     1      -5.439   3.529  25.583  0.00  0.00    +0.000 A 
ENDBRANCH  18  19
ENDBRANCH   4  18
ENDBRANCH  15  17
ENDBRANCH   6  15
TORSDOF 6
ENDMDL
MODEL 7
REMARK VINA RESULT:      -3.9     17.117     19.695
REMARK  Name = 11912218
REMARK  7 active torsions:
REMARK  status: ('A' for Active; 'I' for Inactive)
REMARK    1  A    between atoms: N_4  and  C_18
REMARK    2  A    between atoms: C_5  and  C_14
REMARK    3  A    between atoms: C_6  and  C_15
REMARK    4  A    between atoms: C_7  and  C_13
REMARK    5  A    between atoms: C_14  and  C_16
REMARK    6  A    between atoms: C_15  and  C_17
REMARK    7  A    between atoms: C_18  and  C_19
REMARK                            x       y       z     vdW  Elec       q    Type
REMARK                         _______ _______ _______ _____ _____    ______ ____
ROOT
ATOM      1  O   UNL     1       9.656  -7.754  32.873  0.00  0.00    -0.275 OA
ATOM      3  N   UNL     1      11.566  -7.299  31.620  0.00  0.00    -0.301 N 
ATOM      5  C   UNL     1      14.033  -7.134  31.392  0.00  0.00    +0.010 C 
ATOM      6  C   UNL     1      13.898  -5.591  31.455  0.00  0.00    +0.004 C 
ATOM      8  C   UNL     1      12.731  -7.751  30.850  0.00  0.00    +0.111 C 
ATOM     11  C   UNL     1      12.637  -5.165  32.228  0.00  0.00    +0.023 C 
ATOM     12  C   UNL     1      11.390  -5.849  31.675  0.00  0.00    +0.108 C 
ATOM     13  C   UNL     1      10.643  -8.139  32.251  0.00  0.00    +0.219 C 
ENDROOT
BRANCH  13   7
ATOM      7  C   UNL     1      10.881  -9.611  32.158  0.00  0.00    +0.075 C 
ATOM      9  C   UNL     1       9.952 -10.548  32.873  0.00  0.00    +0.013 C 
ATOM     10  C   UNL     1       9.921 -10.458  31.376  0.00  0.00    +0.013 C 
ENDBRANCH  13   7
BRANCH   5  14
ATOM     14  C   UNL     1      14.413  -7.782  32.729  0.00  0.00    +0.002 C 
ATOM     16  C   UNL     1      15.452  -8.866  32.535  0.00  0.00    +0.004 C 
ENDBRANCH   5  14
BRANCH   6  15
ATOM     15  C   UNL     1      15.137  -4.902  32.025  0.00  0.00    +0.099 C 
BRANCH  15  17
ATOM      2  O   UNL     1      17.405  -5.665  31.670  0.00  0.00    -0.276 OA
ATOM      4  N   UNL     1      16.193  -4.816  29.877  0.00  0.00    -0.311 N 
ATOM     17  C   UNL     1      16.377  -5.181  31.203  0.00  0.00    +0.214 C 
ATOM     25  H   UNL     1      15.306  -4.422  29.580  0.00  0.00    +0.149 HD
BRANCH   4  18
ATOM     18  C   UNL     1      17.215  -4.969  28.867  0.00  0.00    +0.139 C 
BRANCH  18  19
ATOM     19  C   UNL     1      16.806  -5.939  27.796  0.00  0.00    -0.030 A 
ATOM     20  C   UNL     1      17.253  -5.762  26.487  0.00  0.00    +0.005 A 
ATOM     21  C   UNL     1      15.980  -7.018  28.110  0.00  0.00    +0.005 A 
ATOM     22  C   UNL     1      16.874  -6.662  25.492  0.00  0.00    +0.000 A 
ATOM     23  C   UNL     1      15.601  -7.919  27.117  0.00  0.00    +0.000 A 
ATOM     24  C   UNL     1      16.047  -7.741  25.807  0.00  0.00    +0.000 A 
ENDBRANCH  18  19
ENDBRANCH   4  18
ENDBRANCH  15  17
ENDBRANCH   6  15
TORSDOF 6
ENDMDL
MODEL 8
REMARK VINA RESULT:      -2.8      1.736      4.675
REMARK  Name = 11912218
REMARK  7 active torsions:
REMARK  status: ('A' for Active; 'I' for Inactive)
REMARK    1  A    between atoms: N_4  and  C_18
REMARK    2  A    between atoms: C_5  and  C_14
REMARK    3  A    between atoms: C_6  and  C_15
REMARK    4  A    between atoms: C_7  and  C_13
REMARK    5  A    between atoms: C_14  and  C_16
REMARK    6  A    between atoms: C_15  and  C_17
REMARK    7  A    between atoms: C_18  and  C_19
REMARK                            x       y       z     vdW  Elec       q    Type
REMARK                         _______ _______ _______ _____ _____    ______ ____
ROOT
ATOM      1  O   UNL     1       2.378   2.206  23.415  0.00  0.00    -0.275 OA
ATOM      3  N   UNL     1       0.444   1.945  24.687  0.00  0.00    -0.301 N 
ATOM      5  C   UNL     1      -2.028   1.869  24.900  0.00  0.00    +0.010 C 
ATOM      6  C   UNL     1      -1.977   3.275  25.552  0.00  0.00    +0.004 C 
ATOM      8  C   UNL     1      -0.695   1.136  25.135  0.00  0.00    +0.111 C 
ATOM     11  C   UNL     1      -0.741   4.068  25.092  0.00  0.00    +0.023 C 
ATOM     12  C   UNL     1       0.542   3.266  25.304  0.00  0.00    +0.108 C 
ATOM     13  C   UNL     1       1.414   1.532  23.767  0.00  0.00    +0.219 C 
ENDROOT
BRANCH  13   7
ATOM      7  C   UNL     1       1.257   0.170  23.172  0.00  0.00    +0.075 C 
ATOM      9  C   UNL     1       1.737  -0.074  21.772  0.00  0.00    +0.013 C 
ATOM     10  C   UNL     1       2.477  -0.668  22.934  0.00  0.00    +0.013 C 
ENDBRANCH  13   7
BRANCH   5  14
ATOM     14  C   UNL     1      -2.369   1.887  23.405  0.00  0.00    +0.002 C 
ATOM     16  C   UNL     1      -2.079   0.547  22.763  0.00  0.00    +0.004 C 
ENDBRANCH   5  14
BRANCH   6  15
ATOM     15  C   UNL     1      -3.251   4.088  25.326  0.00  0.00    +0.099 C 
BRANCH  15  17
ATOM      2  O   UNL     1      -5.634   3.684  25.431  0.00  0.00    -0.276 OA
ATOM      4  N   UNL     1      -4.174   1.878  25.325  0.00  0.00    -0.311 N 
ATOM     17  C   UNL     1      -4.495   3.227  25.367  0.00  0.00    +0.214 C 
ATOM     25  H   UNL     1      -3.201   1.592  25.272  0.00  0.00    +0.149 HD
BRANCH   4  18
ATOM     18  C   UNL     1      -5.166   0.829  25.353  0.00  0.00    +0.139 C 
BRANCH  18  19
ATOM     19  C   UNL     1      -4.566  -0.519  25.074  0.00  0.00    -0.030 A 
ATOM     20  C   UNL     1      -3.743  -1.125  26.023  0.00  0.00    +0.005 A 
ATOM     21  C   UNL     1      -4.834  -1.166  23.869  0.00  0.00    +0.005 A 
ATOM     22  C   UNL     1      -3.185  -2.377  25.765  0.00  0.00    +0.000 A 
ATOM     23  C   UNL     1      -4.278  -2.419  23.610  0.00  0.00    +0.000 A 
ATOM     24  C   UNL     1      -3.453  -3.024  24.559  0.00  0.00    +0.000 A 
ENDBRANCH  18  19
ENDBRANCH   4  18
ENDBRANCH  15  17
ENDBRANCH   6  15
TORSDOF 6
ENDMDL
MODEL 9
REMARK VINA RESULT:      -2.4      1.576      4.577
REMARK  Name = 11912218
REMARK  7 active torsions:
REMARK  status: ('A' for Active; 'I' for Inactive)
REMARK    1  A    between atoms: N_4  and  C_18
REMARK    2  A    between atoms: C_5  and  C_14
REMARK    3  A    between atoms: C_6  and  C_15
REMARK    4  A    between atoms: C_7  and  C_13
REMARK    5  A    between atoms: C_14  and  C_16
REMARK    6  A    between atoms: C_15  and  C_17
REMARK    7  A    between atoms: C_18  and  C_19
REMARK                            x       y       z     vdW  Elec       q    Type
REMARK                         _______ _______ _______ _____ _____    ______ ____
ROOT
ATOM      1  O   UNL     1       0.026   0.738  23.418  0.00  0.00    -0.275 OA
ATOM      3  N   UNL     1      -1.458   2.527  23.559  0.00  0.00    -0.301 N 
ATOM      5  C   UNL     1      -3.201   3.822  24.764  0.00  0.00    +0.010 C 
ATOM      6  C   UNL     1      -4.258   3.224  23.800  0.00  0.00    +0.004 C 
ATOM      8  C   UNL     1      -1.824   3.851  24.077  0.00  0.00    +0.111 C 
ATOM     11  C   UNL     1      -3.810   1.861  23.244  0.00  0.00    +0.023 C 
ATOM     12  C   UNL     1      -2.418   1.947  22.622  0.00  0.00    +0.108 C 
ATOM     13  C   UNL     1      -0.285   1.835  23.874  0.00  0.00    +0.219 C 
ENDROOT
BRANCH  13   7
ATOM      7  C   UNL     1       0.655   2.483  24.839  0.00  0.00    +0.075 C 
ATOM      9  C   UNL     1       0.195   3.684  25.612  0.00  0.00    +0.013 C 
ATOM     10  C   UNL     1       0.384   2.369  26.310  0.00  0.00    +0.013 C 
ENDBRANCH  13   7
BRANCH   5  14
ATOM     14  C   UNL     1      -3.107   3.098  26.113  0.00  0.00    +0.002 C 
ATOM     16  C   UNL     1      -3.309   4.059  27.265  0.00  0.00    +0.004 C 
ENDBRANCH   5  14
BRANCH   6  15
ATOM     15  C   UNL     1      -5.649   3.120  24.424  0.00  0.00    +0.099 C 
BRANCH  15  17
ATOM      2  O   UNL     1      -6.539   1.897  26.311  0.00  0.00    -0.276 OA
ATOM      4  N   UNL     1      -4.913   0.909  24.977  0.00  0.00    -0.311 N 
ATOM     17  C   UNL     1      -5.773   1.931  25.352  0.00  0.00    +0.214 C 
ATOM     25  H   UNL     1      -4.313   1.026  24.166  0.00  0.00    +0.149 HD
BRANCH   4  18
ATOM     18  C   UNL     1      -4.819  -0.345  25.688  0.00  0.00    +0.139 C 
BRANCH  18  19
ATOM     19  C   UNL     1      -3.541  -1.072  25.380  0.00  0.00    -0.030 A 
ATOM     20  C   UNL     1      -2.331  -0.597  25.884  0.00  0.00    +0.005 A 
ATOM     21  C   UNL     1      -3.565  -2.222  24.592  0.00  0.00    +0.005 A 
ATOM     22  C   UNL     1      -1.144  -1.271  25.599  0.00  0.00    +0.000 A 
ATOM     23  C   UNL     1      -2.379  -2.897  24.307  0.00  0.00    +0.000 A 
ATOM     24  C   UNL     1      -1.168  -2.421  24.810  0.00  0.00    +0.000 A 
ENDBRANCH  18  19
ENDBRANCH   4  18
ENDBRANCH  15  17
ENDBRANCH   6  15
TORSDOF 6
ENDMDL
MODEL 10
REMARK VINA RESULT:      -2.3      1.703      4.996
REMARK  Name = 11912218
REMARK  7 active torsions:
REMARK  status: ('A' for Active; 'I' for Inactive)
REMARK    1  A    between atoms: N_4  and  C_18
REMARK    2  A    between atoms: C_5  and  C_14
REMARK    3  A    between atoms: C_6  and  C_15
REMARK    4  A    between atoms: C_7  and  C_13
REMARK    5  A    between atoms: C_14  and  C_16
REMARK    6  A    between atoms: C_15  and  C_17
REMARK    7  A    between atoms: C_18  and  C_19
REMARK                            x       y       z     vdW  Elec       q    Type
REMARK                         _______ _______ _______ _____ _____    ______ ____
ROOT
ATOM      1  O   UNL     1      -1.717  -3.497  23.898  0.00  0.00    -0.275 OA
ATOM      3  N   UNL     1      -1.293  -1.432  24.888  0.00  0.00    -0.301 N 
ATOM      5  C   UNL     1      -1.298   1.051  24.836  0.00  0.00    +0.010 C 
ATOM      6  C   UNL     1       0.238   1.011  24.629  0.00  0.00    +0.004 C 
ATOM      8  C   UNL     1      -1.759  -0.220  25.572  0.00  0.00    +0.111 C 
ATOM     11  C   UNL     1       0.685  -0.297  23.954  0.00  0.00    +0.023 C 
ATOM     12  C   UNL     1       0.154  -1.517  24.703  0.00  0.00    +0.108 C 
ATOM     13  C   UNL     1      -2.116  -2.474  24.448  0.00  0.00    +0.219 C 
ENDROOT
BRANCH  13   7
ATOM      7  C   UNL     1      -3.587  -2.325  24.666  0.00  0.00    +0.075 C 
ATOM      9  C   UNL     1      -4.418  -1.660  23.609  0.00  0.00    +0.013 C 
ATOM     10  C   UNL     1      -4.534  -3.139  23.835  0.00  0.00    +0.013 C 
ENDBRANCH  13   7
BRANCH   5  14
ATOM     14  C   UNL     1      -2.098   1.233  23.539  0.00  0.00    +0.002 C 
ATOM     16  C   UNL     1      -3.587   1.140  23.798  0.00  0.00    +0.004 C 
ENDBRANCH   5  14
BRANCH   6  15
ATOM     15  C   UNL     1       0.772   2.221  23.863  0.00  0.00    +0.099 C 
BRANCH  15  17
ATOM      2  O   UNL     1      -0.376   4.211  23.105  0.00  0.00    -0.276 OA
ATOM      4  N   UNL     1      -0.575   3.555  25.326  0.00  0.00    -0.311 N 
ATOM     17  C   UNL     1      -0.114   3.438  24.023  0.00  0.00    +0.214 C 
ATOM     25  H   UNL     1      -0.306   2.866  26.021  0.00  0.00    +0.149 HD
BRANCH   4  18
ATOM     18  C   UNL     1      -1.439   4.627  25.764  0.00  0.00    +0.139 C 
BRANCH  18  19
ATOM     19  C   UNL     1      -2.892   4.275  25.613  0.00  0.00    -0.030 A 
ATOM     20  C   UNL     1      -3.570   4.603  24.440  0.00  0.00    +0.005 A 
ATOM     21  C   UNL     1      -3.561   3.619  26.645  0.00  0.00    +0.005 A 
ATOM     22  C   UNL     1      -4.919   4.277  24.299  0.00  0.00    +0.000 A 
ATOM     23  C   UNL     1      -4.909   3.291  26.506  0.00  0.00    +0.000 A 
ATOM     24  C   UNL     1      -5.588   3.620  25.332  0.00  0.00    +0.000 A 
ENDBRANCH  18  19
ENDBRANCH   4  18
ENDBRANCH  15  17
ENDBRANCH   6  15
TORSDOF 6
ENDMDL
