MODEL 1
REMARK VINA RESULT:      -4.2      0.000      0.000
REMARK  Name = 38027656
REMARK  13 active torsions:
REMARK  status: ('A' for Active; 'I' for Inactive)
REMARK    1  A    between atoms: O_3  and  C_23
REMARK    2  A    between atoms: O_3  and  C_28
REMARK    3  A    between atoms: N_4  and  C_14
REMARK    4  A    between atoms: N_5  and  C_21
REMARK    5  A    between atoms: C_7  and  C_11
REMARK    6  A    between atoms: C_8  and  C_14
REMARK    7  A    between atoms: C_10  and  C_15
REMARK    8  A    between atoms: C_11  and  C_16
REMARK    9  A    between atoms: C_11  and  C_17
REMARK   10  A    between atoms: C_12  and  C_18
REMARK   11  A    between atoms: C_15  and  C_19
REMARK   12  A    between atoms: C_20  and  C_22
REMARK   13  A    between atoms: C_21  and  C_23
REMARK                            x       y       z     vdW  Elec       q    Type
REMARK                         _______ _______ _______ _____ _____    ______ ____
ROOT
ATOM      7  C   UNL     1      -1.588   0.476  24.939  0.00  0.00    +0.000 C 
ATOM      8  C   UNL     1      -0.984  -0.852  24.418  0.00  0.00    +0.032 C 
ATOM      9  C   UNL     1      -2.748   0.194  25.906  0.00  0.00    +0.012 C 
ATOM     10  C   UNL     1      -3.872  -0.627  25.245  0.00  0.00    +0.023 C 
ATOM     12  C   UNL     1      -3.325  -1.815  24.480  0.00  0.00    -0.073 C 
ATOM     13  C   UNL     1      -2.030  -1.905  24.131  0.00  0.00    -0.022 C 
ATOM     18  C   UNL     1      -4.294  -2.920  24.164  0.00  0.00    +0.039 C 
ENDROOT
BRANCH   7  11
ATOM     11  C   UNL     1      -0.535   1.346  25.631  0.00  0.00    -0.013 C 
ATOM     16  C   UNL     1       0.168   2.241  24.614  0.00  0.00    +0.007 C 
ATOM     17  C   UNL     1      -1.178   2.183  26.733  0.00  0.00    +0.007 C 
ENDBRANCH   7  11
BRANCH   8  14
ATOM     14  C   UNL     1      -0.136  -0.619  23.162  0.00  0.00    +0.112 C 
BRANCH  14   4
ATOM      2  O   UNL     1       2.042  -0.196  21.340  0.00  0.00    -0.270 OA
ATOM      4  N   UNL     1       1.251  -0.530  23.496  0.00  0.00    -0.311 N 
ATOM     20  C   UNL     1       2.249  -0.322  22.544  0.00  0.00    +0.244 C 
ATOM     29  H   UNL     1       1.492  -0.534  24.481  0.00  0.00    +0.149 HD
BRANCH  20  22
ATOM      6  N   UNL     1       6.270  -0.197  24.006  0.00  0.00    -0.263 NA
ATOM     22  C   UNL     1       3.645  -0.279  23.049  0.00  0.00    +0.040 A 
ATOM     24  C   UNL     1       4.198  -1.395  23.665  0.00  0.00    +0.033 A 
ATOM     25  C   UNL     1       4.402   0.880  22.911  0.00  0.00    +0.033 A 
ATOM     26  C   UNL     1       5.503  -1.304  24.122  0.00  0.00    +0.111 A 
ATOM     27  C   UNL     1       5.698   0.869  23.403  0.00  0.00    +0.111 A 
ENDBRANCH  20  22
ENDBRANCH  14   4
ENDBRANCH   8  14
BRANCH  10  15
ATOM     15  C   UNL     1      -4.742   0.255  24.342  0.00  0.00    +0.103 C 
BRANCH  15  19
ATOM      1  O   UNL     1      -6.083   1.555  25.879  0.00  0.00    -0.276 OA
ATOM      5  N   UNL     1      -4.453   2.613  24.605  0.00  0.00    -0.313 N 
ATOM     19  C   UNL     1      -5.187   1.519  25.041  0.00  0.00    +0.214 C 
ATOM     30  H   UNL     1      -3.730   2.485  23.903  0.00  0.00    +0.149 HD
BRANCH   5  21
ATOM     21  C   UNL     1      -4.665   3.954  25.100  0.00  0.00    +0.132 C 
BRANCH  21  23
ATOM     23  C   UNL     1      -3.393   4.539  25.686  0.00  0.00    +0.178 C 
BRANCH  23   3
ATOM      3  O   UNL     1      -2.369   4.528  24.700  0.00  0.00    -0.381 OA
ATOM     28  C   UNL     1      -1.302   5.398  25.047  0.00  0.00    +0.194 C 
ENDBRANCH  23   3
ENDBRANCH  21  23
ENDBRANCH   5  21
ENDBRANCH  15  19
ENDBRANCH  10  15
TORSDOF 9
ENDMDL
MODEL 2
REMARK VINA RESULT:      -3.7     13.675     17.011
REMARK  Name = 38027656
REMARK  13 active torsions:
REMARK  status: ('A' for Active; 'I' for Inactive)
REMARK    1  A    between atoms: O_3  and  C_23
REMARK    2  A    between atoms: O_3  and  C_28
REMARK    3  A    between atoms: N_4  and  C_14
REMARK    4  A    between atoms: N_5  and  C_21
REMARK    5  A    between atoms: C_7  and  C_11
REMARK    6  A    between atoms: C_8  and  C_14
REMARK    7  A    between atoms: C_10  and  C_15
REMARK    8  A    between atoms: C_11  and  C_16
REMARK    9  A    between atoms: C_11  and  C_17
REMARK   10  A    between atoms: C_12  and  C_18
REMARK   11  A    between atoms: C_15  and  C_19
REMARK   12  A    between atoms: C_20  and  C_22
REMARK   13  A    between atoms: C_21  and  C_23
REMARK                            x       y       z     vdW  Elec       q    Type
REMARK                         _______ _______ _______ _____ _____    ______ ____
ROOT
ATOM      7  C   UNL     1      -4.292  -9.947  11.362  0.00  0.00    +0.000 C 
ATOM      8  C   UNL     1      -4.717 -10.584  12.708  0.00  0.00    +0.032 C 
ATOM      9  C   UNL     1      -2.924 -10.489  10.920  0.00  0.00    +0.012 C 
ATOM     10  C   UNL     1      -1.823 -10.211  11.961  0.00  0.00    +0.023 C 
ATOM     12  C   UNL     1      -2.272 -10.568  13.364  0.00  0.00    -0.073 C 
ATOM     13  C   UNL     1      -3.568 -10.744  13.676  0.00  0.00    -0.022 C 
ATOM     18  C   UNL     1      -1.192 -10.763  14.391  0.00  0.00    +0.039 C 
ENDROOT
BRANCH   7  11
ATOM     11  C   UNL     1      -5.329 -10.195  10.262  0.00  0.00    -0.013 C 
ATOM     16  C   UNL     1      -6.278  -9.006  10.147  0.00  0.00    +0.007 C 
ATOM     17  C   UNL     1      -4.636 -10.464   8.930  0.00  0.00    +0.007 C 
ENDBRANCH   7  11
BRANCH   8  14
ATOM     14  C   UNL     1      -5.837  -9.775  13.374  0.00  0.00    +0.112 C 
BRANCH  14   4
ATOM      2  O   UNL     1      -8.179  -9.819  15.035  0.00  0.00    -0.270 OA
ATOM      4  N   UNL     1      -5.881 -10.032  14.779  0.00  0.00    -0.311 N 
ATOM     20  C   UNL     1      -7.069 -10.034  15.513  0.00  0.00    +0.244 C 
ATOM     29  H   UNL     1      -5.015 -10.307  15.228  0.00  0.00    +0.149 HD
BRANCH  20  22
ATOM      6  N   UNL     1      -6.706 -10.774  19.713  0.00  0.00    -0.263 NA
ATOM     22  C   UNL     1      -6.943 -10.293  16.970  0.00  0.00    +0.040 A 
ATOM     24  C   UNL     1      -8.080 -10.372  17.765  0.00  0.00    +0.033 A 
ATOM     25  C   UNL     1      -5.686 -10.453  17.545  0.00  0.00    +0.033 A 
ATOM     26  C   UNL     1      -7.909 -10.612  19.119  0.00  0.00    +0.111 A 
ATOM     27  C   UNL     1      -5.624 -10.690  18.909  0.00  0.00    +0.111 A 
ENDBRANCH  20  22
ENDBRANCH  14   4
ENDBRANCH   8  14
BRANCH  10  15
ATOM     15  C   UNL     1      -1.351  -8.755  11.890  0.00  0.00    +0.103 C 
BRANCH  15  19
ATOM      1  O   UNL     1       0.511  -9.272  10.434  0.00  0.00    -0.276 OA
ATOM      5  N   UNL     1       0.800  -7.747  12.164  0.00  0.00    -0.313 N 
ATOM     19  C   UNL     1       0.073  -8.643  11.393  0.00  0.00    +0.214 C 
ATOM     30  H   UNL     1       0.350  -7.275  12.942  0.00  0.00    +0.149 HD
BRANCH   5  21
ATOM     21  C   UNL     1       2.191  -7.444  11.919  0.00  0.00    +0.132 C 
BRANCH  21  23
ATOM     23  C   UNL     1       2.522  -6.009  12.289  0.00  0.00    +0.178 C 
BRANCH  23   3
ATOM      3  O   UNL     1       3.910  -5.777  12.087  0.00  0.00    -0.381 OA
ATOM     28  C   UNL     1       4.673  -6.953  12.313  0.00  0.00    +0.194 C 
ENDBRANCH  23   3
ENDBRANCH  21  23
ENDBRANCH   5  21
ENDBRANCH  15  19
ENDBRANCH  10  15
TORSDOF 9
ENDMDL
MODEL 3
REMARK VINA RESULT:      -3.1      2.256      6.602
REMARK  Name = 38027656
REMARK  13 active torsions:
REMARK  status: ('A' for Active; 'I' for Inactive)
REMARK    1  A    between atoms: O_3  and  C_23
REMARK    2  A    between atoms: O_3  and  C_28
REMARK    3  A    between atoms: N_4  and  C_14
REMARK    4  A    between atoms: N_5  and  C_21
REMARK    5  A    between atoms: C_7  and  C_11
REMARK    6  A    between atoms: C_8  and  C_14
REMARK    7  A    between atoms: C_10  and  C_15
REMARK    8  A    between atoms: C_11  and  C_16
REMARK    9  A    between atoms: C_11  and  C_17
REMARK   10  A    between atoms: C_12  and  C_18
REMARK   11  A    between atoms: C_15  and  C_19
REMARK   12  A    between atoms: C_20  and  C_22
REMARK   13  A    between atoms: C_21  and  C_23
REMARK                            x       y       z     vdW  Elec       q    Type
REMARK                         _______ _______ _______ _____ _____    ______ ____
ROOT
ATOM      7  C   UNL     1      -4.093   3.208  25.663  0.00  0.00    +0.000 C 
ATOM      8  C   UNL     1      -3.919   3.890  24.284  0.00  0.00    +0.032 C 
ATOM      9  C   UNL     1      -3.231   3.912  26.722  0.00  0.00    +0.012 C 
ATOM     10  C   UNL     1      -1.735   3.901  26.357  0.00  0.00    +0.023 C 
ATOM     12  C   UNL     1      -1.503   4.309  24.916  0.00  0.00    -0.073 C 
ATOM     13  C   UNL     1      -2.494   4.310  24.007  0.00  0.00    -0.022 C 
ATOM     18  C   UNL     1      -0.115   4.758  24.554  0.00  0.00    +0.039 C 
ENDROOT
BRANCH   7  11
ATOM     11  C   UNL     1      -5.557   3.194  26.111  0.00  0.00    -0.013 C 
ATOM     16  C   UNL     1      -6.306   4.386  25.522  0.00  0.00    +0.007 C 
ATOM     17  C   UNL     1      -6.225   1.883  25.706  0.00  0.00    +0.007 C 
ENDBRANCH   7  11
BRANCH   8  14
ATOM     14  C   UNL     1      -4.412   2.981  23.151  0.00  0.00    +0.112 C 
BRANCH  14   4
ATOM      2  O   UNL     1      -2.000   1.424  23.129  0.00  0.00    -0.270 OA
ATOM      4  N   UNL     1      -4.282   1.604  23.512  0.00  0.00    -0.311 N 
ATOM     20  C   UNL     1      -3.066   0.921  23.473  0.00  0.00    +0.244 C 
ATOM     29  H   UNL     1      -5.102   1.145  23.892  0.00  0.00    +0.149 HD
BRANCH  20  22
ATOM      6  N   UNL     1      -3.174  -3.213  24.576  0.00  0.00    -0.263 NA
ATOM     22  C   UNL     1      -3.103  -0.514  23.854  0.00  0.00    +0.040 A 
ATOM     24  C   UNL     1      -4.282  -1.239  23.727  0.00  0.00    +0.033 A 
ATOM     25  C   UNL     1      -1.958  -1.136  24.342  0.00  0.00    +0.033 A 
ATOM     26  C   UNL     1      -4.265  -2.573  24.099  0.00  0.00    +0.111 A 
ATOM     27  C   UNL     1      -2.047  -2.476  24.686  0.00  0.00    +0.111 A 
ENDBRANCH  20  22
ENDBRANCH  14   4
ENDBRANCH   8  14
BRANCH  10  15
ATOM     15  C   UNL     1      -1.105   2.535  26.649  0.00  0.00    +0.103 C 
BRANCH  15  19
ATOM      1  O   UNL     1       1.289   2.862  26.519  0.00  0.00    -0.276 OA
ATOM      5  N   UNL     1       0.202   1.680  24.839  0.00  0.00    -0.313 N 
ATOM     19  C   UNL     1       0.265   2.395  26.026  0.00  0.00    +0.214 C 
ATOM     30  H   UNL     1      -0.695   1.334  24.509  0.00  0.00    +0.149 HD
BRANCH   5  21
ATOM     21  C   UNL     1       1.362   1.395  24.026  0.00  0.00    +0.132 C 
BRANCH  21  23
ATOM     23  C   UNL     1       1.169   0.135  23.201  0.00  0.00    +0.178 C 
BRANCH  23   3
ATOM      3  O   UNL     1       2.208   0.038  22.236  0.00  0.00    -0.381 OA
ATOM     28  C   UNL     1       3.411   0.632  22.704  0.00  0.00    +0.194 C 
ENDBRANCH  23   3
ENDBRANCH  21  23
ENDBRANCH   5  21
ENDBRANCH  15  19
ENDBRANCH  10  15
TORSDOF 9
ENDMDL
MODEL 4
REMARK VINA RESULT:      -2.6     15.201     18.090
REMARK  Name = 38027656
REMARK  13 active torsions:
REMARK  status: ('A' for Active; 'I' for Inactive)
REMARK    1  A    between atoms: O_3  and  C_23
REMARK    2  A    between atoms: O_3  and  C_28
REMARK    3  A    between atoms: N_4  and  C_14
REMARK    4  A    between atoms: N_5  and  C_21
REMARK    5  A    between atoms: C_7  and  C_11
REMARK    6  A    between atoms: C_8  and  C_14
REMARK    7  A    between atoms: C_10  and  C_15
REMARK    8  A    between atoms: C_11  and  C_16
REMARK    9  A    between atoms: C_11  and  C_17
REMARK   10  A    between atoms: C_12  and  C_18
REMARK   11  A    between atoms: C_15  and  C_19
REMARK   12  A    between atoms: C_20  and  C_22
REMARK   13  A    between atoms: C_21  and  C_23
REMARK                            x       y       z     vdW  Elec       q    Type
REMARK                         _______ _______ _______ _____ _____    ______ ____
ROOT
ATOM      7  C   UNL     1      -4.138  -9.851  10.869  0.00  0.00    +0.000 C 
ATOM      8  C   UNL     1      -4.846 -10.121   9.518  0.00  0.00    +0.032 C 
ATOM      9  C   UNL     1      -4.714 -10.758  11.967  0.00  0.00    +0.012 C 
ATOM     10  C   UNL     1      -6.228 -10.551  12.159  0.00  0.00    +0.023 C 
ATOM     12  C   UNL     1      -6.967 -10.537  10.837  0.00  0.00    -0.073 C 
ATOM     13  C   UNL     1      -6.331 -10.358   9.665  0.00  0.00    -0.022 C 
ATOM     18  C   UNL     1      -8.450 -10.781  10.887  0.00  0.00    +0.039 C 
ENDROOT
BRANCH   7  11
ATOM     11  C   UNL     1      -2.624 -10.054  10.768  0.00  0.00    -0.013 C 
ATOM     16  C   UNL     1      -1.925  -8.728  10.485  0.00  0.00    +0.007 C 
ATOM     17  C   UNL     1      -2.086 -10.685  12.050  0.00  0.00    +0.007 C 
ENDBRANCH   7  11
BRANCH   8  14
ATOM     14  C   UNL     1      -4.607  -8.975   8.528  0.00  0.00    +0.112 C 
BRANCH  14   4
ATOM      2  O   UNL     1      -5.755  -6.985  10.251  0.00  0.00    -0.270 OA
ATOM      4  N   UNL     1      -5.813  -8.242   8.301  0.00  0.00    -0.311 N 
ATOM     20  C   UNL     1      -6.301  -7.288   9.195  0.00  0.00    +0.244 C 
ATOM     29  H   UNL     1      -6.273  -8.372   7.406  0.00  0.00    +0.149 HD
BRANCH  20  22
ATOM      6  N   UNL     1      -9.990  -5.400   8.124  0.00  0.00    -0.263 NA
ATOM     22  C   UNL     1      -7.582  -6.633   8.825  0.00  0.00    +0.040 A 
ATOM     24  C   UNL     1      -8.723  -7.399   8.617  0.00  0.00    +0.033 A 
ATOM     25  C   UNL     1      -7.642  -5.250   8.682  0.00  0.00    +0.033 A 
ATOM     26  C   UNL     1      -9.892  -6.740   8.271  0.00  0.00    +0.111 A 
ATOM     27  C   UNL     1      -8.860  -4.689   8.333  0.00  0.00    +0.111 A 
ENDBRANCH  20  22
ENDBRANCH  14   4
ENDBRANCH   8  14
BRANCH  10  15
ATOM     15  C   UNL     1      -6.514  -9.276  12.961  0.00  0.00    +0.103 C 
BRANCH  15  19
ATOM      1  O   UNL     1      -5.856  -9.827  15.223  0.00  0.00    -0.276 OA
ATOM      5  N   UNL     1      -8.104  -9.500  14.732  0.00  0.00    -0.313 N 
ATOM     19  C   UNL     1      -6.752  -9.566  14.425  0.00  0.00    +0.214 C 
ATOM     30  H   UNL     1      -8.773  -9.278  14.002  0.00  0.00    +0.149 HD
BRANCH   5  21
ATOM     21  C   UNL     1      -8.624  -9.735  16.059  0.00  0.00    +0.132 C 
BRANCH  21  23
ATOM     23  C   UNL     1      -9.085  -8.446  16.715  0.00  0.00    +0.178 C 
BRANCH  23   3
ATOM      3  O   UNL     1      -9.710  -8.743  17.956  0.00  0.00    -0.381 OA
ATOM     28  C   UNL     1      -9.481 -10.090  18.346  0.00  0.00    +0.194 C 
ENDBRANCH  23   3
ENDBRANCH  21  23
ENDBRANCH   5  21
ENDBRANCH  15  19
ENDBRANCH  10  15
TORSDOF 9
ENDMDL
MODEL 5
REMARK VINA RESULT:      -1.5      1.773      7.725
REMARK  Name = 38027656
REMARK  13 active torsions:
REMARK  status: ('A' for Active; 'I' for Inactive)
REMARK    1  A    between atoms: O_3  and  C_23
REMARK    2  A    between atoms: O_3  and  C_28
REMARK    3  A    between atoms: N_4  and  C_14
REMARK    4  A    between atoms: N_5  and  C_21
REMARK    5  A    between atoms: C_7  and  C_11
REMARK    6  A    between atoms: C_8  and  C_14
REMARK    7  A    between atoms: C_10  and  C_15
REMARK    8  A    between atoms: C_11  and  C_16
REMARK    9  A    between atoms: C_11  and  C_17
REMARK   10  A    between atoms: C_12  and  C_18
REMARK   11  A    between atoms: C_15  and  C_19
REMARK   12  A    between atoms: C_20  and  C_22
REMARK   13  A    between atoms: C_21  and  C_23
REMARK                            x       y       z     vdW  Elec       q    Type
REMARK                         _______ _______ _______ _____ _____    ______ ____
ROOT
ATOM      7  C   UNL     1      -1.785  -1.806  24.444  0.00  0.00    +0.000 C 
ATOM      8  C   UNL     1      -2.547  -1.167  25.631  0.00  0.00    +0.032 C 
ATOM      9  C   UNL     1      -0.272  -1.587  24.599  0.00  0.00    +0.012 C 
ATOM     10  C   UNL     1       0.097  -0.093  24.670  0.00  0.00    +0.023 C 
ATOM     12  C   UNL     1      -0.797   0.663  25.630  0.00  0.00    -0.073 C 
ATOM     13  C   UNL     1      -1.969   0.162  26.060  0.00  0.00    -0.022 C 
ATOM     18  C   UNL     1      -0.292   1.991  26.123  0.00  0.00    +0.039 C 
ENDROOT
BRANCH   7  11
ATOM     11  C   UNL     1      -2.083  -3.302  24.315  0.00  0.00    -0.013 C 
ATOM     16  C   UNL     1      -3.588  -3.542  24.259  0.00  0.00    +0.007 C 
ATOM     17  C   UNL     1      -1.397  -3.876  23.079  0.00  0.00    +0.007 C 
ENDBRANCH   7  11
BRANCH   8  14
ATOM     14  C   UNL     1      -4.036  -0.994  25.305  0.00  0.00    +0.112 C 
BRANCH  14   4
ATOM      2  O   UNL     1      -3.556   1.050  23.346  0.00  0.00    -0.270 OA
ATOM      4  N   UNL     1      -4.419   0.380  25.395  0.00  0.00    -0.311 N 
ATOM     20  C   UNL     1      -4.145   1.311  24.392  0.00  0.00    +0.244 C 
ATOM     29  H   UNL     1      -4.987   0.652  26.189  0.00  0.00    +0.149 HD
BRANCH  20  22
ATOM      6  N   UNL     1      -5.412   5.331  25.136  0.00  0.00    -0.263 NA
ATOM     22  C   UNL     1      -4.586   2.706  24.648  0.00  0.00    +0.040 A 
ATOM     24  C   UNL     1      -3.892   3.771  24.086  0.00  0.00    +0.033 A 
ATOM     25  C   UNL     1      -5.692   2.951  25.455  0.00  0.00    +0.033 A 
ATOM     26  C   UNL     1      -4.342   5.053  24.358  0.00  0.00    +0.111 A 
ATOM     27  C   UNL     1      -6.060   4.270  25.666  0.00  0.00    +0.111 A 
ENDBRANCH  20  22
ENDBRANCH  14   4
ENDBRANCH   8  14
BRANCH  10  15
ATOM     15  C   UNL     1       0.074   0.548  23.278  0.00  0.00    +0.103 C 
BRANCH  15  19
ATOM      1  O   UNL     1       1.242  -0.525  21.450  0.00  0.00    -0.276 OA
ATOM      5  N   UNL     1       2.442   0.723  23.001  0.00  0.00    -0.313 N 
ATOM     19  C   UNL     1       1.288   0.175  22.459  0.00  0.00    +0.214 C 
ATOM     30  H   UNL     1       2.380   1.289  23.842  0.00  0.00    +0.149 HD
BRANCH   5  21
ATOM     21  C   UNL     1       3.753   0.530  22.427  0.00  0.00    +0.132 C 
BRANCH  21  23
ATOM     23  C   UNL     1       4.851   0.809  23.437  0.00  0.00    +0.178 C 
BRANCH  23   3
ATOM      3  O   UNL     1       5.663  -0.349  23.585  0.00  0.00    -0.381 OA
ATOM     28  C   UNL     1       4.890  -1.486  23.939  0.00  0.00    +0.194 C 
ENDBRANCH  23   3
ENDBRANCH  21  23
ENDBRANCH   5  21
ENDBRANCH  15  19
ENDBRANCH  10  15
TORSDOF 9
ENDMDL
MODEL 6
REMARK VINA RESULT:      -1.1      1.985      4.182
REMARK  Name = 38027656
REMARK  13 active torsions:
REMARK  status: ('A' for Active; 'I' for Inactive)
REMARK    1  A    between atoms: O_3  and  C_23
REMARK    2  A    between atoms: O_3  and  C_28
REMARK    3  A    between atoms: N_4  and  C_14
REMARK    4  A    between atoms: N_5  and  C_21
REMARK    5  A    between atoms: C_7  and  C_11
REMARK    6  A    between atoms: C_8  and  C_14
REMARK    7  A    between atoms: C_10  and  C_15
REMARK    8  A    between atoms: C_11  and  C_16
REMARK    9  A    between atoms: C_11  and  C_17
REMARK   10  A    between atoms: C_12  and  C_18
REMARK   11  A    between atoms: C_15  and  C_19
REMARK   12  A    between atoms: C_20  and  C_22
REMARK   13  A    between atoms: C_21  and  C_23
REMARK                            x       y       z     vdW  Elec       q    Type
REMARK                         _______ _______ _______ _____ _____    ______ ____
ROOT
ATOM      7  C   UNL     1      -2.793   2.069  23.936  0.00  0.00    +0.000 C 
ATOM      8  C   UNL     1      -1.531   2.434  24.756  0.00  0.00    +0.032 C 
ATOM      9  C   UNL     1      -3.702   3.297  23.776  0.00  0.00    +0.012 C 
ATOM     10  C   UNL     1      -4.150   3.872  25.133  0.00  0.00    +0.023 C 
ATOM     12  C   UNL     1      -2.989   4.010  26.096  0.00  0.00    -0.073 C 
ATOM     13  C   UNL     1      -1.822   3.371  25.905  0.00  0.00    -0.022 C 
ATOM     18  C   UNL     1      -3.185   4.938  27.264  0.00  0.00    +0.039 C 
ENDROOT
BRANCH   7  11
ATOM     11  C   UNL     1      -2.434   1.505  22.558  0.00  0.00    -0.013 C 
ATOM     16  C   UNL     1      -3.115   0.158  22.340  0.00  0.00    +0.007 C 
ATOM     17  C   UNL     1      -2.824   2.492  21.462  0.00  0.00    +0.007 C 
ENDBRANCH   7  11
BRANCH   8  14
ATOM     14  C   UNL     1      -0.833   1.175  25.287  0.00  0.00    +0.112 C 
BRANCH  14   4
ATOM      2  O   UNL     1       0.149  -0.719  23.367  0.00  0.00    -0.270 OA
ATOM      4  N   UNL     1       0.501   1.085  24.785  0.00  0.00    -0.311 N 
ATOM     20  C   UNL     1       0.895   0.129  23.848  0.00  0.00    +0.244 C 
ATOM     29  H   UNL     1       1.153   1.808  25.068  0.00  0.00    +0.149 HD
BRANCH  20  22
ATOM      6  N   UNL     1       5.017   0.191  22.694  0.00  0.00    -0.263 NA
ATOM     22  C   UNL     1       2.325   0.150  23.446  0.00  0.00    +0.040 A 
ATOM     24  C   UNL     1       3.124  -0.969  23.652  0.00  0.00    +0.033 A 
ATOM     25  C   UNL     1       2.870   1.290  22.865  0.00  0.00    +0.033 A 
ATOM     26  C   UNL     1       4.452  -0.897  23.262  0.00  0.00    +0.111 A 
ATOM     27  C   UNL     1       4.210   1.259  22.511  0.00  0.00    +0.111 A 
ENDBRANCH  20  22
ENDBRANCH  14   4
ENDBRANCH   8  14
BRANCH  10  15
ATOM     15  C   UNL     1      -5.275   3.030  25.745  0.00  0.00    +0.103 C 
BRANCH  15  19
ATOM      1  O   UNL     1      -6.129   1.409  24.165  0.00  0.00    -0.276 OA
ATOM      5  N   UNL     1      -4.521   0.761  25.713  0.00  0.00    -0.313 N 
ATOM     19  C   UNL     1      -5.378   1.666  25.102  0.00  0.00    +0.214 C 
ATOM     30  H   UNL     1      -3.937   1.067  26.485  0.00  0.00    +0.149 HD
BRANCH   5  21
ATOM     21  C   UNL     1      -4.411  -0.620  25.305  0.00  0.00    +0.132 C 
BRANCH  21  23
ATOM     23  C   UNL     1      -3.113  -1.242  25.788  0.00  0.00    +0.178 C 
BRANCH  23   3
ATOM      3  O   UNL     1      -2.823  -2.396  25.009  0.00  0.00    -0.381 OA
ATOM     28  C   UNL     1      -3.924  -2.762  24.190  0.00  0.00    +0.194 C 
ENDBRANCH  23   3
ENDBRANCH  21  23
ENDBRANCH   5  21
ENDBRANCH  15  19
ENDBRANCH  10  15
TORSDOF 9
ENDMDL
