MODEL 1
REMARK VINA RESULT:      -6.6      0.000      0.000
REMARK  Name = 71694030
REMARK  8 active torsions:
REMARK  status: ('A' for Active; 'I' for Inactive)
REMARK    1  A    between atoms: O_1  and  C_7
REMARK    2  A    between atoms: O_2  and  C_9
REMARK    3  A    between atoms: O_3  and  C_22
REMARK    4  A    between atoms: O_3  and  C_23
REMARK    5  A    between atoms: N_4  and  C_5
REMARK    6  A    between atoms: N_4  and  C_11
REMARK    7  A    between atoms: C_6  and  C_10
REMARK    8  A    between atoms: C_11  and  C_14
REMARK                            x       y       z     vdW  Elec       q    Type
REMARK                         _______ _______ _______ _____ _____    ______ ____
ROOT
ATOM      5  C   UNL     1      -3.940   2.273  25.308  0.00  0.00    +0.092 C 
ATOM      6  C   UNL     1      -4.662   1.243  24.409  0.00  0.00    +0.041 C 
ATOM      7  C   UNL     1      -4.971   3.393  25.448  0.00  0.00    +0.160 C 
ATOM      8  C   UNL     1      -6.178   1.480  24.643  0.00  0.00    +0.043 C 
ATOM      9  C   UNL     1      -6.273   2.626  25.652  0.00  0.00    +0.145 C 
ENDROOT
BRANCH   6  10
ATOM     10  C   UNL     1      -4.212  -0.181  24.657  0.00  0.00    -0.043 A 
ATOM     12  C   UNL     1      -3.673  -0.537  25.893  0.00  0.00    +0.004 A 
ATOM     13  C   UNL     1      -4.338  -1.137  23.649  0.00  0.00    +0.004 A 
ATOM     15  C   UNL     1      -3.259  -1.850  26.121  0.00  0.00    +0.000 A 
ATOM     16  C   UNL     1      -3.924  -2.450  23.877  0.00  0.00    +0.000 A 
ATOM     17  C   UNL     1      -3.385  -2.806  25.113  0.00  0.00    +0.000 A 
ENDBRANCH   6  10
BRANCH   7   1
ATOM      1  O   UNL     1      -4.675   4.240  26.544  0.00  0.00    -0.388 OA
ATOM     25  H   UNL     1      -3.946   3.829  27.039  0.00  0.00    +0.210 HD
ENDBRANCH   7   1
BRANCH   9   2
ATOM      2  O   UNL     1      -6.329   2.093  26.973  0.00  0.00    -0.389 OA
ATOM     26  H   UNL     1      -5.442   1.755  27.188  0.00  0.00    +0.210 HD
ENDBRANCH   9   2
BRANCH   5   4
ATOM      4  N   UNL     1      -2.700   2.752  24.706  0.00  0.00    -0.306 NA
ATOM     24  H   UNL     1      -2.600   2.349  23.776  0.00  0.00    +0.123 HD
BRANCH   4  11
ATOM     11  C   UNL     1      -1.550   2.363  25.510  0.00  0.00    +0.116 C 
BRANCH  11  14
ATOM     14  C   UNL     1      -0.510   1.647  24.690  0.00  0.00    -0.033 A 
ATOM     18  C   UNL     1      -0.688   0.304  24.356  0.00  0.00    +0.008 A 
ATOM     19  C   UNL     1       0.630   2.326  24.262  0.00  0.00    +0.008 A 
ATOM     20  C   UNL     1       0.275  -0.359  23.595  0.00  0.00    +0.046 A 
ATOM     21  C   UNL     1       1.593   1.664  23.501  0.00  0.00    +0.046 A 
ATOM     22  C   UNL     1       1.415   0.321  23.167  0.00  0.00    +0.120 A 
BRANCH  22   3
ATOM      3  O   UNL     1       2.353  -0.324  22.422  0.00  0.00    -0.495 OA
ATOM     23  C   UNL     1       3.645   0.277  22.342  0.00  0.00    +0.277 C 
ENDBRANCH  22   3
ENDBRANCH  11  14
ENDBRANCH   4  11
ENDBRANCH   5   4
TORSDOF 7
ENDMDL
MODEL 2
REMARK VINA RESULT:      -5.3      2.096      2.875
REMARK  Name = 71694030
REMARK  8 active torsions:
REMARK  status: ('A' for Active; 'I' for Inactive)
REMARK    1  A    between atoms: O_1  and  C_7
REMARK    2  A    between atoms: O_2  and  C_9
REMARK    3  A    between atoms: O_3  and  C_22
REMARK    4  A    between atoms: O_3  and  C_23
REMARK    5  A    between atoms: N_4  and  C_5
REMARK    6  A    between atoms: N_4  and  C_11
REMARK    7  A    between atoms: C_6  and  C_10
REMARK    8  A    between atoms: C_11  and  C_14
REMARK                            x       y       z     vdW  Elec       q    Type
REMARK                         _______ _______ _______ _____ _____    ______ ____
ROOT
ATOM      5  C   UNL     1      -3.986   2.372  24.060  0.00  0.00    +0.092 C 
ATOM      6  C   UNL     1      -5.024   1.254  24.310  0.00  0.00    +0.041 C 
ATOM      7  C   UNL     1      -4.740   3.641  24.457  0.00  0.00    +0.160 C 
ATOM      8  C   UNL     1      -5.980   1.813  25.399  0.00  0.00    +0.043 C 
ATOM      9  C   UNL     1      -5.465   3.215  25.729  0.00  0.00    +0.145 C 
ENDROOT
BRANCH   6  10
ATOM     10  C   UNL     1      -4.394  -0.076  24.663  0.00  0.00    -0.043 A 
ATOM     12  C   UNL     1      -4.376  -1.110  23.726  0.00  0.00    +0.004 A 
ATOM     13  C   UNL     1      -3.832  -0.269  25.925  0.00  0.00    +0.004 A 
ATOM     15  C   UNL     1      -3.795  -2.336  24.051  0.00  0.00    +0.000 A 
ATOM     16  C   UNL     1      -3.251  -1.495  26.250  0.00  0.00    +0.000 A 
ATOM     17  C   UNL     1      -3.233  -2.529  25.313  0.00  0.00    +0.000 A 
ENDBRANCH   6  10
BRANCH   7   1
ATOM      1  O   UNL     1      -3.856   4.723  24.685  0.00  0.00    -0.388 OA
ATOM     25  H   UNL     1      -3.681   4.758  25.641  0.00  0.00    +0.210 HD
ENDBRANCH   7   1
BRANCH   9   2
ATOM      2  O   UNL     1      -4.548   3.141  26.818  0.00  0.00    -0.389 OA
ATOM     26  H   UNL     1      -4.901   3.697  27.534  0.00  0.00    +0.210 HD
ENDBRANCH   9   2
BRANCH   5   4
ATOM      4  N   UNL     1      -3.551   2.414  22.668  0.00  0.00    -0.306 NA
ATOM     24  H   UNL     1      -4.210   1.892  22.093  0.00  0.00    +0.123 HD
BRANCH   4  11
ATOM     11  C   UNL     1      -2.230   1.820  22.519  0.00  0.00    +0.116 C 
BRANCH  11  14
ATOM     14  C   UNL     1      -1.370   2.054  23.733  0.00  0.00    -0.033 A 
ATOM     18  C   UNL     1      -0.991   3.352  24.079  0.00  0.00    +0.008 A 
ATOM     19  C   UNL     1      -0.956   0.976  24.512  0.00  0.00    +0.008 A 
ATOM     20  C   UNL     1      -0.197   3.569  25.205  0.00  0.00    +0.046 A 
ATOM     21  C   UNL     1      -0.161   1.193  25.638  0.00  0.00    +0.046 A 
ATOM     22  C   UNL     1       0.219   2.489  25.984  0.00  0.00    +0.120 A 
BRANCH  22   3
ATOM      3  O   UNL     1       0.992   2.701  27.084  0.00  0.00    -0.495 OA
ATOM     23  C   UNL     1       0.471   2.263  28.338  0.00  0.00    +0.277 C 
ENDBRANCH  22   3
ENDBRANCH  11  14
ENDBRANCH   4  11
ENDBRANCH   5   4
TORSDOF 7
ENDMDL
MODEL 3
REMARK VINA RESULT:      -4.8      1.563      5.822
REMARK  Name = 71694030
REMARK  8 active torsions:
REMARK  status: ('A' for Active; 'I' for Inactive)
REMARK    1  A    between atoms: O_1  and  C_7
REMARK    2  A    between atoms: O_2  and  C_9
REMARK    3  A    between atoms: O_3  and  C_22
REMARK    4  A    between atoms: O_3  and  C_23
REMARK    5  A    between atoms: N_4  and  C_5
REMARK    6  A    between atoms: N_4  and  C_11
REMARK    7  A    between atoms: C_6  and  C_10
REMARK    8  A    between atoms: C_11  and  C_14
REMARK                            x       y       z     vdW  Elec       q    Type
REMARK                         _______ _______ _______ _____ _____    ______ ____
ROOT
ATOM      5  C   UNL     1       0.377   1.263  24.364  0.00  0.00    +0.092 C 
ATOM      6  C   UNL     1      -0.225  -0.107  24.751  0.00  0.00    +0.041 C 
ATOM      7  C   UNL     1       1.745   0.893  23.790  0.00  0.00    +0.160 C 
ATOM      8  C   UNL     1       0.467  -1.140  23.819  0.00  0.00    +0.043 C 
ATOM      9  C   UNL     1       1.430  -0.337  22.944  0.00  0.00    +0.145 C 
ENDROOT
BRANCH   6  10
ATOM     10  C   UNL     1      -1.737  -0.133  24.689  0.00  0.00    -0.043 A 
ATOM     12  C   UNL     1      -2.466  -0.720  25.723  0.00  0.00    +0.004 A 
ATOM     13  C   UNL     1      -2.400   0.430  23.599  0.00  0.00    +0.004 A 
ATOM     15  C   UNL     1      -3.861  -0.743  25.667  0.00  0.00    +0.000 A 
ATOM     16  C   UNL     1      -3.794   0.407  23.543  0.00  0.00    +0.000 A 
ATOM     17  C   UNL     1      -4.524  -0.180  24.577  0.00  0.00    +0.000 A 
ENDBRANCH   6  10
BRANCH   7   1
ATOM      1  O   UNL     1       2.288   1.946  23.017  0.00  0.00    -0.388 OA
ATOM     25  H   UNL     1       3.256   1.888  23.086  0.00  0.00    +0.210 HD
ENDBRANCH   7   1
BRANCH   9   2
ATOM      2  O   UNL     1       0.771   0.050  21.741  0.00  0.00    -0.389 OA
ATOM     26  H   UNL     1       1.243  -0.374  21.002  0.00  0.00    +0.210 HD
ENDBRANCH   9   2
BRANCH   5   4
ATOM      4  N   UNL     1       0.496   2.154  25.514  0.00  0.00    -0.306 NA
ATOM     24  H   UNL     1      -0.055   1.782  26.286  0.00  0.00    +0.123 HD
BRANCH   4  11
ATOM     11  C   UNL     1       0.007   3.487  25.191  0.00  0.00    +0.116 C 
BRANCH  11  14
ATOM     14  C   UNL     1      -1.495   3.563  25.259  0.00  0.00    -0.033 A 
ATOM     18  C   UNL     1      -2.238   3.760  24.094  0.00  0.00    +0.008 A 
ATOM     19  C   UNL     1      -2.145   3.436  26.486  0.00  0.00    +0.008 A 
ATOM     20  C   UNL     1      -3.629   3.830  24.158  0.00  0.00    +0.046 A 
ATOM     21  C   UNL     1      -3.536   3.505  26.550  0.00  0.00    +0.046 A 
ATOM     22  C   UNL     1      -4.279   3.702  25.386  0.00  0.00    +0.120 A 
BRANCH  22   3
ATOM      3  O   UNL     1      -5.636   3.767  25.448  0.00  0.00    -0.495 OA
ATOM     23  C   UNL     1      -6.327   2.575  25.819  0.00  0.00    +0.277 C 
ENDBRANCH  22   3
ENDBRANCH  11  14
ENDBRANCH   4  11
ENDBRANCH   5   4
TORSDOF 7
ENDMDL
MODEL 4
REMARK VINA RESULT:      -4.7      2.585      4.929
REMARK  Name = 71694030
REMARK  8 active torsions:
REMARK  status: ('A' for Active; 'I' for Inactive)
REMARK    1  A    between atoms: O_1  and  C_7
REMARK    2  A    between atoms: O_2  and  C_9
REMARK    3  A    between atoms: O_3  and  C_22
REMARK    4  A    between atoms: O_3  and  C_23
REMARK    5  A    between atoms: N_4  and  C_5
REMARK    6  A    between atoms: N_4  and  C_11
REMARK    7  A    between atoms: C_6  and  C_10
REMARK    8  A    between atoms: C_11  and  C_14
REMARK                            x       y       z     vdW  Elec       q    Type
REMARK                         _______ _______ _______ _____ _____    ______ ____
ROOT
ATOM      5  C   UNL     1      -2.326  -1.063  24.733  0.00  0.00    +0.092 C 
ATOM      6  C   UNL     1      -3.610  -0.363  25.232  0.00  0.00    +0.041 C 
ATOM      7  C   UNL     1      -2.707  -2.543  24.751  0.00  0.00    +0.160 C 
ATOM      8  C   UNL     1      -4.773  -1.326  24.869  0.00  0.00    +0.043 C 
ATOM      9  C   UNL     1      -4.124  -2.530  24.186  0.00  0.00    +0.145 C 
ENDROOT
BRANCH   6  10
ATOM     10  C   UNL     1      -3.775   1.039  24.687  0.00  0.00    -0.043 A 
ATOM     12  C   UNL     1      -3.336   1.342  23.398  0.00  0.00    +0.004 A 
ATOM     13  C   UNL     1      -4.366   2.029  25.473  0.00  0.00    +0.004 A 
ATOM     15  C   UNL     1      -3.488   2.635  22.895  0.00  0.00    +0.000 A 
ATOM     16  C   UNL     1      -4.517   3.321  24.970  0.00  0.00    +0.000 A 
ATOM     17  C   UNL     1      -4.078   3.624  23.681  0.00  0.00    +0.000 A 
ENDBRANCH   6  10
BRANCH   7   1
ATOM      1  O   UNL     1      -1.826  -3.319  23.960  0.00  0.00    -0.388 OA
ATOM     25  H   UNL     1      -2.166  -3.306  23.049  0.00  0.00    +0.210 HD
ENDBRANCH   7   1
BRANCH   9   2
ATOM      2  O   UNL     1      -4.090  -2.318  22.777  0.00  0.00    -0.389 OA
ATOM     26  H   UNL     1      -4.017  -3.191  22.353  0.00  0.00    +0.210 HD
ENDBRANCH   9   2
BRANCH   5   4
ATOM      4  N   UNL     1      -1.181  -0.789  25.595  0.00  0.00    -0.306 NA
ATOM     24  H   UNL     1      -1.473  -0.181  26.359  0.00  0.00    +0.123 HD
BRANCH   4  11
ATOM     11  C   UNL     1      -0.118  -0.126  24.852  0.00  0.00    +0.116 C 
BRANCH  11  14
ATOM     14  C   UNL     1      -0.268   1.372  24.876  0.00  0.00    -0.033 A 
ATOM     18  C   UNL     1       0.046   2.123  23.743  0.00  0.00    +0.008 A 
ATOM     19  C   UNL     1      -0.722   2.008  26.030  0.00  0.00    +0.008 A 
ATOM     20  C   UNL     1      -0.095   3.510  23.765  0.00  0.00    +0.046 A 
ATOM     21  C   UNL     1      -0.863   3.396  26.053  0.00  0.00    +0.046 A 
ATOM     22  C   UNL     1      -0.549   4.147  24.921  0.00  0.00    +0.120 A 
BRANCH  22   3
ATOM      3  O   UNL     1      -0.688   5.500  24.942  0.00  0.00    -0.495 OA
ATOM     23  C   UNL     1      -2.011   6.015  25.087  0.00  0.00    +0.277 C 
ENDBRANCH  22   3
ENDBRANCH  11  14
ENDBRANCH   4  11
ENDBRANCH   5   4
TORSDOF 7
ENDMDL
MODEL 5
REMARK VINA RESULT:      -4.1      2.353      4.943
REMARK  Name = 71694030
REMARK  8 active torsions:
REMARK  status: ('A' for Active; 'I' for Inactive)
REMARK    1  A    between atoms: O_1  and  C_7
REMARK    2  A    between atoms: O_2  and  C_9
REMARK    3  A    between atoms: O_3  and  C_22
REMARK    4  A    between atoms: O_3  and  C_23
REMARK    5  A    between atoms: N_4  and  C_5
REMARK    6  A    between atoms: N_4  and  C_11
REMARK    7  A    between atoms: C_6  and  C_10
REMARK    8  A    between atoms: C_11  and  C_14
REMARK                            x       y       z     vdW  Elec       q    Type
REMARK                         _______ _______ _______ _____ _____    ______ ____
ROOT
ATOM      5  C   UNL     1      -2.133   3.600  25.185  0.00  0.00    +0.092 C 
ATOM      6  C   UNL     1      -0.946   2.875  25.860  0.00  0.00    +0.041 C 
ATOM      7  C   UNL     1      -1.710   5.068  25.221  0.00  0.00    +0.160 C 
ATOM      8  C   UNL     1       0.284   3.794  25.629  0.00  0.00    +0.043 C 
ATOM      9  C   UNL     1      -0.234   4.999  24.843  0.00  0.00    +0.145 C 
ENDROOT
BRANCH   6  10
ATOM     10  C   UNL     1      -0.759   1.455  25.370  0.00  0.00    -0.043 A 
ATOM     12  C   UNL     1      -1.186   0.385  26.156  0.00  0.00    +0.004 A 
ATOM     13  C   UNL     1      -0.159   1.217  24.133  0.00  0.00    +0.004 A 
ATOM     15  C   UNL     1      -1.014  -0.925  25.705  0.00  0.00    +0.000 A 
ATOM     16  C   UNL     1       0.013  -0.093  23.683  0.00  0.00    +0.000 A 
ATOM     17  C   UNL     1      -0.414  -1.163  24.468  0.00  0.00    +0.000 A 
ENDBRANCH   6  10
BRANCH   7   1
ATOM      1  O   UNL     1      -2.457   5.848  24.307  0.00  0.00    -0.388 OA
ATOM     25  H   UNL     1      -2.001   5.807  23.449  0.00  0.00    +0.210 HD
ENDBRANCH   7   1
BRANCH   9   2
ATOM      2  O   UNL     1      -0.094   4.752  23.446  0.00  0.00    -0.389 OA
ATOM     26  H   UNL     1      -0.361   3.831  23.286  0.00  0.00    +0.210 HD
ENDBRANCH   9   2
BRANCH   5   4
ATOM      4  N   UNL     1      -3.387   3.380  25.899  0.00  0.00    -0.306 NA
ATOM     24  H   UNL     1      -3.252   2.654  26.601  0.00  0.00    +0.123 HD
BRANCH   4  11
ATOM     11  C   UNL     1      -4.438   2.956  24.985  0.00  0.00    +0.116 C 
BRANCH  11  14
ATOM     14  C   UNL     1      -4.298   1.505  24.605  0.00  0.00    -0.033 A 
ATOM     18  C   UNL     1      -3.713   1.156  23.387  0.00  0.00    +0.008 A 
ATOM     19  C   UNL     1      -4.749   0.512  25.472  0.00  0.00    +0.008 A 
ATOM     20  C   UNL     1      -3.582  -0.187  23.037  0.00  0.00    +0.046 A 
ATOM     21  C   UNL     1      -4.618  -0.832  25.122  0.00  0.00    +0.046 A 
ATOM     22  C   UNL     1      -4.035  -1.182  23.905  0.00  0.00    +0.120 A 
BRANCH  22   3
ATOM      3  O   UNL     1      -3.905  -2.493  23.564  0.00  0.00    -0.495 OA
ATOM     23  C   UNL     1      -3.411  -3.378  24.568  0.00  0.00    +0.277 C 
ENDBRANCH  22   3
ENDBRANCH  11  14
ENDBRANCH   4  11
ENDBRANCH   5   4
TORSDOF 7
ENDMDL
MODEL 6
REMARK VINA RESULT:      -4.1      1.708      2.279
REMARK  Name = 71694030
REMARK  8 active torsions:
REMARK  status: ('A' for Active; 'I' for Inactive)
REMARK    1  A    between atoms: O_1  and  C_7
REMARK    2  A    between atoms: O_2  and  C_9
REMARK    3  A    between atoms: O_3  and  C_22
REMARK    4  A    between atoms: O_3  and  C_23
REMARK    5  A    between atoms: N_4  and  C_5
REMARK    6  A    between atoms: N_4  and  C_11
REMARK    7  A    between atoms: C_6  and  C_10
REMARK    8  A    between atoms: C_11  and  C_14
REMARK                            x       y       z     vdW  Elec       q    Type
REMARK                         _______ _______ _______ _____ _____    ______ ____
ROOT
ATOM      5  C   UNL     1      -3.919   2.506  24.455  0.00  0.00    +0.092 C 
ATOM      6  C   UNL     1      -4.947   1.382  24.193  0.00  0.00    +0.041 C 
ATOM      7  C   UNL     1      -4.799   3.714  24.775  0.00  0.00    +0.160 C 
ATOM      8  C   UNL     1      -6.215   1.787  24.991  0.00  0.00    +0.043 C 
ATOM      9  C   UNL     1      -5.877   3.114  25.672  0.00  0.00    +0.145 C 
ENDROOT
BRANCH   6  10
ATOM     10  C   UNL     1      -4.419   0.003  24.527  0.00  0.00    -0.043 A 
ATOM     12  C   UNL     1      -4.334  -0.970  23.531  0.00  0.00    +0.004 A 
ATOM     13  C   UNL     1      -4.019  -0.294  25.829  0.00  0.00    +0.004 A 
ATOM     15  C   UNL     1      -3.848  -2.242  23.838  0.00  0.00    +0.000 A 
ATOM     16  C   UNL     1      -3.532  -1.566  26.136  0.00  0.00    +0.000 A 
ATOM     17  C   UNL     1      -3.447  -2.539  25.141  0.00  0.00    +0.000 A 
ENDBRANCH   6  10
BRANCH   7   1
ATOM      1  O   UNL     1      -4.068   4.734  25.431  0.00  0.00    -0.388 OA
ATOM     25  H   UNL     1      -3.884   5.427  24.775  0.00  0.00    +0.210 HD
ENDBRANCH   7   1
BRANCH   9   2
ATOM      2  O   UNL     1      -5.350   2.861  26.972  0.00  0.00    -0.389 OA
ATOM     26  H   UNL     1      -4.402   3.080  26.949  0.00  0.00    +0.210 HD
ENDBRANCH   9   2
BRANCH   5   4
ATOM      4  N   UNL     1      -3.066   2.751  23.296  0.00  0.00    -0.306 NA
ATOM     24  H   UNL     1      -3.179   1.989  22.629  0.00  0.00    +0.123 HD
BRANCH   4  11
ATOM     11  C   UNL     1      -1.665   2.823  23.689  0.00  0.00    +0.116 C 
BRANCH  11  14
ATOM     14  C   UNL     1      -1.172   1.514  24.247  0.00  0.00    -0.033 A 
ATOM     18  C   UNL     1      -0.856   0.464  23.385  0.00  0.00    +0.008 A 
ATOM     19  C   UNL     1      -1.028   1.353  25.624  0.00  0.00    +0.008 A 
ATOM     20  C   UNL     1      -0.397  -0.748  23.902  0.00  0.00    +0.046 A 
ATOM     21  C   UNL     1      -0.569   0.142  26.141  0.00  0.00    +0.046 A 
ATOM     22  C   UNL     1      -0.254  -0.909  25.280  0.00  0.00    +0.120 A 
BRANCH  22   3
ATOM      3  O   UNL     1       0.196  -2.090  25.784  0.00  0.00    -0.495 OA
ATOM     23  C   UNL     1      -0.186  -3.278  25.093  0.00  0.00    +0.277 C 
ENDBRANCH  22   3
ENDBRANCH  11  14
ENDBRANCH   4  11
ENDBRANCH   5   4
TORSDOF 7
ENDMDL
MODEL 7
REMARK VINA RESULT:      -3.4      2.572      4.595
REMARK  Name = 71694030
REMARK  8 active torsions:
REMARK  status: ('A' for Active; 'I' for Inactive)
REMARK    1  A    between atoms: O_1  and  C_7
REMARK    2  A    between atoms: O_2  and  C_9
REMARK    3  A    between atoms: O_3  and  C_22
REMARK    4  A    between atoms: O_3  and  C_23
REMARK    5  A    between atoms: N_4  and  C_5
REMARK    6  A    between atoms: N_4  and  C_11
REMARK    7  A    between atoms: C_6  and  C_10
REMARK    8  A    between atoms: C_11  and  C_14
REMARK                            x       y       z     vdW  Elec       q    Type
REMARK                         _______ _______ _______ _____ _____    ______ ____
ROOT
ATOM      5  C   UNL     1      -1.589  -0.905  24.405  0.00  0.00    +0.092 C 
ATOM      6  C   UNL     1      -2.336  -0.124  25.510  0.00  0.00    +0.041 C 
ATOM      7  C   UNL     1      -1.964  -2.358  24.692  0.00  0.00    +0.160 C 
ATOM      8  C   UNL     1      -3.547  -1.016  25.899  0.00  0.00    +0.043 C 
ATOM      9  C   UNL     1      -3.451  -2.262  25.018  0.00  0.00    +0.145 C 
ENDROOT
BRANCH   6  10
ATOM     10  C   UNL     1      -2.711   1.283  25.096  0.00  0.00    -0.043 A 
ATOM     12  C   UNL     1      -3.919   1.517  24.438  0.00  0.00    +0.004 A 
ATOM     13  C   UNL     1      -1.850   2.345  25.373  0.00  0.00    +0.004 A 
ATOM     15  C   UNL     1      -4.265   2.814  24.056  0.00  0.00    +0.000 A 
ATOM     16  C   UNL     1      -2.196   3.641  24.991  0.00  0.00    +0.000 A 
ATOM     17  C   UNL     1      -3.404   3.876  24.333  0.00  0.00    +0.000 A 
ENDBRANCH   6  10
BRANCH   7   1
ATOM      1  O   UNL     1      -1.717  -3.191  23.574  0.00  0.00    -0.388 OA
ATOM     25  H   UNL     1      -2.561  -3.304  23.105  0.00  0.00    +0.210 HD
ENDBRANCH   7   1
BRANCH   9   2
ATOM      2  O   UNL     1      -4.204  -2.060  23.824  0.00  0.00    -0.389 OA
ATOM     26  H   UNL     1      -4.974  -1.512  24.055  0.00  0.00    +0.210 HD
ENDBRANCH   9   2
BRANCH   5   4
ATOM      4  N   UNL     1      -0.146  -0.696  24.467  0.00  0.00    -0.306 NA
ATOM     24  H   UNL     1       0.076  -0.111  25.271  0.00  0.00    +0.123 HD
BRANCH   4  11
ATOM     11  C   UNL     1       0.335  -0.033  23.262  0.00  0.00    +0.116 C 
BRANCH  11  14
ATOM     14  C   UNL     1       1.839   0.009  23.208  0.00  0.00    -0.033 A 
ATOM     18  C   UNL     1       2.581  -1.127  23.536  0.00  0.00    +0.008 A 
ATOM     19  C   UNL     1       2.490   1.181  22.829  0.00  0.00    +0.008 A 
ATOM     20  C   UNL     1       3.974  -1.088  23.484  0.00  0.00    +0.046 A 
ATOM     21  C   UNL     1       3.883   1.220  22.777  0.00  0.00    +0.046 A 
ATOM     22  C   UNL     1       4.626   0.086  23.104  0.00  0.00    +0.120 A 
BRANCH  22   3
ATOM      3  O   UNL     1       5.985   0.123  23.052  0.00  0.00    -0.495 OA
ATOM     23  C   UNL     1       6.693  -0.692  23.984  0.00  0.00    +0.277 C 
ENDBRANCH  22   3
ENDBRANCH  11  14
ENDBRANCH   4  11
ENDBRANCH   5   4
TORSDOF 7
ENDMDL
MODEL 8
REMARK VINA RESULT:      -3.2     18.995     20.211
REMARK  Name = 71694030
REMARK  8 active torsions:
REMARK  status: ('A' for Active; 'I' for Inactive)
REMARK    1  A    between atoms: O_1  and  C_7
REMARK    2  A    between atoms: O_2  and  C_9
REMARK    3  A    between atoms: O_3  and  C_22
REMARK    4  A    between atoms: O_3  and  C_23
REMARK    5  A    between atoms: N_4  and  C_5
REMARK    6  A    between atoms: N_4  and  C_11
REMARK    7  A    between atoms: C_6  and  C_10
REMARK    8  A    between atoms: C_11  and  C_14
REMARK                            x       y       z     vdW  Elec       q    Type
REMARK                         _______ _______ _______ _____ _____    ______ ____
ROOT
ATOM      5  C   UNL     1      16.243  -6.160  30.300  0.00  0.00    +0.092 C 
ATOM      6  C   UNL     1      15.057  -6.457  29.353  0.00  0.00    +0.041 C 
ATOM      7  C   UNL     1      15.669  -5.117  31.259  0.00  0.00    +0.160 C 
ATOM      8  C   UNL     1      13.781  -6.129  30.175  0.00  0.00    +0.043 C 
ATOM      9  C   UNL     1      14.272  -5.658  31.544  0.00  0.00    +0.145 C 
ENDROOT
BRANCH   6  10
ATOM     10  C   UNL     1      15.085  -7.860  28.786  0.00  0.00    -0.043 A 
ATOM     12  C   UNL     1      14.557  -8.920  29.522  0.00  0.00    +0.004 A 
ATOM     13  C   UNL     1      15.638  -8.092  27.526  0.00  0.00    +0.004 A 
ATOM     15  C   UNL     1      14.582 -10.214  28.999  0.00  0.00    +0.000 A 
ATOM     16  C   UNL     1      15.663  -9.385  27.003  0.00  0.00    +0.000 A 
ATOM     17  C   UNL     1      15.135 -10.446  27.740  0.00  0.00    +0.000 A 
ENDBRANCH   6  10
BRANCH   7   1
ATOM      1  O   UNL     1      16.448  -5.007  32.436  0.00  0.00    -0.388 OA
ATOM     25  H   UNL     1      17.152  -4.361  32.259  0.00  0.00    +0.210 HD
ENDBRANCH   7   1
BRANCH   9   2
ATOM      2  O   UNL     1      14.347  -6.772  32.431  0.00  0.00    -0.389 OA
ATOM     26  H   UNL     1      14.761  -7.505  31.943  0.00  0.00    +0.210 HD
ENDBRANCH   9   2
BRANCH   5   4
ATOM      4  N   UNL     1      17.405  -5.650  29.579  0.00  0.00    -0.306 NA
ATOM     24  H   UNL     1      18.243  -5.807  30.138  0.00  0.00    +0.123 HD
BRANCH   4  11
ATOM     11  C   UNL     1      17.274  -4.222  29.327  0.00  0.00    +0.116 C 
BRANCH  11  14
ATOM     14  C   UNL     1      17.311  -3.908  27.855  0.00  0.00    -0.033 A 
ATOM     18  C   UNL     1      17.286  -4.944  26.920  0.00  0.00    +0.008 A 
ATOM     19  C   UNL     1      17.368  -2.583  27.426  0.00  0.00    +0.008 A 
ATOM     20  C   UNL     1      17.318  -4.653  25.556  0.00  0.00    +0.046 A 
ATOM     21  C   UNL     1      17.400  -2.292  26.062  0.00  0.00    +0.046 A 
ATOM     22  C   UNL     1      17.375  -3.326  25.127  0.00  0.00    +0.120 A 
BRANCH  22   3
ATOM      3  O   UNL     1      17.404  -3.042  23.797  0.00  0.00    -0.495 OA
ATOM     23  C   UNL     1      16.151  -2.819  23.153  0.00  0.00    +0.277 C 
ENDBRANCH  22   3
ENDBRANCH  11  14
ENDBRANCH   4  11
ENDBRANCH   5   4
TORSDOF 7
ENDMDL
MODEL 9
REMARK VINA RESULT:      -3.0      2.254      6.739
REMARK  Name = 71694030
REMARK  8 active torsions:
REMARK  status: ('A' for Active; 'I' for Inactive)
REMARK    1  A    between atoms: O_1  and  C_7
REMARK    2  A    between atoms: O_2  and  C_9
REMARK    3  A    between atoms: O_3  and  C_22
REMARK    4  A    between atoms: O_3  and  C_23
REMARK    5  A    between atoms: N_4  and  C_5
REMARK    6  A    between atoms: N_4  and  C_11
REMARK    7  A    between atoms: C_6  and  C_10
REMARK    8  A    between atoms: C_11  and  C_14
REMARK                            x       y       z     vdW  Elec       q    Type
REMARK                         _______ _______ _______ _____ _____    ______ ____
ROOT
ATOM      5  C   UNL     1       0.552   0.933  24.732  0.00  0.00    +0.092 C 
ATOM      6  C   UNL     1       1.025   0.352  23.381  0.00  0.00    +0.041 C 
ATOM      7  C   UNL     1      -0.849   0.344  24.892  0.00  0.00    +0.160 C 
ATOM      8  C   UNL     1       0.232  -0.971  23.199  0.00  0.00    +0.043 C 
ATOM      9  C   UNL     1      -0.660  -1.099  24.434  0.00  0.00    +0.145 C 
ENDROOT
BRANCH   6  10
ATOM     10  C   UNL     1       2.528   0.189  23.295  0.00  0.00    -0.043 A 
ATOM     12  C   UNL     1       3.318   1.245  22.842  0.00  0.00    +0.004 A 
ATOM     13  C   UNL     1       3.121  -1.016  23.670  0.00  0.00    +0.004 A 
ATOM     15  C   UNL     1       4.704   1.096  22.764  0.00  0.00    +0.000 A 
ATOM     16  C   UNL     1       4.507  -1.166  23.591  0.00  0.00    +0.000 A 
ATOM     17  C   UNL     1       5.297  -0.110  23.138  0.00  0.00    +0.000 A 
ENDBRANCH   6  10
BRANCH   7   1
ATOM      1  O   UNL     1      -1.298   0.422  26.233  0.00  0.00    -0.388 OA
ATOM     25  H   UNL     1      -0.553   0.740  26.770  0.00  0.00    +0.210 HD
ENDBRANCH   7   1
BRANCH   9   2
ATOM      2  O   UNL     1       0.022  -1.848  25.438  0.00  0.00    -0.389 OA
ATOM     26  H   UNL     1       0.148  -1.261  26.204  0.00  0.00    +0.210 HD
ENDBRANCH   9   2
BRANCH   5   4
ATOM      4  N   UNL     1       0.527   2.392  24.723  0.00  0.00    -0.306 NA
ATOM     24  H   UNL     1       0.235   2.729  25.639  0.00  0.00    +0.123 HD
BRANCH   4  11
ATOM     11  C   UNL     1      -0.407   2.889  23.723  0.00  0.00    +0.116 C 
BRANCH  11  14
ATOM     14  C   UNL     1      -1.793   3.060  24.287  0.00  0.00    -0.033 A 
ATOM     18  C   UNL     1      -1.977   3.743  25.490  0.00  0.00    +0.008 A 
ATOM     19  C   UNL     1      -2.892   2.538  23.606  0.00  0.00    +0.008 A 
ATOM     20  C   UNL     1      -3.261   3.902  26.011  0.00  0.00    +0.046 A 
ATOM     21  C   UNL     1      -4.175   2.698  24.127  0.00  0.00    +0.046 A 
ATOM     22  C   UNL     1      -4.360   3.380  25.330  0.00  0.00    +0.120 A 
BRANCH  22   3
ATOM      3  O   UNL     1      -5.613   3.538  25.837  0.00  0.00    -0.495 OA
ATOM     23  C   UNL     1      -6.331   2.352  26.173  0.00  0.00    +0.277 C 
ENDBRANCH  22   3
ENDBRANCH  11  14
ENDBRANCH   4  11
ENDBRANCH   5   4
TORSDOF 7
ENDMDL
