MODEL 1
REMARK VINA RESULT:      14.0      0.000      0.000
REMARK  Name = 7142689
REMARK  7 active torsions:
REMARK  status: ('A' for Active; 'I' for Inactive)
REMARK    1  A    between atoms: O_4  and  C_28
REMARK    2  A    between atoms: O_4  and  C_34
REMARK    3  A    between atoms: O_5  and  C_36
REMARK    4  A    between atoms: N_9  and  C_20
REMARK    5  A    between atoms: C_19  and  C_22
REMARK    6  A    between atoms: C_25  and  C_29
REMARK    7  A    between atoms: C_32  and  C_36
REMARK                            x       y       z     vdW  Elec       q    Type
REMARK                         _______ _______ _______ _____ _____    ______ ____
ROOT
ATOM      1  O   UNL     1      -0.373   3.149  25.632  0.00  0.00    -0.266 OA
ATOM      2  O   UNL     1      -4.160   0.089  27.382  0.00  0.00    -0.270 OA
ATOM      7  N   UNL     1      -5.044   1.394  25.651  0.00  0.00    -0.297 N 
ATOM      8  N   UNL     1      -2.499   3.012  24.671  0.00  0.00    -0.310 N 
ATOM     10  C   UNL     1      -4.612   3.835  25.859  0.00  0.00    +0.027 C 
ATOM     11  C   UNL     1      -4.783   2.809  23.627  0.00  0.00    +0.054 C 
ATOM     12  C   UNL     1      -5.153   4.043  24.448  0.00  0.00    +0.018 C 
ATOM     13  C   UNL     1      -5.232   2.576  26.491  0.00  0.00    +0.113 C 
ATOM     14  C   UNL     1      -3.082   3.757  25.795  0.00  0.00    +0.130 C 
ATOM     15  C   UNL     1      -5.445   1.560  24.245  0.00  0.00    +0.117 C 
ATOM     16  C   UNL     1      -3.279   2.618  23.578  0.00  0.00    +0.027 A 
ATOM     17  C   UNL     1      -2.705   2.041  22.509  0.00  0.00    +0.024 A 
ATOM     18  C   UNL     1      -1.104   2.805  24.703  0.00  0.00    +0.273 A 
ATOM     19  C   UNL     1      -4.497   0.234  26.208  0.00  0.00    +0.247 C 
ATOM     20  C   UNL     1      -0.507   2.135  23.504  0.00  0.00    +0.099 A 
ATOM     21  C   UNL     1      -1.290   1.795  22.475  0.00  0.00    +0.030 A 
ENDROOT
BRANCH  19  22
ATOM     22  C   UNL     1      -4.282  -0.916  25.324  0.00  0.00    +0.037 A 
ATOM     23  C   UNL     1      -3.477  -1.972  25.746  0.00  0.00    +0.016 A 
ATOM     24  C   UNL     1      -4.882  -0.948  24.068  0.00  0.00    +0.016 A 
ATOM     26  C   UNL     1      -3.271  -3.067  24.906  0.00  0.00    +0.046 A 
ATOM     27  C   UNL     1      -4.677  -2.043  23.229  0.00  0.00    +0.046 A 
ATOM     28  C   UNL     1      -3.872  -3.102  23.647  0.00  0.00    +0.120 A 
BRANCH  28   4
ATOM      4  O   UNL     1      -3.670  -4.169  22.827  0.00  0.00    -0.495 OA
ATOM     34  C   UNL     1      -2.333  -4.653  22.708  0.00  0.00    +0.277 C 
ENDBRANCH  28   4
ENDBRANCH  19  22
BRANCH  20   9
ATOM      3  O   UNL     1       0.781  -0.285  22.711  0.00  0.00    -0.270 OA
ATOM      9  N   UNL     1       0.837   1.901  23.505  0.00  0.00    -0.277 N 
ATOM     25  C   UNL     1       1.404   0.698  23.106  0.00  0.00    +0.248 C 
ATOM     37  H   UNL     1       1.397   2.613  23.958  0.00  0.00    +0.155 HD
BRANCH  25  29
ATOM     29  C   UNL     1       2.888   0.638  23.154  0.00  0.00    +0.038 A 
ATOM     30  C   UNL     1       3.494  -0.504  23.635  0.00  0.00    +0.028 A 
ATOM     31  C   UNL     1       3.612   1.727  22.715  0.00  0.00    +0.013 A 
ATOM     32  C   UNL     1       4.886  -0.560  23.679  0.00  0.00    +0.060 A 
ATOM     33  C   UNL     1       5.004   1.671  22.758  0.00  0.00    +0.002 A 
ATOM     35  C   UNL     1       5.642   0.527  23.241  0.00  0.00    +0.015 A 
BRANCH  32  36
ATOM      6  O   UNL     1       5.282  -2.913  23.858  0.00  0.00    -0.245 OA
ATOM     36  C   UNL     1       5.552  -1.752  24.183  0.00  0.00    +0.337 C 
BRANCH  36   5
ATOM      5  O   UNL     1       6.537  -1.459  25.075  0.00  0.00    -0.477 OA
ATOM     38  H   UNL     1       7.280  -0.977  24.654  0.00  0.00    +0.295 HD
ENDBRANCH  36   5
ENDBRANCH  32  36
ENDBRANCH  25  29
ENDBRANCH  20   9
TORSDOF 6
ENDMDL
MODEL 2
REMARK VINA RESULT:      14.1      1.278      1.766
REMARK  Name = 7142689
REMARK  7 active torsions:
REMARK  status: ('A' for Active; 'I' for Inactive)
REMARK    1  A    between atoms: O_4  and  C_28
REMARK    2  A    between atoms: O_4  and  C_34
REMARK    3  A    between atoms: O_5  and  C_36
REMARK    4  A    between atoms: N_9  and  C_20
REMARK    5  A    between atoms: C_19  and  C_22
REMARK    6  A    between atoms: C_25  and  C_29
REMARK    7  A    between atoms: C_32  and  C_36
REMARK                            x       y       z     vdW  Elec       q    Type
REMARK                         _______ _______ _______ _____ _____    ______ ____
ROOT
ATOM      1  O   UNL     1       0.437   2.688  25.694  0.00  0.00    -0.266 OA
ATOM      2  O   UNL     1      -4.150   0.818  27.186  0.00  0.00    -0.270 OA
ATOM      7  N   UNL     1      -4.490   2.052  25.226  0.00  0.00    -0.297 N 
ATOM      8  N   UNL     1      -1.535   2.911  24.460  0.00  0.00    -0.310 N 
ATOM     10  C   UNL     1      -3.509   4.338  25.248  0.00  0.00    +0.027 C 
ATOM     11  C   UNL     1      -3.666   3.095  23.129  0.00  0.00    +0.054 C 
ATOM     12  C   UNL     1      -3.819   4.477  23.762  0.00  0.00    +0.018 C 
ATOM     13  C   UNL     1      -4.482   3.345  25.909  0.00  0.00    +0.113 C 
ATOM     14  C   UNL     1      -2.046   3.908  25.410  0.00  0.00    +0.130 C 
ATOM     15  C   UNL     1      -4.675   2.120  23.767  0.00  0.00    +0.117 C 
ATOM     16  C   UNL     1      -2.257   2.565  23.312  0.00  0.00    +0.027 A 
ATOM     17  C   UNL     1      -1.721   1.739  22.398  0.00  0.00    +0.024 A 
ATOM     18  C   UNL     1      -0.244   2.401  24.709  0.00  0.00    +0.273 A 
ATOM     19  C   UNL     1      -4.306   0.881  25.967  0.00  0.00    +0.247 C 
ATOM     20  C   UNL     1       0.307   1.462  23.681  0.00  0.00    +0.099 A 
ATOM     21  C   UNL     1      -0.413   1.177  22.590  0.00  0.00    +0.030 A 
ENDROOT
BRANCH  19  22
ATOM     22  C   UNL     1      -4.275  -0.393  25.243  0.00  0.00    +0.037 A 
ATOM     23  C   UNL     1      -3.520  -1.453  25.738  0.00  0.00    +0.016 A 
ATOM     24  C   UNL     1      -4.999  -0.538  24.062  0.00  0.00    +0.016 A 
ATOM     26  C   UNL     1      -3.489  -2.666  25.049  0.00  0.00    +0.046 A 
ATOM     27  C   UNL     1      -4.969  -1.750  23.373  0.00  0.00    +0.046 A 
ATOM     28  C   UNL     1      -4.214  -2.814  23.866  0.00  0.00    +0.120 A 
BRANCH  28   4
ATOM      4  O   UNL     1      -4.184  -3.997  23.193  0.00  0.00    -0.495 OA
ATOM     34  C   UNL     1      -2.899  -4.555  22.920  0.00  0.00    +0.277 C 
ENDBRANCH  28   4
ENDBRANCH  19  22
BRANCH  20   9
ATOM      3  O   UNL     1       1.796  -0.136  21.844  0.00  0.00    -0.270 OA
ATOM      9  N   UNL     1       1.545   0.933  23.895  0.00  0.00    -0.277 N 
ATOM     25  C   UNL     1       2.220   0.161  22.959  0.00  0.00    +0.248 C 
ATOM     37  H   UNL     1       1.889   1.013  24.845  0.00  0.00    +0.155 HD
BRANCH  25  29
ATOM     29  C   UNL     1       3.570  -0.309  23.364  0.00  0.00    +0.038 A 
ATOM     30  C   UNL     1       4.603   0.603  23.422  0.00  0.00    +0.028 A 
ATOM     31  C   UNL     1       3.745  -1.642  23.669  0.00  0.00    +0.013 A 
ATOM     32  C   UNL     1       5.870   0.162  23.803  0.00  0.00    +0.060 A 
ATOM     33  C   UNL     1       5.012  -2.084  24.051  0.00  0.00    +0.002 A 
ATOM     35  C   UNL     1       6.075  -1.182  24.118  0.00  0.00    +0.015 A 
BRANCH  32  36
ATOM      6  O   UNL     1       6.912   2.254  24.309  0.00  0.00    -0.245 OA
ATOM     36  C   UNL     1       6.979   1.101  23.872  0.00  0.00    +0.337 C 
BRANCH  36   5
ATOM      5  O   UNL     1       8.139   0.572  23.395  0.00  0.00    -0.477 OA
ATOM     38  H   UNL     1       8.000  -0.313  22.996  0.00  0.00    +0.295 HD
ENDBRANCH  36   5
ENDBRANCH  32  36
ENDBRANCH  25  29
ENDBRANCH  20   9
TORSDOF 6
ENDMDL
MODEL 3
REMARK VINA RESULT:      17.2      3.384      5.918
REMARK  Name = 7142689
REMARK  7 active torsions:
REMARK  status: ('A' for Active; 'I' for Inactive)
REMARK    1  A    between atoms: O_4  and  C_28
REMARK    2  A    between atoms: O_4  and  C_34
REMARK    3  A    between atoms: O_5  and  C_36
REMARK    4  A    between atoms: N_9  and  C_20
REMARK    5  A    between atoms: C_19  and  C_22
REMARK    6  A    between atoms: C_25  and  C_29
REMARK    7  A    between atoms: C_32  and  C_36
REMARK                            x       y       z     vdW  Elec       q    Type
REMARK                         _______ _______ _______ _____ _____    ______ ____
ROOT
ATOM      1  O   UNL     1       0.498   0.504  22.192  0.00  0.00    -0.266 OA
ATOM      2  O   UNL     1      -4.394  -0.899  23.121  0.00  0.00    -0.270 OA
ATOM      7  N   UNL     1      -3.168  -1.255  25.083  0.00  0.00    -0.297 N 
ATOM      8  N   UNL     1      -0.301  -0.160  24.286  0.00  0.00    -0.310 N 
ATOM     10  C   UNL     1      -1.067  -2.553  24.780  0.00  0.00    +0.027 C 
ATOM     11  C   UNL     1      -1.202  -0.835  26.540  0.00  0.00    +0.054 C 
ATOM     12  C   UNL     1      -0.671  -2.231  26.217  0.00  0.00    +0.018 C 
ATOM     13  C   UNL     1      -2.598  -2.522  24.627  0.00  0.00    +0.113 C 
ATOM     14  C   UNL     1      -0.372  -1.559  23.842  0.00  0.00    +0.130 C 
ATOM     15  C   UNL     1      -2.739  -0.828  26.425  0.00  0.00    +0.117 C 
ATOM     16  C   UNL     1      -0.615   0.201  25.601  0.00  0.00    +0.027 A 
ATOM     17  C   UNL     1      -0.433   1.466  26.017  0.00  0.00    +0.024 A 
ATOM     18  C   UNL     1       0.192   0.777  23.354  0.00  0.00    +0.273 A 
ATOM     19  C   UNL     1      -4.032  -0.548  24.243  0.00  0.00    +0.247 C 
ATOM     20  C   UNL     1       0.355   2.181  23.849  0.00  0.00    +0.099 A 
ATOM     21  C   UNL     1       0.061   2.473  25.121  0.00  0.00    +0.030 A 
ENDROOT
BRANCH  19  22
ATOM     22  C   UNL     1      -4.549   0.741  24.717  0.00  0.00    +0.037 A 
ATOM     23  C   UNL     1      -3.830   1.908  24.470  0.00  0.00    +0.016 A 
ATOM     24  C   UNL     1      -5.755   0.791  25.412  0.00  0.00    +0.016 A 
ATOM     26  C   UNL     1      -4.321   3.134  24.921  0.00  0.00    +0.046 A 
ATOM     27  C   UNL     1      -6.246   2.017  25.862  0.00  0.00    +0.046 A 
ATOM     28  C   UNL     1      -5.529   3.187  25.617  0.00  0.00    +0.120 A 
BRANCH  28   4
ATOM      4  O   UNL     1      -6.007   4.383  26.058  0.00  0.00    -0.495 OA
ATOM     34  C   UNL     1      -6.201   5.405  25.080  0.00  0.00    +0.277 C 
ENDBRANCH  28   4
ENDBRANCH  19  22
BRANCH  20   9
ATOM      3  O   UNL     1      -0.274   4.964  23.884  0.00  0.00    -0.270 OA
ATOM      9  N   UNL     1       0.812   3.120  22.972  0.00  0.00    -0.277 N 
ATOM     25  C   UNL     1       0.469   4.463  23.042  0.00  0.00    +0.248 C 
ATOM     37  H   UNL     1       1.307   2.752  22.168  0.00  0.00    +0.155 HD
BRANCH  25  29
ATOM     29  C   UNL     1       1.085   5.340  22.012  0.00  0.00    +0.038 A 
ATOM     30  C   UNL     1       2.270   4.947  21.426  0.00  0.00    +0.028 A 
ATOM     31  C   UNL     1       0.450   6.517  21.676  0.00  0.00    +0.013 A 
ATOM     32  C   UNL     1       2.848   5.770  20.459  0.00  0.00    +0.060 A 
ATOM     33  C   UNL     1       1.027   7.339  20.709  0.00  0.00    +0.002 A 
ATOM     35  C   UNL     1       2.226   6.967  20.100  0.00  0.00    +0.015 A 
BRANCH  32  36
ATOM      6  O   UNL     1       4.223   5.028  18.648  0.00  0.00    -0.245 OA
ATOM     36  C   UNL     1       4.098   5.382  19.825  0.00  0.00    +0.337 C 
BRANCH  36   5
ATOM      5  O   UNL     1       5.157   5.449  20.678  0.00  0.00    -0.477 OA
ATOM     38  H   UNL     1       5.932   5.883  20.263  0.00  0.00    +0.295 HD
ENDBRANCH  36   5
ENDBRANCH  32  36
ENDBRANCH  25  29
ENDBRANCH  20   9
TORSDOF 6
ENDMDL
