MODEL 1
REMARK VINA RESULT:       3.1      0.000      0.000
REMARK  Name = 40777502
REMARK  6 active torsions:
REMARK  status: ('A' for Active; 'I' for Inactive)
REMARK    1  A    between atoms: N_5  and  C_21
REMARK    2  A    between atoms: C_7  and  C_11
REMARK    3  A    between atoms: C_8  and  C_13
REMARK    4  A    between atoms: C_11  and  C_14
REMARK    5  A    between atoms: C_13  and  C_15
REMARK    6  A    between atoms: C_22  and  C_25
REMARK                            x       y       z     vdW  Elec       q    Type
REMARK                         _______ _______ _______ _____ _____    ______ ____
ROOT
ATOM      3  N   UNL     1      -6.511   3.075  25.532  0.00  0.00    -0.316 NA
ATOM      7  C   UNL     1      -3.971   1.607  25.217  0.00  0.00    +0.004 C 
ATOM      8  C   UNL     1      -4.039   3.149  25.314  0.00  0.00    +0.012 C 
ATOM      9  C   UNL     1      -5.212   1.006  25.899  0.00  0.00    +0.019 C 
ATOM     10  C   UNL     1      -5.392   3.691  24.819  0.00  0.00    +0.085 C 
ATOM     12  C   UNL     1      -6.514   1.620  25.386  0.00  0.00    +0.081 C 
ATOM     34  H   UNL     1      -7.388   3.451  25.170  0.00  0.00    +0.122 HD
ENDROOT
BRANCH   7  11
ATOM     11  C   UNL     1      -3.825   1.078  23.786  0.00  0.00    +0.100 C 
BRANCH  11  14
ATOM      1  O   UNL     1      -3.732  -1.295  23.817  0.00  0.00    -0.276 OA
ATOM      4  N   UNL     1      -1.698  -0.173  23.780  0.00  0.00    -0.298 N 
ATOM      5  N   UNL     1       1.187  -0.150  23.532  0.00  0.00    -0.327 N 
ATOM     14  C   UNL     1      -3.092  -0.242  23.794  0.00  0.00    +0.216 C 
ATOM     16  C   UNL     1      -0.916  -1.406  23.791  0.00  0.00    +0.126 C 
ATOM     17  C   UNL     1      -0.939   1.080  23.741  0.00  0.00    +0.126 C 
ATOM     18  C   UNL     1       0.388  -1.263  23.009  0.00  0.00    +0.124 C 
ATOM     19  C   UNL     1       0.493   0.920  24.253  0.00  0.00    +0.124 C 
BRANCH   5  21
ATOM     21  C   UNL     1       2.570  -0.133  23.377  0.00  0.00    +0.030 A 
ATOM     23  C   UNL     1       3.194   0.973  22.800  0.00  0.00    +0.023 A 
ATOM     24  C   UNL     1       3.333  -1.221  23.800  0.00  0.00    +0.023 A 
ATOM     26  C   UNL     1       4.579   0.990  22.644  0.00  0.00    +0.002 A 
ATOM     27  C   UNL     1       4.719  -1.204  23.645  0.00  0.00    +0.002 A 
ATOM     28  C   UNL     1       5.342  -0.098  23.067  0.00  0.00    +0.000 A 
ENDBRANCH   5  21
ENDBRANCH  11  14
ENDBRANCH   7  11
BRANCH   8  13
ATOM     13  C   UNL     1      -2.885   3.846  24.592  0.00  0.00    +0.064 C 
BRANCH  13  15
ATOM      2  O   UNL     1       0.525   3.824  25.747  0.00  0.00    -0.354 OA
ATOM      6  N   UNL     1      -0.449   4.106  24.798  0.00  0.00    -0.083 NA
ATOM     15  C   UNL     1      -1.596   3.695  25.348  0.00  0.00    +0.085 A 
ATOM     20  C   UNL     1      -1.409   3.150  26.630  0.00  0.00    +0.076 A 
ATOM     22  C   UNL     1      -0.058   3.255  26.833  0.00  0.00    +0.167 A 
BRANCH  22  25
ATOM     25  C   UNL     1       0.830   2.906  27.904  0.00  0.00    +0.020 A 
ATOM     29  C   UNL     1       2.207   3.064  27.748  0.00  0.00    +0.011 A 
ATOM     30  C   UNL     1       0.317   2.409  29.101  0.00  0.00    +0.011 A 
ATOM     31  C   UNL     1       3.071   2.725  28.790  0.00  0.00    +0.001 A 
ATOM     32  C   UNL     1       1.180   2.068  30.143  0.00  0.00    +0.001 A 
ATOM     33  C   UNL     1       2.557   2.226  29.986  0.00  0.00    +0.000 A 
ENDBRANCH  22  25
ENDBRANCH  13  15
ENDBRANCH   8  13
TORSDOF 6
ENDMDL
MODEL 2
REMARK VINA RESULT:       6.9      2.752      4.848
REMARK  Name = 40777502
REMARK  6 active torsions:
REMARK  status: ('A' for Active; 'I' for Inactive)
REMARK    1  A    between atoms: N_5  and  C_21
REMARK    2  A    between atoms: C_7  and  C_11
REMARK    3  A    between atoms: C_8  and  C_13
REMARK    4  A    between atoms: C_11  and  C_14
REMARK    5  A    between atoms: C_13  and  C_15
REMARK    6  A    between atoms: C_22  and  C_25
REMARK                            x       y       z     vdW  Elec       q    Type
REMARK                         _______ _______ _______ _____ _____    ______ ____
ROOT
ATOM      3  N   UNL     1      -1.724   5.601  25.730  0.00  0.00    -0.316 NA
ATOM      7  C   UNL     1      -3.190   3.779  23.931  0.00  0.00    +0.004 C 
ATOM      8  C   UNL     1      -3.884   4.579  25.058  0.00  0.00    +0.012 C 
ATOM      9  C   UNL     1      -1.898   4.506  23.522  0.00  0.00    +0.019 C 
ATOM     10  C   UNL     1      -2.915   4.899  26.209  0.00  0.00    +0.085 C 
ATOM     12  C   UNL     1      -1.005   4.826  24.721  0.00  0.00    +0.081 C 
ATOM     34  H   UNL     1      -1.103   5.787  26.518  0.00  0.00    +0.122 HD
ENDROOT
BRANCH   7  11
ATOM     11  C   UNL     1      -2.903   2.317  24.290  0.00  0.00    +0.100 C 
BRANCH  11  14
ATOM      1  O   UNL     1      -2.989   1.470  22.073  0.00  0.00    -0.276 OA
ATOM      4  N   UNL     1      -1.020   1.108  23.251  0.00  0.00    -0.298 N 
ATOM      5  N   UNL     1       1.741   0.244  23.380  0.00  0.00    -0.327 N 
ATOM     14  C   UNL     1      -2.318   1.597  23.099  0.00  0.00    +0.216 C 
ATOM     16  C   UNL     1      -0.384   0.396  22.145  0.00  0.00    +0.126 C 
ATOM     17  C   UNL     1      -0.219   1.269  24.467  0.00  0.00    +0.126 C 
ATOM     18  C   UNL     1       1.124   0.629  22.106  0.00  0.00    +0.124 C 
ATOM     19  C   UNL     1       0.901   0.234  24.580  0.00  0.00    +0.124 C 
BRANCH   5  21
ATOM     21  C   UNL     1       3.079  -0.138  23.435  0.00  0.00    +0.030 A 
ATOM     23  C   UNL     1       3.418  -1.438  23.811  0.00  0.00    +0.023 A 
ATOM     24  C   UNL     1       4.079   0.778  23.115  0.00  0.00    +0.023 A 
ATOM     26  C   UNL     1       4.758  -1.821  23.868  0.00  0.00    +0.002 A 
ATOM     27  C   UNL     1       5.420   0.396  23.171  0.00  0.00    +0.002 A 
ATOM     28  C   UNL     1       5.759  -0.904  23.547  0.00  0.00    +0.000 A 
ENDBRANCH   5  21
ENDBRANCH  11  14
ENDBRANCH   7  11
BRANCH   8  13
ATOM     13  C   UNL     1      -5.143   3.894  25.591  0.00  0.00    +0.064 C 
BRANCH  13  15
ATOM      2  O   UNL     1      -5.899   0.543  24.513  0.00  0.00    -0.354 OA
ATOM      6  N   UNL     1      -6.222   1.884  24.675  0.00  0.00    -0.083 NA
ATOM     15  C   UNL     1      -5.151   2.429  25.258  0.00  0.00    +0.085 A 
ATOM     20  C   UNL     1      -4.131   1.489  25.486  0.00  0.00    +0.076 A 
ATOM     22  C   UNL     1      -4.652   0.320  24.999  0.00  0.00    +0.167 A 
BRANCH  22  25
ATOM     25  C   UNL     1      -4.178  -1.030  24.900  0.00  0.00    +0.020 A 
ATOM     29  C   UNL     1      -4.491  -1.799  23.778  0.00  0.00    +0.011 A 
ATOM     30  C   UNL     1      -3.403  -1.574  25.923  0.00  0.00    +0.011 A 
ATOM     31  C   UNL     1      -4.029  -3.112  23.682  0.00  0.00    +0.001 A 
ATOM     32  C   UNL     1      -2.942  -2.888  25.828  0.00  0.00    +0.001 A 
ATOM     33  C   UNL     1      -3.256  -3.656  24.707  0.00  0.00    +0.000 A 
ENDBRANCH  22  25
ENDBRANCH  13  15
ENDBRANCH   8  13
TORSDOF 6
ENDMDL
