MODEL 1
REMARK VINA RESULT:       1.5      0.000      0.000
REMARK  Name = 51137092
REMARK  5 active torsions:
REMARK  status: ('A' for Active; 'I' for Inactive)
REMARK    1  A    between atoms: S_2  and  C_18
REMARK    2  A    between atoms: S_2  and  C_25
REMARK    3  A    between atoms: N_5  and  C_11
REMARK    4  A    between atoms: C_7  and  C_12
REMARK    5  A    between atoms: C_11  and  C_13
REMARK                            x       y       z     vdW  Elec       q    Type
REMARK                         _______ _______ _______ _____ _____    ______ ____
ROOT
ATOM      5  N   UNL     1      -2.710  -2.133  24.577  0.00  0.00    -0.297 NA
ATOM      7  C   UNL     1      -0.366  -2.216  24.559  0.00  0.00    +0.060 C 
ATOM      8  C   UNL     1      -1.583  -1.977  23.654  0.00  0.00    +0.095 C 
ATOM      9  C   UNL     1      -0.857  -1.867  25.974  0.00  0.00    +0.027 C 
ATOM     10  C   UNL     1      -2.304  -1.426  25.792  0.00  0.00    +0.085 C 
ENDROOT
BRANCH   7  12
ATOM      1  S   UNL     1       0.665   0.029  23.286  0.00  0.00    -0.072 S 
ATOM      6  N   UNL     1       2.095  -1.863  24.300  0.00  0.00    -0.244 NA
ATOM     12  C   UNL     1       0.861  -1.458  24.107  0.00  0.00    +0.084 A 
ATOM     14  C   UNL     1       2.380   0.174  23.161  0.00  0.00    +0.039 A 
ATOM     15  C   UNL     1       2.978  -0.937  23.763  0.00  0.00    +0.078 A 
ATOM     21  C   UNL     1       3.139   1.198  22.573  0.00  0.00    +0.017 A 
ATOM     22  C   UNL     1       4.387  -1.024  23.775  0.00  0.00    +0.029 A 
ATOM     23  C   UNL     1       4.533   1.087  22.598  0.00  0.00    +0.001 A 
ATOM     24  C   UNL     1       5.149  -0.009  23.191  0.00  0.00    +0.002 A 
ENDBRANCH   7  12
BRANCH   5  11
ATOM     11  C   UNL     1      -3.954  -1.619  24.026  0.00  0.00    +0.119 C 
BRANCH  11  13
ATOM     13  C   UNL     1      -4.112  -0.143  24.279  0.00  0.00    -0.033 A 
ATOM     16  C   UNL     1      -5.059   0.310  25.197  0.00  0.00    +0.007 A 
ATOM     17  C   UNL     1      -3.311   0.771  23.594  0.00  0.00    +0.007 A 
ATOM     18  C   UNL     1      -4.403   2.592  24.746  0.00  0.00    +0.088 A 
ATOM     19  C   UNL     1      -5.204   1.677  25.430  0.00  0.00    +0.027 A 
ATOM     20  C   UNL     1      -3.456   2.138  23.828  0.00  0.00    +0.027 A 
BRANCH  18   2
ATOM      2  S   UNL     1      -4.583   4.303  25.041  0.00  0.00    -0.006 S 
ATOM      3  O   UNL     1      -4.248   5.031  23.825  0.00  0.00    -0.170 OA
ATOM      4  O   UNL     1      -5.876   4.514  25.676  0.00  0.00    -0.170 OA
ATOM     25  C   UNL     1      -3.320   4.681  26.236  0.00  0.00    +0.200 C 
ENDBRANCH  18   2
ENDBRANCH  11  13
ENDBRANCH   5  11
TORSDOF 4
ENDMDL
MODEL 2
REMARK VINA RESULT:       2.8      0.837      1.279
REMARK  Name = 51137092
REMARK  5 active torsions:
REMARK  status: ('A' for Active; 'I' for Inactive)
REMARK    1  A    between atoms: S_2  and  C_18
REMARK    2  A    between atoms: S_2  and  C_25
REMARK    3  A    between atoms: N_5  and  C_11
REMARK    4  A    between atoms: C_7  and  C_12
REMARK    5  A    between atoms: C_11  and  C_13
REMARK                            x       y       z     vdW  Elec       q    Type
REMARK                         _______ _______ _______ _____ _____    ______ ____
ROOT
ATOM      5  N   UNL     1      -2.853  -1.824  24.498  0.00  0.00    -0.297 NA
ATOM      7  C   UNL     1      -0.538  -2.143  24.292  0.00  0.00    +0.060 C 
ATOM      8  C   UNL     1      -1.759  -1.573  23.556  0.00  0.00    +0.095 C 
ATOM      9  C   UNL     1      -0.919  -2.086  25.781  0.00  0.00    +0.027 C 
ATOM     10  C   UNL     1      -2.311  -1.467  25.809  0.00  0.00    +0.085 C 
ENDROOT
BRANCH   7  12
ATOM      1  S   UNL     1       0.670   0.067  23.116  0.00  0.00    -0.072 S 
ATOM      6  N   UNL     1       1.947  -1.886  24.216  0.00  0.00    -0.244 NA
ATOM     12  C   UNL     1       0.747  -1.431  23.937  0.00  0.00    +0.084 A 
ATOM     14  C   UNL     1       2.393   0.145  23.118  0.00  0.00    +0.039 A 
ATOM     15  C   UNL     1       2.902  -0.993  23.753  0.00  0.00    +0.078 A 
ATOM     21  C   UNL     1       3.234   1.141  22.595  0.00  0.00    +0.017 A 
ATOM     22  C   UNL     1       4.302  -1.135  23.867  0.00  0.00    +0.029 A 
ATOM     23  C   UNL     1       4.616   0.975  22.721  0.00  0.00    +0.001 A 
ATOM     24  C   UNL     1       5.144  -0.148  23.349  0.00  0.00    +0.002 A 
ENDBRANCH   7  12
BRANCH   5  11
ATOM     11  C   UNL     1      -4.052  -1.068  24.170  0.00  0.00    +0.119 C 
BRANCH  11  13
ATOM     13  C   UNL     1      -3.861   0.409  24.387  0.00  0.00    -0.033 A 
ATOM     16  C   UNL     1      -2.788   1.069  23.789  0.00  0.00    +0.007 A 
ATOM     17  C   UNL     1      -4.758   1.118  25.187  0.00  0.00    +0.007 A 
ATOM     18  C   UNL     1      -3.508   3.147  24.790  0.00  0.00    +0.088 A 
ATOM     19  C   UNL     1      -2.611   2.437  23.991  0.00  0.00    +0.027 A 
ATOM     20  C   UNL     1      -4.581   2.487  25.388  0.00  0.00    +0.027 A 
BRANCH  18   2
ATOM      2  S   UNL     1      -3.289   4.861  25.039  0.00  0.00    -0.006 S 
ATOM      3  O   UNL     1      -3.813   5.577  23.884  0.00  0.00    -0.170 OA
ATOM      4  O   UNL     1      -3.776   5.186  26.372  0.00  0.00    -0.170 OA
ATOM     25  C   UNL     1      -1.524   5.087  25.031  0.00  0.00    +0.200 C 
ENDBRANCH  18   2
ENDBRANCH  11  13
ENDBRANCH   5  11
TORSDOF 4
ENDMDL
MODEL 3
REMARK VINA RESULT:       3.3      3.000      6.659
REMARK  Name = 51137092
REMARK  5 active torsions:
REMARK  status: ('A' for Active; 'I' for Inactive)
REMARK    1  A    between atoms: S_2  and  C_18
REMARK    2  A    between atoms: S_2  and  C_25
REMARK    3  A    between atoms: N_5  and  C_11
REMARK    4  A    between atoms: C_7  and  C_12
REMARK    5  A    between atoms: C_11  and  C_13
REMARK                            x       y       z     vdW  Elec       q    Type
REMARK                         _______ _______ _______ _____ _____    ______ ____
ROOT
ATOM      5  N   UNL     1      -3.229  -1.918  25.101  0.00  0.00    -0.297 NA
ATOM      7  C   UNL     1      -4.009   0.266  25.455  0.00  0.00    +0.060 C 
ATOM      8  C   UNL     1      -2.768  -0.625  25.615  0.00  0.00    +0.095 C 
ATOM      9  C   UNL     1      -4.820  -0.394  24.327  0.00  0.00    +0.027 C 
ATOM     10  C   UNL     1      -3.989  -1.595  23.894  0.00  0.00    +0.085 C 
ENDROOT
BRANCH   7  12
ATOM      1  S   UNL     1      -4.859   2.769  24.597  0.00  0.00    -0.072 S 
ATOM      6  N   UNL     1      -2.488   2.249  25.470  0.00  0.00    -0.244 NA
ATOM     12  C   UNL     1      -3.663   1.719  25.224  0.00  0.00    +0.084 A 
ATOM     14  C   UNL     1      -3.729   4.070  24.649  0.00  0.00    +0.039 A 
ATOM     15  C   UNL     1      -2.510   3.598  25.146  0.00  0.00    +0.078 A 
ATOM     21  C   UNL     1      -3.908   5.412  24.276  0.00  0.00    +0.017 A 
ATOM     22  C   UNL     1      -1.434   4.504  25.273  0.00  0.00    +0.029 A 
ATOM     23  C   UNL     1      -2.826   6.287  24.411  0.00  0.00    +0.001 A 
ATOM     24  C   UNL     1      -1.606   5.840  24.903  0.00  0.00    +0.002 A 
ENDBRANCH   7  12
BRANCH   5  11
ATOM     11  C   UNL     1      -2.129  -2.833  24.835  0.00  0.00    +0.119 C 
BRANCH  11  13
ATOM     13  C   UNL     1      -0.907  -2.110  24.334  0.00  0.00    -0.033 A 
ATOM     16  C   UNL     1       0.312  -2.259  24.995  0.00  0.00    +0.007 A 
ATOM     17  C   UNL     1      -0.994  -1.291  23.208  0.00  0.00    +0.007 A 
ATOM     18  C   UNL     1       1.356  -0.770  23.405  0.00  0.00    +0.088 A 
ATOM     19  C   UNL     1       1.443  -1.589  24.531  0.00  0.00    +0.027 A 
ATOM     20  C   UNL     1       0.137  -0.622  22.743  0.00  0.00    +0.027 A 
BRANCH  18   2
ATOM      2  S   UNL     1       2.774   0.065  22.821  0.00  0.00    -0.006 S 
ATOM      3  O   UNL     1       2.863  -0.107  21.377  0.00  0.00    -0.170 OA
ATOM      4  O   UNL     1       2.770   1.406  23.389  0.00  0.00    -0.170 OA
ATOM     25  C   UNL     1       4.138  -0.826  23.535  0.00  0.00    +0.200 C 
ENDBRANCH  18   2
ENDBRANCH  11  13
ENDBRANCH   5  11
TORSDOF 4
ENDMDL
MODEL 4
REMARK VINA RESULT:       5.0      2.455      5.363
REMARK  Name = 51137092
REMARK  5 active torsions:
REMARK  status: ('A' for Active; 'I' for Inactive)
REMARK    1  A    between atoms: S_2  and  C_18
REMARK    2  A    between atoms: S_2  and  C_25
REMARK    3  A    between atoms: N_5  and  C_11
REMARK    4  A    between atoms: C_7  and  C_12
REMARK    5  A    between atoms: C_11  and  C_13
REMARK                            x       y       z     vdW  Elec       q    Type
REMARK                         _______ _______ _______ _____ _____    ______ ____
ROOT
ATOM      5  N   UNL     1       0.474   2.749  24.999  0.00  0.00    -0.297 NA
ATOM      7  C   UNL     1       0.203   0.426  24.822  0.00  0.00    +0.060 C 
ATOM      8  C   UNL     1      -0.381   1.672  25.503  0.00  0.00    +0.095 C 
ATOM      9  C   UNL     1       0.892   0.962  23.556  0.00  0.00    +0.027 C 
ATOM     10  C   UNL     1       0.640   2.464  23.574  0.00  0.00    +0.085 C 
ENDROOT
BRANCH   7  12
ATOM      1  S   UNL     1      -0.354  -2.290  24.632  0.00  0.00    -0.072 S 
ATOM      6  N   UNL     1      -2.096  -0.414  24.315  0.00  0.00    -0.244 NA
ATOM     12  C   UNL     1      -0.831  -0.648  24.576  0.00  0.00    +0.084 A 
ATOM     14  C   UNL     1      -1.975  -2.762  24.278  0.00  0.00    +0.039 A 
ATOM     15  C   UNL     1      -2.765  -1.616  24.142  0.00  0.00    +0.078 A 
ATOM     21  C   UNL     1      -2.507  -4.053  24.130  0.00  0.00    +0.017 A 
ATOM     22  C   UNL     1      -4.138  -1.772  23.848  0.00  0.00    +0.029 A 
ATOM     23  C   UNL     1      -3.869  -4.178  23.839  0.00  0.00    +0.001 A 
ATOM     24  C   UNL     1      -4.674  -3.054  23.700  0.00  0.00    +0.002 A 
ENDBRANCH   7  12
BRANCH   5  11
ATOM     11  C   UNL     1      -0.094   4.068  25.238  0.00  0.00    +0.119 C 
BRANCH  11  13
ATOM     13  C   UNL     1      -1.593   4.016  25.371  0.00  0.00    -0.033 A 
ATOM     16  C   UNL     1      -2.388   3.837  24.239  0.00  0.00    +0.007 A 
ATOM     17  C   UNL     1      -2.186   4.148  26.627  0.00  0.00    +0.007 A 
ATOM     18  C   UNL     1      -4.370   3.922  25.619  0.00  0.00    +0.088 A 
ATOM     19  C   UNL     1      -3.776   3.790  24.363  0.00  0.00    +0.027 A 
ATOM     20  C   UNL     1      -3.574   4.101  26.750  0.00  0.00    +0.027 A 
BRANCH  18   2
ATOM      2  S   UNL     1      -6.107   3.859  25.774  0.00  0.00    -0.006 S 
ATOM      3  O   UNL     1      -6.446   3.195  27.026  0.00  0.00    -0.170 OA
ATOM      4  O   UNL     1      -6.631   5.189  25.497  0.00  0.00    -0.170 OA
ATOM     25  C   UNL     1      -6.630   2.781  24.458  0.00  0.00    +0.200 C 
ENDBRANCH  18   2
ENDBRANCH  11  13
ENDBRANCH   5  11
TORSDOF 4
ENDMDL
