MODEL 1
REMARK VINA RESULT:      -1.9      0.000      0.000
REMARK  Name = 11885228
REMARK  6 active torsions:
REMARK  status: ('A' for Active; 'I' for Inactive)
REMARK    1  A    between atoms: N_6  and  C_24
REMARK    2  A    between atoms: N_6  and  C_30
REMARK    3  A    between atoms: N_6  and  C_31
REMARK    4  A    between atoms: C_16  and  C_20
REMARK    5  A    between atoms: C_17  and  C_19
REMARK    6  A    between atoms: C_21  and  C_24
REMARK                            x       y       z     vdW  Elec       q    Type
REMARK                         _______ _______ _______ _____ _____    ______ ____
ROOT
ATOM      2  O   UNL     1      14.737  -8.332  26.715  0.00  0.00    -0.267 OA
ATOM      3  O   UNL     1      11.887  -7.057  30.754  0.00  0.00    -0.269 OA
ATOM      4  N   UNL     1      15.287  -8.876  28.916  0.00  0.00    -0.311 N 
ATOM      5  N   UNL     1      13.620  -8.407  31.558  0.00  0.00    -0.296 N 
ATOM      7  C   UNL     1      13.917 -10.536  30.308  0.00  0.00    +0.027 C 
ATOM      8  C   UNL     1      15.872  -9.419  31.303  0.00  0.00    +0.054 C 
ATOM      9  C   UNL     1      15.227 -10.781  31.047  0.00  0.00    +0.018 C 
ATOM     10  C   UNL     1      14.230  -9.898  28.947  0.00  0.00    +0.130 C 
ATOM     11  C   UNL     1      12.978  -9.658  31.157  0.00  0.00    +0.113 C 
ATOM     12  C   UNL     1      14.942  -8.564  32.188  0.00  0.00    +0.117 C 
ATOM     13  C   UNL     1      16.145  -8.690  30.002  0.00  0.00    +0.027 A 
ATOM     14  C   UNL     1      17.179  -7.839  29.906  0.00  0.00    +0.022 A 
ATOM     15  C   UNL     1      15.452  -8.173  27.706  0.00  0.00    +0.259 A 
ATOM     16  C   UNL     1      12.991  -7.191  31.280  0.00  0.00    +0.253 C 
ATOM     17  C   UNL     1      16.591  -7.192  27.647  0.00  0.00    +0.047 A 
ATOM     18  C   UNL     1      17.399  -7.077  28.711  0.00  0.00    +0.015 A 
ENDROOT
BRANCH  17  19
ATOM     19  C   UNL     1      16.815  -6.356  26.456  0.00  0.00    -0.008 A 
ATOM     21  C   UNL     1      17.201  -5.018  26.567  0.00  0.00    -0.026 A 
ATOM     22  C   UNL     1      16.632  -6.921  25.192  0.00  0.00    +0.009 A 
ATOM     25  C   UNL     1      17.405  -4.251  25.421  0.00  0.00    +0.005 A 
ATOM     27  C   UNL     1      16.836  -6.153  24.045  0.00  0.00    +0.001 A 
ATOM     29  C   UNL     1      17.223  -4.818  24.159  0.00  0.00    +0.000 A 
BRANCH  21  24
ATOM     24  C   UNL     1      17.405  -4.376  27.902  0.00  0.00    +0.119 C 
BRANCH  24   6
ATOM      6  N   UNL     1      16.775  -3.058  27.985  0.00  0.00    -0.304 NA
ATOM     30  C   UNL     1      17.403  -2.131  27.043  0.00  0.00    +0.104 C 
ATOM     31  C   UNL     1      16.860  -2.537  29.349  0.00  0.00    +0.104 C 
ENDBRANCH  24   6
ENDBRANCH  21  24
ENDBRANCH  17  19
BRANCH  16  20
ATOM      1  S   UNL     1      13.026  -4.901  32.780  0.00  0.00    -0.092 S 
ATOM     20  C   UNL     1      13.703  -5.953  31.615  0.00  0.00    +0.074 A 
ATOM     23  C   UNL     1      14.891  -5.484  31.112  0.00  0.00    +0.021 A 
ATOM     26  C   UNL     1      15.256  -4.235  31.693  0.00  0.00    +0.008 A 
ATOM     28  C   UNL     1      14.330  -3.804  32.617  0.00  0.00    +0.046 A 
ENDBRANCH  16  20
TORSDOF 4
ENDMDL
MODEL 2
REMARK VINA RESULT:      -0.6      1.503      1.980
REMARK  Name = 11885228
REMARK  6 active torsions:
REMARK  status: ('A' for Active; 'I' for Inactive)
REMARK    1  A    between atoms: N_6  and  C_24
REMARK    2  A    between atoms: N_6  and  C_30
REMARK    3  A    between atoms: N_6  and  C_31
REMARK    4  A    between atoms: C_16  and  C_20
REMARK    5  A    between atoms: C_17  and  C_19
REMARK    6  A    between atoms: C_21  and  C_24
REMARK                            x       y       z     vdW  Elec       q    Type
REMARK                         _______ _______ _______ _____ _____    ______ ____
ROOT
ATOM      2  O   UNL     1      14.115  -6.915  27.087  0.00  0.00    -0.267 OA
ATOM      3  O   UNL     1      13.133  -4.255  31.332  0.00  0.00    -0.269 OA
ATOM      4  N   UNL     1      14.790  -7.577  29.219  0.00  0.00    -0.311 N 
ATOM      5  N   UNL     1      14.144  -6.252  32.013  0.00  0.00    -0.296 N 
ATOM      7  C   UNL     1      13.124  -8.296  31.030  0.00  0.00    +0.027 C 
ATOM      8  C   UNL     1      15.535  -8.249  31.528  0.00  0.00    +0.054 C 
ATOM      9  C   UNL     1      14.284  -9.126  31.569  0.00  0.00    +0.018 C 
ATOM     10  C   UNL     1      13.409  -7.945  29.563  0.00  0.00    +0.130 C 
ATOM     11  C   UNL     1      12.917  -7.040  31.896  0.00  0.00    +0.113 C 
ATOM     12  C   UNL     1      15.331  -7.015  32.431  0.00  0.00    +0.117 C 
ATOM     13  C   UNL     1      15.840  -7.797  30.113  0.00  0.00    +0.027 A 
ATOM     14  C   UNL     1      17.108  -7.569  29.734  0.00  0.00    +0.022 A 
ATOM     15  C   UNL     1      15.010  -7.091  27.916  0.00  0.00    +0.259 A 
ATOM     16  C   UNL     1      14.123  -4.895  31.681  0.00  0.00    +0.253 C 
ATOM     17  C   UNL     1      16.436  -6.800  27.537  0.00  0.00    +0.047 A 
ATOM     18  C   UNL     1      17.405  -7.057  28.427  0.00  0.00    +0.015 A 
ENDROOT
BRANCH  17  19
ATOM     19  C   UNL     1      16.774  -6.226  26.223  0.00  0.00    -0.008 A 
ATOM     21  C   UNL     1      17.068  -4.868  26.075  0.00  0.00    -0.026 A 
ATOM     22  C   UNL     1      16.796  -7.065  25.107  0.00  0.00    +0.009 A 
ATOM     25  C   UNL     1      17.383  -4.354  24.818  0.00  0.00    +0.005 A 
ATOM     27  C   UNL     1      17.111  -6.550  23.850  0.00  0.00    +0.001 A 
ATOM     29  C   UNL     1      17.405  -5.194  23.705  0.00  0.00    +0.000 A 
BRANCH  21  24
ATOM     24  C   UNL     1      17.053  -3.937  27.245  0.00  0.00    +0.119 C 
BRANCH  24   6
ATOM      6  N   UNL     1      17.309  -2.551  26.852  0.00  0.00    -0.304 NA
ATOM     30  C   UNL     1      17.404  -1.695  28.034  0.00  0.00    +0.104 C 
ATOM     31  C   UNL     1      16.255  -2.072  25.957  0.00  0.00    +0.104 C 
ENDBRANCH  24   6
ENDBRANCH  21  24
ENDBRANCH  17  19
BRANCH  16  20
ATOM      1  S   UNL     1      16.007  -3.491  30.275  0.00  0.00    -0.092 S 
ATOM     20  C   UNL     1      15.389  -4.155  31.724  0.00  0.00    +0.074 A 
ATOM     23  C   UNL     1      16.197  -3.899  32.805  0.00  0.00    +0.021 A 
ATOM     26  C   UNL     1      17.348  -3.143  32.439  0.00  0.00    +0.008 A 
ATOM     28  C   UNL     1      17.369  -2.852  31.094  0.00  0.00    +0.046 A 
ENDBRANCH  16  20
TORSDOF 4
ENDMDL
MODEL 3
REMARK VINA RESULT:      -0.3      2.653      7.381
REMARK  Name = 11885228
REMARK  6 active torsions:
REMARK  status: ('A' for Active; 'I' for Inactive)
REMARK    1  A    between atoms: N_6  and  C_24
REMARK    2  A    between atoms: N_6  and  C_30
REMARK    3  A    between atoms: N_6  and  C_31
REMARK    4  A    between atoms: C_16  and  C_20
REMARK    5  A    between atoms: C_17  and  C_19
REMARK    6  A    between atoms: C_21  and  C_24
REMARK                            x       y       z     vdW  Elec       q    Type
REMARK                         _______ _______ _______ _____ _____    ______ ____
ROOT
ATOM      2  O   UNL     1      12.223  -5.252  31.408  0.00  0.00    -0.267 OA
ATOM      3  O   UNL     1      15.286  -6.296  27.460  0.00  0.00    -0.269 OA
ATOM      4  N   UNL     1      14.507  -5.678  31.614  0.00  0.00    -0.311 N 
ATOM      5  N   UNL     1      16.659  -6.137  29.348  0.00  0.00    -0.296 N 
ATOM      7  C   UNL     1      16.294  -4.084  30.701  0.00  0.00    +0.027 C 
ATOM      8  C   UNL     1      16.967  -6.176  31.810  0.00  0.00    +0.054 C 
ATOM      9  C   UNL     1      17.173  -4.662  31.805  0.00  0.00    +0.018 C 
ATOM     10  C   UNL     1      14.824  -4.360  31.046  0.00  0.00    +0.130 C 
ATOM     11  C   UNL     1      16.690  -4.675  29.336  0.00  0.00    +0.113 C 
ATOM     12  C   UNL     1      17.405  -6.762  30.452  0.00  0.00    +0.117 C 
ATOM     13  C   UNL     1      15.515  -6.530  32.070  0.00  0.00    +0.027 A 
ATOM     14  C   UNL     1      15.199  -7.674  32.697  0.00  0.00    +0.022 A 
ATOM     15  C   UNL     1      13.142  -5.990  31.767  0.00  0.00    +0.259 A 
ATOM     16  C   UNL     1      15.910  -6.816  28.384  0.00  0.00    +0.253 C 
ATOM     17  C   UNL     1      12.821  -7.302  32.431  0.00  0.00    +0.047 A 
ATOM     18  C   UNL     1      13.830  -8.065  32.873  0.00  0.00    +0.015 A 
ENDROOT
BRANCH  17  19
ATOM     19  C   UNL     1      11.429  -7.758  32.582  0.00  0.00    -0.008 A 
ATOM     21  C   UNL     1      11.111  -9.117  32.655  0.00  0.00    -0.026 A 
ATOM     22  C   UNL     1      10.411  -6.804  32.650  0.00  0.00    +0.009 A 
ATOM     25  C   UNL     1       9.784  -9.518  32.798  0.00  0.00    +0.005 A 
ATOM     27  C   UNL     1       9.083  -7.206  32.792  0.00  0.00    +0.001 A 
ATOM     29  C   UNL     1       8.769  -8.563  32.866  0.00  0.00    +0.000 A 
BRANCH  21  24
ATOM     24  C   UNL     1      12.172 -10.168  32.585  0.00  0.00    +0.119 C 
BRANCH  24   6
ATOM      6  N   UNL     1      12.256 -10.781  31.259  0.00  0.00    -0.304 NA
ATOM     30  C   UNL     1      13.288 -10.125  30.457  0.00  0.00    +0.104 C 
ATOM     31  C   UNL     1      10.960 -10.712  30.582  0.00  0.00    +0.104 C 
ENDBRANCH  24   6
ENDBRANCH  21  24
ENDBRANCH  17  19
BRANCH  16  20
ATOM      1  S   UNL     1      14.979  -9.137  27.268  0.00  0.00    -0.092 S 
ATOM     20  C   UNL     1      15.828  -8.278  28.478  0.00  0.00    +0.074 A 
ATOM     23  C   UNL     1      16.356  -9.107  29.437  0.00  0.00    +0.021 A 
ATOM     26  C   UNL     1      16.059 -10.476  29.177  0.00  0.00    +0.008 A 
ATOM     28  C   UNL     1      15.317 -10.635  28.027  0.00  0.00    +0.046 A 
ENDBRANCH  16  20
TORSDOF 4
ENDMDL
