MODEL 1
REMARK VINA RESULT:       3.6      0.000      0.000
REMARK  Name = 45361537
REMARK  10 active torsions:
REMARK  status: ('A' for Active; 'I' for Inactive)
REMARK    1  A    between atoms: O_1  and  C_10
REMARK    2  A    between atoms: O_4  and  C_27
REMARK    3  A    between atoms: O_4  and  C_28
REMARK    4  A    between atoms: N_5  and  C_14
REMARK    5  A    between atoms: C_7  and  C_17
REMARK    6  A    between atoms: C_9  and  C_19
REMARK    7  A    between atoms: C_12  and  C_18
REMARK    8  A    between atoms: C_18  and  C_20
REMARK    9  A    between atoms: C_18  and  C_21
REMARK   10  A    between atoms: C_22  and  C_27
REMARK                            x       y       z     vdW  Elec       q    Type
REMARK                         _______ _______ _______ _____ _____    ______ ____
ROOT
ATOM      7  C   UNL     1      -2.174  -0.797  25.400  0.00  0.00    -0.027 C 
ATOM      8  C   UNL     1      -2.354   0.250  24.251  0.00  0.00    +0.028 C 
ATOM      9  C   UNL     1      -0.965   0.651  23.639  0.00  0.00    +0.012 C 
ATOM     10  C   UNL     1      -3.254   1.436  24.704  0.00  0.00    +0.122 C 
ATOM     11  C   UNL     1      -3.564  -1.256  25.904  0.00  0.00    +0.007 C 
ATOM     12  C   UNL     1      -4.600   0.966  25.303  0.00  0.00    +0.029 C 
ATOM     13  C   UNL     1      -1.443  -2.040  24.842  0.00  0.00    +0.009 C 
ATOM     14  C   UNL     1      -0.205  -0.613  23.149  0.00  0.00    +0.076 C 
ATOM     15  C   UNL     1      -4.432  -0.101  26.384  0.00  0.00    +0.007 C 
ATOM     16  C   UNL     1      -0.098  -1.708  24.211  0.00  0.00    +0.023 C 
ATOM     17  C   UNL     1      -1.373  -0.231  26.601  0.00  0.00    +0.011 C 
ATOM     19  C   UNL     1      -1.069   1.659  22.482  0.00  0.00    +0.010 C 
ENDROOT
BRANCH  14   5
ATOM      3  O   UNL     1       0.764  -0.699  20.424  0.00  0.00    -0.272 OA
ATOM      5  N   UNL     1       1.128  -0.293  22.684  0.00  0.00    -0.309 N 
ATOM     22  C   UNL     1       1.496  -0.365  21.352  0.00  0.00    +0.251 C 
ATOM     34  H   UNL     1       1.833  -0.066  23.381  0.00  0.00    +0.149 HD
BRANCH  22  27
ATOM     27  C   UNL     1       2.945   0.025  21.153  0.00  0.00    +0.324 C 
BRANCH  27   4
ATOM      4  O   UNL     1       3.422   0.757  22.261  0.00  0.00    -0.483 OA
BRANCH   4  28
ATOM     28  C   UNL     1       4.342   0.137  23.074  0.00  0.00    +0.121 A 
ATOM     29  C   UNL     1       4.154  -1.192  23.453  0.00  0.00    +0.045 A 
ATOM     30  C   UNL     1       5.463   0.838  23.518  0.00  0.00    +0.045 A 
ATOM     31  C   UNL     1       5.088  -1.821  24.278  0.00  0.00    +0.004 A 
ATOM     32  C   UNL     1       6.397   0.209  24.343  0.00  0.00    +0.004 A 
ATOM     33  C   UNL     1       6.209  -1.120  24.722  0.00  0.00    +0.000 A 
ENDBRANCH   4  28
ENDBRANCH  27   4
ENDBRANCH  22  27
ENDBRANCH  14   5
BRANCH  10   1
ATOM      1  O   UNL     1      -3.570   2.252  23.575  0.00  0.00    -0.391 OA
ATOM     35  H   UNL     1      -2.754   2.688  23.279  0.00  0.00    +0.210 HD
ENDBRANCH  10   1
BRANCH  12  18
ATOM     18  C   UNL     1      -5.415   2.139  25.861  0.00  0.00    +0.078 C 
ATOM     20  C   UNL     1      -6.904   1.905  25.679  0.00  0.00    +0.017 C 
BRANCH  18  21
ATOM      2  O   UNL     1      -5.780   3.975  24.387  0.00  0.00    -0.275 OA
ATOM      6  N   UNL     1      -3.709   3.831  25.401  0.00  0.00    -0.301 N 
ATOM     21  C   UNL     1      -4.998   3.400  25.146  0.00  0.00    +0.219 C 
ATOM     23  C   UNL     1      -3.153   5.026  24.785  0.00  0.00    +0.108 C 
ATOM     24  C   UNL     1      -2.738   3.200  26.289  0.00  0.00    +0.108 C 
ATOM     25  C   UNL     1      -1.881   5.305  25.572  0.00  0.00    +0.020 C 
ATOM     26  C   UNL     1      -1.427   3.910  25.984  0.00  0.00    +0.020 C 
ENDBRANCH  18  21
ENDBRANCH  12  18
TORSDOF 7
ENDMDL
MODEL 2
REMARK VINA RESULT:       4.3      1.290      1.796
REMARK  Name = 45361537
REMARK  10 active torsions:
REMARK  status: ('A' for Active; 'I' for Inactive)
REMARK    1  A    between atoms: O_1  and  C_10
REMARK    2  A    between atoms: O_4  and  C_27
REMARK    3  A    between atoms: O_4  and  C_28
REMARK    4  A    between atoms: N_5  and  C_14
REMARK    5  A    between atoms: C_7  and  C_17
REMARK    6  A    between atoms: C_9  and  C_19
REMARK    7  A    between atoms: C_12  and  C_18
REMARK    8  A    between atoms: C_18  and  C_20
REMARK    9  A    between atoms: C_18  and  C_21
REMARK   10  A    between atoms: C_22  and  C_27
REMARK                            x       y       z     vdW  Elec       q    Type
REMARK                         _______ _______ _______ _____ _____    ______ ____
ROOT
ATOM      7  C   UNL     1      -2.242  -0.707  25.215  0.00  0.00    -0.027 C 
ATOM      8  C   UNL     1      -2.591   0.193  23.985  0.00  0.00    +0.028 C 
ATOM      9  C   UNL     1      -1.304   0.899  23.426  0.00  0.00    +0.012 C 
ATOM     10  C   UNL     1      -3.789   1.136  24.298  0.00  0.00    +0.122 C 
ATOM     11  C   UNL     1      -3.506  -1.475  25.671  0.00  0.00    +0.007 C 
ATOM     12  C   UNL     1      -5.016   0.375  24.851  0.00  0.00    +0.029 C 
ATOM     13  C   UNL     1      -1.184  -1.754  24.792  0.00  0.00    +0.009 C 
ATOM     14  C   UNL     1      -0.220  -0.157  23.073  0.00  0.00    +0.076 C 
ATOM     15  C   UNL     1      -4.668  -0.552  26.015  0.00  0.00    +0.007 C 
ATOM     16  C   UNL     1       0.078  -1.127  24.216  0.00  0.00    +0.023 C 
ATOM     17  C   UNL     1      -1.697   0.110  26.415  0.00  0.00    +0.011 C 
ATOM     19  C   UNL     1      -1.572   1.781  22.194  0.00  0.00    +0.010 C 
ENDROOT
BRANCH  14   5
ATOM      3  O   UNL     1       1.162   2.018  24.387  0.00  0.00    -0.272 OA
ATOM      5  N   UNL     1       1.022   0.464  22.663  0.00  0.00    -0.309 N 
ATOM     22  C   UNL     1       1.607   1.505  23.363  0.00  0.00    +0.251 C 
ATOM     34  H   UNL     1       1.443   0.157  21.791  0.00  0.00    +0.149 HD
BRANCH  22  27
ATOM     27  C   UNL     1       2.896   1.958  22.713  0.00  0.00    +0.324 C 
BRANCH  27   4
ATOM      4  O   UNL     1       3.558   0.870  22.104  0.00  0.00    -0.483 OA
BRANCH   4  28
ATOM     28  C   UNL     1       4.335   0.075  22.913  0.00  0.00    +0.121 A 
ATOM     29  C   UNL     1       5.527   0.572  23.440  0.00  0.00    +0.045 A 
ATOM     30  C   UNL     1       3.931  -1.227  23.208  0.00  0.00    +0.045 A 
ATOM     31  C   UNL     1       6.317  -0.234  24.261  0.00  0.00    +0.004 A 
ATOM     32  C   UNL     1       4.720  -2.033  24.028  0.00  0.00    +0.004 A 
ATOM     33  C   UNL     1       5.913  -1.536  24.555  0.00  0.00    +0.000 A 
ENDBRANCH   4  28
ENDBRANCH  27   4
ENDBRANCH  22  27
ENDBRANCH  14   5
BRANCH  10   1
ATOM      1  O   UNL     1      -4.215   1.780  23.096  0.00  0.00    -0.391 OA
ATOM     35  H   UNL     1      -4.909   1.234  22.690  0.00  0.00    +0.210 HD
ENDBRANCH  10   1
BRANCH  12  18
ATOM     18  C   UNL     1      -6.136   1.332  25.275  0.00  0.00    +0.078 C 
ATOM     20  C   UNL     1      -6.625   2.157  24.097  0.00  0.00    +0.017 C 
BRANCH  18  21
ATOM      2  O   UNL     1      -6.038   2.143  27.512  0.00  0.00    -0.275 OA
ATOM      6  N   UNL     1      -4.657   3.155  25.961  0.00  0.00    -0.301 N 
ATOM     21  C   UNL     1      -5.612   2.239  26.360  0.00  0.00    +0.219 C 
ATOM     23  C   UNL     1      -4.057   4.105  26.886  0.00  0.00    +0.108 C 
ATOM     24  C   UNL     1      -4.110   3.316  24.618  0.00  0.00    +0.108 C 
ATOM     25  C   UNL     1      -2.864   4.671  26.131  0.00  0.00    +0.020 C 
ATOM     26  C   UNL     1      -3.327   4.620  24.681  0.00  0.00    +0.020 C 
ENDBRANCH  18  21
ENDBRANCH  12  18
TORSDOF 7
ENDMDL
MODEL 3
REMARK VINA RESULT:       6.1      1.668      7.914
REMARK  Name = 45361537
REMARK  10 active torsions:
REMARK  status: ('A' for Active; 'I' for Inactive)
REMARK    1  A    between atoms: O_1  and  C_10
REMARK    2  A    between atoms: O_4  and  C_27
REMARK    3  A    between atoms: O_4  and  C_28
REMARK    4  A    between atoms: N_5  and  C_14
REMARK    5  A    between atoms: C_7  and  C_17
REMARK    6  A    between atoms: C_9  and  C_19
REMARK    7  A    between atoms: C_12  and  C_18
REMARK    8  A    between atoms: C_18  and  C_20
REMARK    9  A    between atoms: C_18  and  C_21
REMARK   10  A    between atoms: C_22  and  C_27
REMARK                            x       y       z     vdW  Elec       q    Type
REMARK                         _______ _______ _______ _____ _____    ______ ____
ROOT
ATOM      7  C   UNL     1      -2.421  -0.947  24.105  0.00  0.00    -0.027 C 
ATOM      8  C   UNL     1      -1.636   0.123  24.935  0.00  0.00    +0.028 C 
ATOM      9  C   UNL     1      -2.573   1.319  25.331  0.00  0.00    +0.012 C 
ATOM     10  C   UNL     1      -0.307   0.518  24.230  0.00  0.00    +0.122 C 
ATOM     11  C   UNL     1      -1.503  -2.162  23.829  0.00  0.00    +0.007 C 
ATOM     12  C   UNL     1       0.559  -0.708  23.862  0.00  0.00    +0.029 C 
ATOM     13  C   UNL     1      -3.626  -1.447  24.937  0.00  0.00    +0.009 C 
ATOM     14  C   UNL     1      -3.818   0.798  26.102  0.00  0.00    +0.076 C 
ATOM     15  C   UNL     1      -0.219  -1.783  23.104  0.00  0.00    +0.007 C 
ATOM     16  C   UNL     1      -4.557  -0.325  25.373  0.00  0.00    +0.023 C 
ATOM     17  C   UNL     1      -2.933  -0.392  22.751  0.00  0.00    +0.011 C 
ATOM     19  C   UNL     1      -1.871   2.398  26.174  0.00  0.00    +0.010 C 
ENDROOT
BRANCH  14   5
ATOM      3  O   UNL     1      -6.041   1.641  24.453  0.00  0.00    -0.272 OA
ATOM      5  N   UNL     1      -4.761   1.860  26.382  0.00  0.00    -0.309 N 
ATOM     22  C   UNL     1      -5.797   2.189  25.525  0.00  0.00    +0.251 C 
ATOM     34  H   UNL     1      -4.611   2.422  27.215  0.00  0.00    +0.149 HD
BRANCH  22  27
ATOM     27  C   UNL     1      -6.626   3.334  26.066  0.00  0.00    +0.324 C 
BRANCH  27   4
ATOM      4  O   UNL     1      -6.130   4.571  25.603  0.00  0.00    -0.483 OA
BRANCH   4  28
ATOM     28  C   UNL     1      -4.803   4.622  25.243  0.00  0.00    +0.121 A 
ATOM     29  C   UNL     1      -4.417   4.264  23.951  0.00  0.00    +0.045 A 
ATOM     30  C   UNL     1      -3.845   5.032  26.169  0.00  0.00    +0.045 A 
ATOM     31  C   UNL     1      -3.072   4.315  23.586  0.00  0.00    +0.004 A 
ATOM     32  C   UNL     1      -2.499   5.084  25.804  0.00  0.00    +0.004 A 
ATOM     33  C   UNL     1      -2.113   4.726  24.512  0.00  0.00    +0.000 A 
ENDBRANCH   4  28
ENDBRANCH  27   4
ENDBRANCH  22  27
ENDBRANCH  14   5
BRANCH  10   1
ATOM      1  O   UNL     1       0.478   1.324  25.110  0.00  0.00    -0.391 OA
ATOM     35  H   UNL     1       0.048   2.193  25.189  0.00  0.00    +0.210 HD
ENDBRANCH  10   1
BRANCH  12  18
ATOM     18  C   UNL     1       1.800  -0.308  23.055  0.00  0.00    +0.078 C 
ATOM     20  C   UNL     1       1.594  -0.564  21.572  0.00  0.00    +0.017 C 
BRANCH  18  21
ATOM      2  O   UNL     1       2.830  -2.256  23.959  0.00  0.00    -0.275 OA
ATOM      6  N   UNL     1       4.194  -0.440  23.539  0.00  0.00    -0.301 N 
ATOM     21  C   UNL     1       2.980  -1.100  23.558  0.00  0.00    +0.219 C 
ATOM     23  C   UNL     1       5.426  -1.064  23.997  0.00  0.00    +0.108 C 
ATOM     24  C   UNL     1       4.439   0.922  23.074  0.00  0.00    +0.108 C 
ATOM     25  C   UNL     1       6.528  -0.139  23.504  0.00  0.00    +0.020 C 
ATOM     26  C   UNL     1       5.858   1.229  23.529  0.00  0.00    +0.020 C 
ENDBRANCH  18  21
ENDBRANCH  12  18
TORSDOF 7
ENDMDL
MODEL 4
REMARK VINA RESULT:       7.1      1.623      2.215
REMARK  Name = 45361537
REMARK  10 active torsions:
REMARK  status: ('A' for Active; 'I' for Inactive)
REMARK    1  A    between atoms: O_1  and  C_10
REMARK    2  A    between atoms: O_4  and  C_27
REMARK    3  A    between atoms: O_4  and  C_28
REMARK    4  A    between atoms: N_5  and  C_14
REMARK    5  A    between atoms: C_7  and  C_17
REMARK    6  A    between atoms: C_9  and  C_19
REMARK    7  A    between atoms: C_12  and  C_18
REMARK    8  A    between atoms: C_18  and  C_20
REMARK    9  A    between atoms: C_18  and  C_21
REMARK   10  A    between atoms: C_22  and  C_27
REMARK                            x       y       z     vdW  Elec       q    Type
REMARK                         _______ _______ _______ _____ _____    ______ ____
ROOT
ATOM      7  C   UNL     1      -3.532  -0.862  25.001  0.00  0.00    -0.027 C 
ATOM      8  C   UNL     1      -2.686   0.215  24.245  0.00  0.00    +0.028 C 
ATOM      9  C   UNL     1      -1.162  -0.162  24.256  0.00  0.00    +0.012 C 
ATOM     10  C   UNL     1      -3.024   1.650  24.743  0.00  0.00    +0.122 C 
ATOM     11  C   UNL     1      -5.036  -0.521  24.875  0.00  0.00    +0.007 C 
ATOM     12  C   UNL     1      -4.541   1.948  24.712  0.00  0.00    +0.029 C 
ATOM     13  C   UNL     1      -3.304  -2.241  24.338  0.00  0.00    +0.009 C 
ATOM     14  C   UNL     1      -0.952  -1.580  23.656  0.00  0.00    +0.076 C 
ATOM     15  C   UNL     1      -5.376   0.867  25.398  0.00  0.00    +0.007 C 
ATOM     16  C   UNL     1      -1.839  -2.648  24.297  0.00  0.00    +0.023 C 
ATOM     17  C   UNL     1      -3.168  -0.955  26.506  0.00  0.00    +0.011 C 
ATOM     19  C   UNL     1      -0.273   0.842  23.503  0.00  0.00    +0.010 C 
ENDROOT
BRANCH  14   5
ATOM      3  O   UNL     1       0.533  -2.134  26.075  0.00  0.00    -0.272 OA
ATOM      5  N   UNL     1       0.427  -2.008  23.756  0.00  0.00    -0.309 N 
ATOM     22  C   UNL     1       1.051  -2.250  24.968  0.00  0.00    +0.251 C 
ATOM     34  H   UNL     1       0.969  -2.073  22.899  0.00  0.00    +0.149 HD
BRANCH  22  27
ATOM     27  C   UNL     1       2.488  -2.685  24.777  0.00  0.00    +0.324 C 
BRANCH  27   4
ATOM      4  O   UNL     1       2.973  -2.268  23.519  0.00  0.00    -0.483 OA
BRANCH   4  28
ATOM     28  C   UNL     1       3.751  -1.134  23.490  0.00  0.00    +0.121 A 
ATOM     29  C   UNL     1       4.990  -1.122  24.130  0.00  0.00    +0.045 A 
ATOM     30  C   UNL     1       3.301   0.004  22.819  0.00  0.00    +0.045 A 
ATOM     31  C   UNL     1       5.780   0.028  24.100  0.00  0.00    +0.004 A 
ATOM     32  C   UNL     1       4.090   1.154  22.790  0.00  0.00    +0.004 A 
ATOM     33  C   UNL     1       5.330   1.165  23.430  0.00  0.00    +0.000 A 
ENDBRANCH   4  28
ENDBRANCH  27   4
ENDBRANCH  22  27
ENDBRANCH  14   5
BRANCH  10   1
ATOM      1  O   UNL     1      -2.401   2.610  23.889  0.00  0.00    -0.391 OA
ATOM     35  H   UNL     1      -2.865   3.457  23.997  0.00  0.00    +0.210 HD
ENDBRANCH  10   1
BRANCH  12  18
ATOM     18  C   UNL     1      -4.865   3.315  25.327  0.00  0.00    +0.078 C 
ATOM     20  C   UNL     1      -6.362   3.572  25.330  0.00  0.00    +0.017 C 
BRANCH  18  21
ATOM      2  O   UNL     1      -4.752   4.991  23.638  0.00  0.00    -0.275 OA
ATOM      6  N   UNL     1      -2.836   4.603  24.870  0.00  0.00    -0.301 N 
ATOM     21  C   UNL     1      -4.158   4.382  24.530  0.00  0.00    +0.219 C 
ATOM     23  C   UNL     1      -2.014   5.594  24.193  0.00  0.00    +0.108 C 
ATOM     24  C   UNL     1      -2.080   3.921  25.915  0.00  0.00    +0.108 C 
ATOM     25  C   UNL     1      -0.782   5.733  25.073  0.00  0.00    +0.020 C 
ATOM     26  C   UNL     1      -0.637   4.341  25.674  0.00  0.00    +0.020 C 
ENDBRANCH  18  21
ENDBRANCH  12  18
TORSDOF 7
ENDMDL
MODEL 5
REMARK VINA RESULT:       7.4      1.591      8.397
REMARK  Name = 45361537
REMARK  10 active torsions:
REMARK  status: ('A' for Active; 'I' for Inactive)
REMARK    1  A    between atoms: O_1  and  C_10
REMARK    2  A    between atoms: O_4  and  C_27
REMARK    3  A    between atoms: O_4  and  C_28
REMARK    4  A    between atoms: N_5  and  C_14
REMARK    5  A    between atoms: C_7  and  C_17
REMARK    6  A    between atoms: C_9  and  C_19
REMARK    7  A    between atoms: C_12  and  C_18
REMARK    8  A    between atoms: C_18  and  C_20
REMARK    9  A    between atoms: C_18  and  C_21
REMARK   10  A    between atoms: C_22  and  C_27
REMARK                            x       y       z     vdW  Elec       q    Type
REMARK                         _______ _______ _______ _____ _____    ______ ____
ROOT
ATOM      7  C   UNL     1      -1.355   0.206  24.475  0.00  0.00    -0.027 C 
ATOM      8  C   UNL     1      -0.537   1.534  24.592  0.00  0.00    +0.028 C 
ATOM      9  C   UNL     1      -1.496   2.767  24.764  0.00  0.00    +0.012 C 
ATOM     10  C   UNL     1       0.509   1.655  23.447  0.00  0.00    +0.122 C 
ATOM     11  C   UNL     1      -0.382  -0.997  24.421  0.00  0.00    +0.007 C 
ATOM     12  C   UNL     1       1.411   0.405  23.332  0.00  0.00    +0.029 C 
ATOM     13  C   UNL     1      -2.237   0.042  25.735  0.00  0.00    +0.009 C 
ATOM     14  C   UNL     1      -2.428   2.558  25.990  0.00  0.00    +0.076 C 
ATOM     15  C   UNL     1       0.618  -0.901  23.278  0.00  0.00    +0.007 C 
ATOM     16  C   UNL     1      -3.169   1.221  25.969  0.00  0.00    +0.023 C 
ATOM     17  C   UNL     1      -2.258   0.171  23.215  0.00  0.00    +0.011 C 
ATOM     19  C   UNL     1      -0.755   4.107  24.914  0.00  0.00    +0.010 C 
ENDROOT
BRANCH  14   5
ATOM      3  O   UNL     1      -3.657   4.054  23.839  0.00  0.00    -0.272 OA
ATOM      5  N   UNL     1      -3.404   3.621  26.110  0.00  0.00    -0.309 N 
ATOM     22  C   UNL     1      -3.936   4.279  25.014  0.00  0.00    +0.251 C 
ATOM     34  H   UNL     1      -3.657   3.931  27.044  0.00  0.00    +0.149 HD
BRANCH  22  27
ATOM     27  C   UNL     1      -4.930   5.341  25.431  0.00  0.00    +0.324 C 
BRANCH  27   4
ATOM      4  O   UNL     1      -6.182   4.761  25.731  0.00  0.00    -0.483 OA
BRANCH   4  28
ATOM     28  C   UNL     1      -6.258   3.388  25.721  0.00  0.00    +0.121 A 
ATOM     29  C   UNL     1      -6.213   2.697  24.511  0.00  0.00    +0.045 A 
ATOM     30  C   UNL     1      -6.378   2.688  26.921  0.00  0.00    +0.045 A 
ATOM     31  C   UNL     1      -6.289   1.304  24.500  0.00  0.00    +0.004 A 
ATOM     32  C   UNL     1      -6.455   1.295  26.910  0.00  0.00    +0.004 A 
ATOM     33  C   UNL     1      -6.410   0.603  25.700  0.00  0.00    +0.000 A 
ENDBRANCH   4  28
ENDBRANCH  27   4
ENDBRANCH  22  27
ENDBRANCH  14   5
BRANCH  10   1
ATOM      1  O   UNL     1       1.375   2.761  23.707  0.00  0.00    -0.391 OA
ATOM     35  H   UNL     1       1.740   2.655  24.601  0.00  0.00    +0.210 HD
ENDBRANCH  10   1
BRANCH  12  18
ATOM     18  C   UNL     1       2.347   0.487  22.119  0.00  0.00    +0.078 C 
ATOM     20  C   UNL     1       2.480  -0.864  21.439  0.00  0.00    +0.017 C 
BRANCH  18  21
ATOM      2  O   UNL     1       4.071   2.116  22.334  0.00  0.00    -0.275 OA
ATOM      6  N   UNL     1       4.453   0.043  23.280  0.00  0.00    -0.301 N 
ATOM     21  C   UNL     1       3.698   0.969  22.584  0.00  0.00    +0.219 C 
ATOM     23  C   UNL     1       5.781   0.349  23.790  0.00  0.00    +0.108 C 
ATOM     24  C   UNL     1       4.069  -1.325  23.611  0.00  0.00    +0.108 C 
ATOM     25  C   UNL     1       6.097  -0.794  24.742  0.00  0.00    +0.020 C 
ATOM     26  C   UNL     1       5.351  -1.967  24.120  0.00  0.00    +0.020 C 
ENDBRANCH  18  21
ENDBRANCH  12  18
TORSDOF 7
ENDMDL
