MODEL 1
REMARK VINA RESULT:       1.8      0.000      0.000
REMARK  Name = 11882557
REMARK  11 active torsions:
REMARK  status: ('A' for Active; 'I' for Inactive)
REMARK    1  A    between atoms: O_2  and  C_12
REMARK    2  A    between atoms: O_3  and  C_15
REMARK    3  A    between atoms: O_4  and  C_17
REMARK    4  A    between atoms: N_8  and  C_13
REMARK    5  A    between atoms: N_9  and  C_19
REMARK    6  A    between atoms: N_10  and  C_24
REMARK    7  A    between atoms: C_12  and  C_18
REMARK    8  A    between atoms: C_19  and  C_21
REMARK    9  A    between atoms: C_19  and  C_22
REMARK   10  A    between atoms: C_21  and  C_23
REMARK   11  A    between atoms: C_32  and  C_33
REMARK                            x       y       z     vdW  Elec       q    Type
REMARK                         _______ _______ _______ _____ _____    ______ ____
ROOT
ATOM     12  C   UNL     1      -3.969  -0.271  25.315  0.00  0.00    +0.146 C 
ATOM     13  C   UNL     1      -2.014  -1.423  24.171  0.00  0.00    +0.109 C 
ATOM     14  C   UNL     1      -2.650  -0.085  24.564  0.00  0.00    +0.069 C 
ATOM     15  C   UNL     1      -2.992  -2.313  23.395  0.00  0.00    +0.163 C 
ATOM     16  C   UNL     1      -4.941  -1.142  24.523  0.00  0.00    +0.078 C 
ATOM     17  C   UNL     1      -4.322  -2.486  24.132  0.00  0.00    +0.148 C 
ENDROOT
BRANCH  13   8
ATOM      6  O   UNL     1       0.618  -0.940  25.195  0.00  0.00    -0.252 OA
ATOM      8  N   UNL     1      -0.815  -1.186  23.397  0.00  0.00    -0.294 N 
ATOM     10  N   UNL     1       1.401  -0.763  22.988  0.00  0.00    -0.269 N 
ATOM     20  C   UNL     1       0.435  -0.958  23.979  0.00  0.00    +0.304 C 
ATOM     34  H   UNL     1      -0.899  -1.108  22.388  0.00  0.00    +0.151 HD
ATOM     39  H   UNL     1       1.081  -0.810  22.024  0.00  0.00    +0.156 HD
BRANCH  10  24
ATOM     24  C   UNL     1       2.781  -0.503  23.159  0.00  0.00    +0.035 A 
ATOM     26  C   UNL     1       3.605  -1.472  23.731  0.00  0.00    +0.023 A 
ATOM     27  C   UNL     1       3.315   0.720  22.759  0.00  0.00    +0.023 A 
ATOM     30  C   UNL     1       4.966  -1.216  23.901  0.00  0.00    +0.005 A 
ATOM     31  C   UNL     1       4.676   0.976  22.929  0.00  0.00    +0.005 A 
ATOM     32  C   UNL     1       5.502   0.008  23.500  0.00  0.00    -0.050 A 
ATOM     33  C   UNL     1       6.957   0.280  23.682  0.00  0.00    +0.044 C 
ENDBRANCH  10  24
ENDBRANCH  13   8
BRANCH  12  18
ATOM      5  O   UNL     1      -5.814   1.202  25.681  0.00  0.00    -0.273 OA
ATOM      9  N   UNL     1      -3.651   2.056  25.790  0.00  0.00    -0.301 N 
ATOM     18  C   UNL     1      -4.596   1.058  25.620  0.00  0.00    +0.246 C 
ATOM     38  H   UNL     1      -2.667   1.852  25.647  0.00  0.00    +0.150 HD
BRANCH   9  19
ATOM     19  C   UNL     1      -3.996   3.431  26.070  0.00  0.00    +0.163 C 
BRANCH  19  22
ATOM      7  O   UNL     1      -4.678   3.883  23.782  0.00  0.00    -0.274 OA
ATOM     11  N   UNL     1      -6.193   4.242  25.471  0.00  0.00    -0.328 N 
ATOM     22  C   UNL     1      -4.955   3.882  24.979  0.00  0.00    +0.231 C 
ATOM     40  H   UNL     1      -6.931   4.547  24.847  0.00  0.00    +0.145 HD
ATOM     41  H   UNL     1      -6.410   4.233  26.462  0.00  0.00    +0.145 HD
ENDBRANCH  19  22
BRANCH  19  21
ATOM     21  C   UNL     1      -2.763   4.343  26.109  0.00  0.00    +0.074 C 
BRANCH  21  23
ATOM      1  S   UNL     1      -1.046   3.614  24.041  0.00  0.00    -0.102 S 
ATOM     23  C   UNL     1      -1.503   3.624  25.691  0.00  0.00    -0.008 A 
ATOM     25  C   UNL     1      -0.610   2.931  26.478  0.00  0.00    +0.011 A 
ATOM     28  C   UNL     1       0.464   2.385  25.718  0.00  0.00    +0.008 A 
ATOM     29  C   UNL     1       0.351   2.682  24.377  0.00  0.00    +0.045 A 
ENDBRANCH  21  23
ENDBRANCH  19  21
ENDBRANCH   9  19
ENDBRANCH  12  18
BRANCH  12   2
ATOM      2  O   UNL     1      -3.738  -0.869  26.586  0.00  0.00    -0.379 OA
ATOM     35  H   UNL     1      -4.020  -0.244  27.276  0.00  0.00    +0.211 HD
ENDBRANCH  12   2
BRANCH  15   3
ATOM      3  O   UNL     1      -2.415  -3.612  23.235  0.00  0.00    -0.387 OA
ATOM     36  H   UNL     1      -2.886  -4.226  23.824  0.00  0.00    +0.210 HD
ENDBRANCH  15   3
BRANCH  17   4
ATOM      4  O   UNL     1      -5.229  -3.179  23.275  0.00  0.00    -0.389 OA
ATOM     37  H   UNL     1      -6.109  -3.138  23.685  0.00  0.00    +0.210 HD
ENDBRANCH  17   4
TORSDOF 10
ENDMDL
MODEL 2
REMARK VINA RESULT:       4.9      1.410      1.826
REMARK  Name = 11882557
REMARK  11 active torsions:
REMARK  status: ('A' for Active; 'I' for Inactive)
REMARK    1  A    between atoms: O_2  and  C_12
REMARK    2  A    between atoms: O_3  and  C_15
REMARK    3  A    between atoms: O_4  and  C_17
REMARK    4  A    between atoms: N_8  and  C_13
REMARK    5  A    between atoms: N_9  and  C_19
REMARK    6  A    between atoms: N_10  and  C_24
REMARK    7  A    between atoms: C_12  and  C_18
REMARK    8  A    between atoms: C_19  and  C_21
REMARK    9  A    between atoms: C_19  and  C_22
REMARK   10  A    between atoms: C_21  and  C_23
REMARK   11  A    between atoms: C_32  and  C_33
REMARK                            x       y       z     vdW  Elec       q    Type
REMARK                         _______ _______ _______ _____ _____    ______ ____
ROOT
ATOM     12  C   UNL     1      -3.927  -0.117  24.783  0.00  0.00    +0.146 C 
ATOM     13  C   UNL     1      -1.961  -1.635  24.241  0.00  0.00    +0.109 C 
ATOM     14  C   UNL     1      -2.528  -0.213  24.171  0.00  0.00    +0.069 C 
ATOM     15  C   UNL     1      -2.922  -2.663  23.630  0.00  0.00    +0.163 C 
ATOM     16  C   UNL     1      -4.878  -1.132  24.153  0.00  0.00    +0.078 C 
ATOM     17  C   UNL     1      -4.329  -2.558  24.224  0.00  0.00    +0.148 C 
ENDROOT
BRANCH  13   8
ATOM      6  O   UNL     1       0.426  -0.266  25.036  0.00  0.00    -0.252 OA
ATOM      8  N   UNL     1      -0.676  -1.682  23.578  0.00  0.00    -0.294 N 
ATOM     10  N   UNL     1       1.536  -1.217  23.198  0.00  0.00    -0.269 N 
ATOM     20  C   UNL     1       0.442  -0.980  24.035  0.00  0.00    +0.304 C 
ATOM     34  H   UNL     1      -0.604  -2.188  22.701  0.00  0.00    +0.151 HD
ATOM     39  H   UNL     1       1.380  -1.838  22.408  0.00  0.00    +0.156 HD
BRANCH  10  24
ATOM     24  C   UNL     1       2.846  -0.696  23.313  0.00  0.00    +0.035 A 
ATOM     26  C   UNL     1       3.132   0.581  22.832  0.00  0.00    +0.023 A 
ATOM     27  C   UNL     1       3.851  -1.460  23.905  0.00  0.00    +0.023 A 
ATOM     30  C   UNL     1       4.425   1.095  22.944  0.00  0.00    +0.005 A 
ATOM     31  C   UNL     1       5.143  -0.947  24.017  0.00  0.00    +0.005 A 
ATOM     32  C   UNL     1       5.430   0.331  23.537  0.00  0.00    -0.050 A 
ATOM     33  C   UNL     1       6.811   0.882  23.656  0.00  0.00    +0.044 C 
ENDBRANCH  10  24
ENDBRANCH  13   8
BRANCH  12  18
ATOM      5  O   UNL     1      -5.475   1.643  25.243  0.00  0.00    -0.273 OA
ATOM      9  N   UNL     1      -3.747   2.028  23.732  0.00  0.00    -0.301 N 
ATOM     18  C   UNL     1      -4.476   1.271  24.633  0.00  0.00    +0.246 C 
ATOM     38  H   UNL     1      -2.978   1.606  23.221  0.00  0.00    +0.150 HD
BRANCH   9  19
ATOM     19  C   UNL     1      -4.083   3.392  23.391  0.00  0.00    +0.163 C 
BRANCH  19  22
ATOM      7  O   UNL     1      -4.456   4.374  21.200  0.00  0.00    -0.274 OA
ATOM     11  N   UNL     1      -2.910   2.685  21.400  0.00  0.00    -0.328 N 
ATOM     22  C   UNL     1      -3.871   3.544  21.892  0.00  0.00    +0.231 C 
ATOM     40  H   UNL     1      -2.660   2.695  20.417  0.00  0.00    +0.145 HD
ATOM     41  H   UNL     1      -2.432   2.007  21.984  0.00  0.00    +0.145 HD
ENDBRANCH  19  22
BRANCH  19  21
ATOM     21  C   UNL     1      -3.230   4.410  24.159  0.00  0.00    +0.074 C 
BRANCH  21  23
ATOM      1  S   UNL     1      -1.982   3.344  26.409  0.00  0.00    -0.102 S 
ATOM     23  C   UNL     1      -1.990   3.787  24.755  0.00  0.00    -0.008 A 
ATOM     25  C   UNL     1      -0.791   3.504  24.139  0.00  0.00    +0.011 A 
ATOM     28  C   UNL     1       0.146   2.915  25.035  0.00  0.00    +0.008 A 
ATOM     29  C   UNL     1      -0.372   2.771  26.304  0.00  0.00    +0.045 A 
ENDBRANCH  21  23
ENDBRANCH  19  21
ENDBRANCH   9  19
ENDBRANCH  12  18
BRANCH  12   2
ATOM      2  O   UNL     1      -3.871  -0.341  26.187  0.00  0.00    -0.379 OA
ATOM     35  H   UNL     1      -3.765  -1.296  26.343  0.00  0.00    +0.211 HD
ENDBRANCH  12   2
BRANCH  15   3
ATOM      3  O   UNL     1      -2.434  -3.979  23.905  0.00  0.00    -0.387 OA
ATOM     36  H   UNL     1      -3.200  -4.561  24.049  0.00  0.00    +0.210 HD
ENDBRANCH  15   3
BRANCH  17   4
ATOM      4  O   UNL     1      -5.196  -3.423  23.491  0.00  0.00    -0.389 OA
ATOM     37  H   UNL     1      -4.668  -3.841  22.789  0.00  0.00    +0.210 HD
ENDBRANCH  17   4
TORSDOF 10
ENDMDL
MODEL 3
REMARK VINA RESULT:       5.7      2.644      4.617
REMARK  Name = 11882557
REMARK  11 active torsions:
REMARK  status: ('A' for Active; 'I' for Inactive)
REMARK    1  A    between atoms: O_2  and  C_12
REMARK    2  A    between atoms: O_3  and  C_15
REMARK    3  A    between atoms: O_4  and  C_17
REMARK    4  A    between atoms: N_8  and  C_13
REMARK    5  A    between atoms: N_9  and  C_19
REMARK    6  A    between atoms: N_10  and  C_24
REMARK    7  A    between atoms: C_12  and  C_18
REMARK    8  A    between atoms: C_19  and  C_21
REMARK    9  A    between atoms: C_19  and  C_22
REMARK   10  A    between atoms: C_21  and  C_23
REMARK   11  A    between atoms: C_32  and  C_33
REMARK                            x       y       z     vdW  Elec       q    Type
REMARK                         _______ _______ _______ _____ _____    ______ ____
ROOT
ATOM     12  C   UNL     1      -3.255   3.276  24.302  0.00  0.00    +0.146 C 
ATOM     13  C   UNL     1      -1.099   3.059  22.975  0.00  0.00    +0.109 C 
ATOM     14  C   UNL     1      -2.202   2.320  23.741  0.00  0.00    +0.069 C 
ATOM     15  C   UNL     1      -0.467   4.173  23.820  0.00  0.00    +0.163 C 
ATOM     16  C   UNL     1      -2.616   4.367  25.156  0.00  0.00    +0.078 C 
ATOM     17  C   UNL     1      -1.519   5.121  24.401  0.00  0.00    +0.148 C 
ENDROOT
BRANCH  13   8
ATOM      6  O   UNL     1       1.253   2.278  24.412  0.00  0.00    -0.252 OA
ATOM      8  N   UNL     1      -0.091   2.118  22.538  0.00  0.00    -0.294 N 
ATOM     10  N   UNL     1       1.824   0.861  22.628  0.00  0.00    -0.269 N 
ATOM     20  C   UNL     1       1.031   1.792  23.304  0.00  0.00    +0.304 C 
ATOM     34  H   UNL     1      -0.164   1.734  21.600  0.00  0.00    +0.151 HD
ATOM     39  H   UNL     1       1.495   0.559  21.715  0.00  0.00    +0.156 HD
BRANCH  10  24
ATOM     24  C   UNL     1       3.039   0.279  23.060  0.00  0.00    +0.035 A 
ATOM     26  C   UNL     1       4.209   1.038  23.069  0.00  0.00    +0.023 A 
ATOM     27  C   UNL     1       3.066  -1.052  23.475  0.00  0.00    +0.023 A 
ATOM     30  C   UNL     1       5.408   0.463  23.493  0.00  0.00    +0.005 A 
ATOM     31  C   UNL     1       4.264  -1.625  23.899  0.00  0.00    +0.005 A 
ATOM     32  C   UNL     1       5.436  -0.867  23.909  0.00  0.00    -0.050 A 
ATOM     33  C   UNL     1       6.718  -1.479  24.363  0.00  0.00    +0.044 C 
ENDBRANCH  10  24
ENDBRANCH  13   8
BRANCH  12  18
ATOM      5  O   UNL     1      -4.845   3.029  26.068  0.00  0.00    -0.273 OA
ATOM      9  N   UNL     1      -4.464   1.234  24.636  0.00  0.00    -0.301 N 
ATOM     18  C   UNL     1      -4.278   2.524  25.103  0.00  0.00    +0.246 C 
ATOM     38  H   UNL     1      -3.893   0.884  23.873  0.00  0.00    +0.150 HD
BRANCH   9  19
ATOM     19  C   UNL     1      -5.378   0.296  25.248  0.00  0.00    +0.163 C 
BRANCH  19  22
ATOM      7  O   UNL     1      -6.595   1.144  27.172  0.00  0.00    -0.274 OA
ATOM     11  N   UNL     1      -7.214   1.858  25.077  0.00  0.00    -0.328 N 
ATOM     22  C   UNL     1      -6.451   1.113  25.952  0.00  0.00    +0.231 C 
ATOM     40  H   UNL     1      -7.956   2.460  25.418  0.00  0.00    +0.145 HD
ATOM     41  H   UNL     1      -7.082   1.825  24.072  0.00  0.00    +0.145 HD
ENDBRANCH  19  22
BRANCH  19  21
ATOM     21  C   UNL     1      -4.675  -0.635  26.243  0.00  0.00    +0.074 C 
BRANCH  21  23
ATOM      1  S   UNL     1      -3.381  -2.510  24.640  0.00  0.00    -0.102 S 
ATOM     23  C   UNL     1      -3.369  -1.170  25.706  0.00  0.00    -0.008 A 
ATOM     25  C   UNL     1      -2.091  -0.722  25.958  0.00  0.00    +0.011 A 
ATOM     28  C   UNL     1      -1.109  -1.488  25.266  0.00  0.00    +0.008 A 
ATOM     29  C   UNL     1      -1.674  -2.493  24.511  0.00  0.00    +0.045 A 
ENDBRANCH  21  23
ENDBRANCH  19  21
ENDBRANCH   9  19
ENDBRANCH  12  18
BRANCH  12   2
ATOM      2  O   UNL     1      -3.990   3.883  23.245  0.00  0.00    -0.379 OA
ATOM     35  H   UNL     1      -3.727   3.463  22.407  0.00  0.00    +0.211 HD
ENDBRANCH  12   2
BRANCH  15   3
ATOM      3  O   UNL     1       0.404   4.950  22.992  0.00  0.00    -0.387 OA
ATOM     36  H   UNL     1       0.277   5.887  23.217  0.00  0.00    +0.210 HD
ENDBRANCH  15   3
BRANCH  17   4
ATOM      4  O   UNL     1      -0.871   6.018  25.303  0.00  0.00    -0.389 OA
ATOM     37  H   UNL     1      -1.275   6.894  25.186  0.00  0.00    +0.210 HD
ENDBRANCH  17   4
TORSDOF 10
ENDMDL
