MODEL 1
REMARK VINA RESULT:      -5.4      0.000      0.000
REMARK  Name = 75536719
REMARK  9 active torsions:
REMARK  status: ('A' for Active; 'I' for Inactive)
REMARK    1  A    between atoms: S_1  and  N_8
REMARK    2  A    between atoms: S_1  and  C_16
REMARK    3  A    between atoms: O_4  and  C_10
REMARK    4  A    between atoms: N_7  and  C_9
REMARK    5  A    between atoms: N_7  and  C_14
REMARK    6  A    between atoms: N_8  and  C_13
REMARK    7  A    between atoms: C_11  and  C_13
REMARK    8  A    between atoms: C_14  and  C_15
REMARK    9  A    between atoms: C_25  and  C_27
REMARK                            x       y       z     vdW  Elec       q    Type
REMARK                         _______ _______ _______ _____ _____    ______ ____
ROOT
ATOM      3  O   UNL     1      -0.524   3.392  25.562  0.00  0.00    -0.371 OA
ATOM      9  C   UNL     1       0.025   1.698  23.991  0.00  0.00    +0.111 C 
ATOM     10  C   UNL     1      -1.484   1.848  24.049  0.00  0.00    +0.164 C 
ATOM     11  C   UNL     1      -1.616   3.246  24.640  0.00  0.00    +0.164 C 
ATOM     12  C   UNL     1       0.444   2.363  25.291  0.00  0.00    +0.181 C 
ENDROOT
BRANCH  10   4
ATOM      4  O   UNL     1      -2.092   1.754  22.776  0.00  0.00    -0.388 OA
ATOM     30  H   UNL     1      -2.909   2.281  22.787  0.00  0.00    +0.210 HD
ENDBRANCH  10   4
BRANCH   9   7
ATOM      7  N   UNL     1       0.469   0.317  23.893  0.00  0.00    -0.305 NA
ATOM     28  H   UNL     1      -0.346  -0.291  23.820  0.00  0.00    +0.123 HD
BRANCH   7  14
ATOM     14  C   UNL     1       1.311   0.119  22.718  0.00  0.00    +0.119 C 
BRANCH  14  15
ATOM      2  F   UNL     1       3.271   2.163  22.599  0.00  0.00    -0.205 F 
ATOM     15  C   UNL     1       2.753  -0.101  23.092  0.00  0.00    +0.002 A 
ATOM     17  C   UNL     1       3.666   0.949  23.011  0.00  0.00    +0.128 A 
ATOM     18  C   UNL     1       3.174  -1.360  23.520  0.00  0.00    +0.008 A 
ATOM     21  C   UNL     1       5.001   0.742  23.358  0.00  0.00    +0.038 A 
ATOM     22  C   UNL     1       4.509  -1.568  23.866  0.00  0.00    +0.000 A 
ATOM     26  C   UNL     1       5.423  -0.517  23.785  0.00  0.00    +0.003 A 
ENDBRANCH  14  15
ENDBRANCH   7  14
ENDBRANCH   9   7
BRANCH  11  13
ATOM     13  C   UNL     1      -2.932   3.470  25.364  0.00  0.00    +0.140 C 
BRANCH  13   8
ATOM      8  N   UNL     1      -4.049   3.012  24.514  0.00  0.00    -0.187 NA
ATOM     29  H   UNL     1      -4.283   3.620  23.720  0.00  0.00    +0.148 HD
BRANCH   8   1
ATOM      1  S   UNL     1      -5.272   2.030  25.172  0.00  0.00    +0.058 S 
ATOM      5  O   UNL     1      -6.441   2.079  24.314  0.00  0.00    -0.153 OA
ATOM      6  O   UNL     1      -5.394   2.313  26.589  0.00  0.00    -0.153 OA
BRANCH   1  16
ATOM     16  C   UNL     1      -4.559   0.419  25.027  0.00  0.00    +0.105 A 
ATOM     19  C   UNL     1      -3.815  -0.112  26.081  0.00  0.00    +0.029 A 
ATOM     20  C   UNL     1      -4.737  -0.321  23.858  0.00  0.00    +0.029 A 
ATOM     23  C   UNL     1      -3.250  -1.380  25.967  0.00  0.00    +0.005 A 
ATOM     24  C   UNL     1      -4.171  -1.591  23.743  0.00  0.00    +0.005 A 
ATOM     25  C   UNL     1      -3.428  -2.121  24.798  0.00  0.00    -0.050 A 
ATOM     27  C   UNL     1      -2.823  -3.479  24.675  0.00  0.00    +0.044 C 
ENDBRANCH   1  16
ENDBRANCH   8   1
ENDBRANCH  13   8
ENDBRANCH  11  13
TORSDOF 8
ENDMDL
MODEL 2
REMARK VINA RESULT:      -4.9      1.873      3.928
REMARK  Name = 75536719
REMARK  9 active torsions:
REMARK  status: ('A' for Active; 'I' for Inactive)
REMARK    1  A    between atoms: S_1  and  N_8
REMARK    2  A    between atoms: S_1  and  C_16
REMARK    3  A    between atoms: O_4  and  C_10
REMARK    4  A    between atoms: N_7  and  C_9
REMARK    5  A    between atoms: N_7  and  C_14
REMARK    6  A    between atoms: N_8  and  C_13
REMARK    7  A    between atoms: C_11  and  C_13
REMARK    8  A    between atoms: C_14  and  C_15
REMARK    9  A    between atoms: C_25  and  C_27
REMARK                            x       y       z     vdW  Elec       q    Type
REMARK                         _______ _______ _______ _____ _____    ______ ____
ROOT
ATOM      3  O   UNL     1      -1.785  -2.517  24.041  0.00  0.00    -0.371 OA
ATOM      9  C   UNL     1      -0.038  -0.962  24.448  0.00  0.00    +0.111 C 
ATOM     10  C   UNL     1      -1.225  -0.611  25.325  0.00  0.00    +0.164 C 
ATOM     11  C   UNL     1      -1.978  -1.936  25.341  0.00  0.00    +0.164 C 
ATOM     12  C   UNL     1      -0.689  -1.844  23.397  0.00  0.00    +0.181 C 
ENDROOT
BRANCH  10   4
ATOM      4  O   UNL     1      -0.844  -0.206  26.625  0.00  0.00    -0.388 OA
ATOM     30  H   UNL     1      -0.318   0.608  26.549  0.00  0.00    +0.210 HD
ENDBRANCH  10   4
BRANCH   9   7
ATOM      7  N   UNL     1       0.629   0.199  23.879  0.00  0.00    -0.305 NA
ATOM     28  H   UNL     1       1.214   0.631  24.594  0.00  0.00    +0.123 HD
BRANCH   7  14
ATOM     14  C   UNL     1       1.468  -0.179  22.748  0.00  0.00    +0.119 C 
BRANCH  14  15
ATOM      2  F   UNL     1       3.229   2.035  22.590  0.00  0.00    -0.205 F 
ATOM     15  C   UNL     1       2.923  -0.256  23.130  0.00  0.00    +0.002 A 
ATOM     17  C   UNL     1       3.734   0.873  23.029  0.00  0.00    +0.128 A 
ATOM     18  C   UNL     1       3.457  -1.461  23.586  0.00  0.00    +0.008 A 
ATOM     21  C   UNL     1       5.081   0.799  23.384  0.00  0.00    +0.038 A 
ATOM     22  C   UNL     1       4.804  -1.536  23.940  0.00  0.00    +0.000 A 
ATOM     26  C   UNL     1       5.616  -0.406  23.838  0.00  0.00    +0.003 A 
ENDBRANCH  14  15
ENDBRANCH   7  14
ENDBRANCH   9   7
BRANCH  11  13
ATOM     13  C   UNL     1      -3.462  -1.780  25.618  0.00  0.00    +0.140 C 
BRANCH  13   8
ATOM      8  N   UNL     1      -3.771  -0.361  25.883  0.00  0.00    -0.187 NA
ATOM     29  H   UNL     1      -4.001  -0.129  26.857  0.00  0.00    +0.148 HD
BRANCH   8   1
ATOM      1  S   UNL     1      -4.404   0.619  24.646  0.00  0.00    +0.058 S 
ATOM      5  O   UNL     1      -5.749   1.030  24.998  0.00  0.00    -0.153 OA
ATOM      6  O   UNL     1      -4.145  -0.012  23.365  0.00  0.00    -0.153 OA
BRANCH   1  16
ATOM     16  C   UNL     1      -3.357   2.041  24.740  0.00  0.00    +0.105 A 
ATOM     19  C   UNL     1      -2.232   2.135  23.921  0.00  0.00    +0.029 A 
ATOM     20  C   UNL     1      -3.654   3.068  25.637  0.00  0.00    +0.029 A 
ATOM     23  C   UNL     1      -1.405   3.255  23.998  0.00  0.00    +0.005 A 
ATOM     24  C   UNL     1      -2.827   4.188  25.714  0.00  0.00    +0.005 A 
ATOM     25  C   UNL     1      -1.702   4.282  24.893  0.00  0.00    -0.050 A 
ATOM     27  C   UNL     1      -0.818   5.480  24.976  0.00  0.00    +0.044 C 
ENDBRANCH   1  16
ENDBRANCH   8   1
ENDBRANCH  13   8
ENDBRANCH  11  13
TORSDOF 8
ENDMDL
MODEL 3
REMARK VINA RESULT:      -4.2      3.567      6.945
REMARK  Name = 75536719
REMARK  9 active torsions:
REMARK  status: ('A' for Active; 'I' for Inactive)
REMARK    1  A    between atoms: S_1  and  N_8
REMARK    2  A    between atoms: S_1  and  C_16
REMARK    3  A    between atoms: O_4  and  C_10
REMARK    4  A    between atoms: N_7  and  C_9
REMARK    5  A    between atoms: N_7  and  C_14
REMARK    6  A    between atoms: N_8  and  C_13
REMARK    7  A    between atoms: C_11  and  C_13
REMARK    8  A    between atoms: C_14  and  C_15
REMARK    9  A    between atoms: C_25  and  C_27
REMARK                            x       y       z     vdW  Elec       q    Type
REMARK                         _______ _______ _______ _____ _____    ______ ____
ROOT
ATOM      3  O   UNL     1      -1.625  -1.349  26.447  0.00  0.00    -0.371 OA
ATOM      9  C   UNL     1      -3.604  -1.719  25.189  0.00  0.00    +0.111 C 
ATOM     10  C   UNL     1      -2.405  -2.138  24.358  0.00  0.00    +0.164 C 
ATOM     11  C   UNL     1      -1.355  -2.340  25.443  0.00  0.00    +0.164 C 
ATOM     12  C   UNL     1      -2.951  -0.833  26.236  0.00  0.00    +0.181 C 
ENDROOT
BRANCH  10   4
ATOM      4  O   UNL     1      -2.638  -3.322  23.622  0.00  0.00    -0.388 OA
ATOM     30  H   UNL     1      -3.334  -3.831  24.073  0.00  0.00    +0.210 HD
ENDBRANCH  10   4
BRANCH   9   7
ATOM      7  N   UNL     1      -4.630  -1.029  24.423  0.00  0.00    -0.305 NA
ATOM     28  H   UNL     1      -5.340  -0.672  25.063  0.00  0.00    +0.123 HD
BRANCH   7  14
ATOM     14  C   UNL     1      -4.065   0.089  23.676  0.00  0.00    +0.119 C 
BRANCH  14  15
ATOM      2  F   UNL     1      -3.265   2.575  22.575  0.00  0.00    -0.205 F 
ATOM     15  C   UNL     1      -4.468   1.416  24.262  0.00  0.00    +0.002 A 
ATOM     17  C   UNL     1      -4.040   2.603  23.669  0.00  0.00    +0.128 A 
ATOM     18  C   UNL     1      -5.272   1.456  25.401  0.00  0.00    +0.008 A 
ATOM     21  C   UNL     1      -4.415   3.831  24.215  0.00  0.00    +0.038 A 
ATOM     22  C   UNL     1      -5.646   2.683  25.948  0.00  0.00    +0.000 A 
ATOM     26  C   UNL     1      -5.217   3.871  25.355  0.00  0.00    +0.003 A 
ENDBRANCH  14  15
ENDBRANCH   7  14
ENDBRANCH   9   7
BRANCH  11  13
ATOM     13  C   UNL     1       0.068  -2.185  24.937  0.00  0.00    +0.140 C 
BRANCH  13   8
ATOM      8  N   UNL     1       0.479  -0.771  25.038  0.00  0.00    -0.187 NA
ATOM     29  H   UNL     1       0.283  -0.313  25.937  0.00  0.00    +0.148 HD
BRANCH   8   1
ATOM      1  S   UNL     1       0.566   0.193  23.640  0.00  0.00    +0.058 S 
ATOM      5  O   UNL     1      -0.327  -0.342  22.630  0.00  0.00    -0.153 OA
ATOM      6  O   UNL     1       1.960   0.441  23.323  0.00  0.00    -0.153 OA
BRANCH   1  16
ATOM     16  C   UNL     1      -0.113   1.722  24.212  0.00  0.00    +0.105 A 
ATOM     19  C   UNL     1      -0.731   1.786  25.461  0.00  0.00    +0.029 A 
ATOM     20  C   UNL     1      -0.033   2.863  23.414  0.00  0.00    +0.029 A 
ATOM     23  C   UNL     1      -1.269   2.991  25.911  0.00  0.00    +0.005 A 
ATOM     24  C   UNL     1      -0.572   4.068  23.865  0.00  0.00    +0.005 A 
ATOM     25  C   UNL     1      -1.189   4.132  25.114  0.00  0.00    -0.050 A 
ATOM     27  C   UNL     1      -1.765   5.421  25.595  0.00  0.00    +0.044 C 
ENDBRANCH   1  16
ENDBRANCH   8   1
ENDBRANCH  13   8
ENDBRANCH  11  13
TORSDOF 8
ENDMDL
MODEL 4
REMARK VINA RESULT:      -4.1      2.694      5.912
REMARK  Name = 75536719
REMARK  9 active torsions:
REMARK  status: ('A' for Active; 'I' for Inactive)
REMARK    1  A    between atoms: S_1  and  N_8
REMARK    2  A    between atoms: S_1  and  C_16
REMARK    3  A    between atoms: O_4  and  C_10
REMARK    4  A    between atoms: N_7  and  C_9
REMARK    5  A    between atoms: N_7  and  C_14
REMARK    6  A    between atoms: N_8  and  C_13
REMARK    7  A    between atoms: C_11  and  C_13
REMARK    8  A    between atoms: C_14  and  C_15
REMARK    9  A    between atoms: C_25  and  C_27
REMARK                            x       y       z     vdW  Elec       q    Type
REMARK                         _______ _______ _______ _____ _____    ______ ____
ROOT
ATOM      3  O   UNL     1      -2.547   3.449  23.576  0.00  0.00    -0.371 OA
ATOM      9  C   UNL     1      -4.668   2.586  24.206  0.00  0.00    +0.111 C 
ATOM     10  C   UNL     1      -4.097   3.387  25.362  0.00  0.00    +0.164 C 
ATOM     11  C   UNL     1      -3.077   4.258  24.639  0.00  0.00    +0.164 C 
ATOM     12  C   UNL     1      -3.423   2.325  23.376  0.00  0.00    +0.181 C 
ENDROOT
BRANCH  10   4
ATOM      4  O   UNL     1      -5.076   4.162  26.025  0.00  0.00    -0.388 OA
ATOM     30  H   UNL     1      -4.650   4.621  26.769  0.00  0.00    +0.210 HD
ENDBRANCH  10   4
BRANCH   9   7
ATOM      7  N   UNL     1      -5.339   1.365  24.619  0.00  0.00    -0.305 NA
ATOM     28  H   UNL     1      -5.462   0.761  23.807  0.00  0.00    +0.123 HD
BRANCH   7  14
ATOM     14  C   UNL     1      -4.559   0.651  25.624  0.00  0.00    +0.119 C 
BRANCH  14  15
ATOM      2  F   UNL     1      -2.550  -0.867  26.925  0.00  0.00    -0.205 F 
ATOM     15  C   UNL     1      -4.076  -0.682  25.116  0.00  0.00    +0.002 A 
ATOM     17  C   UNL     1      -3.084  -1.377  25.806  0.00  0.00    +0.128 A 
ATOM     18  C   UNL     1      -4.624  -1.220  23.952  0.00  0.00    +0.008 A 
ATOM     21  C   UNL     1      -2.639  -2.611  25.331  0.00  0.00    +0.038 A 
ATOM     22  C   UNL     1      -4.179  -2.453  23.477  0.00  0.00    +0.000 A 
ATOM     26  C   UNL     1      -3.186  -3.149  24.167  0.00  0.00    +0.003 A 
ENDBRANCH  14  15
ENDBRANCH   7  14
ENDBRANCH   9   7
BRANCH  11  13
ATOM     13  C   UNL     1      -1.948   4.731  25.536  0.00  0.00    +0.140 C 
BRANCH  13   8
ATOM      8  N   UNL     1      -0.706   4.011  25.193  0.00  0.00    -0.187 NA
ATOM     29  H   UNL     1      -0.364   4.145  24.234  0.00  0.00    +0.148 HD
BRANCH   8   1
ATOM      1  S   UNL     1      -0.306   2.570  26.003  0.00  0.00    +0.058 S 
ATOM      5  O   UNL     1      -1.508   1.982  26.562  0.00  0.00    -0.153 OA
ATOM      6  O   UNL     1       0.850   2.807  26.846  0.00  0.00    -0.153 OA
BRANCH   1  16
ATOM     16  C   UNL     1       0.231   1.543  24.668  0.00  0.00    +0.105 A 
ATOM     19  C   UNL     1       1.420   1.834  23.999  0.00  0.00    +0.029 A 
ATOM     20  C   UNL     1      -0.535   0.443  24.280  0.00  0.00    +0.029 A 
ATOM     23  C   UNL     1       1.843   1.026  22.944  0.00  0.00    +0.005 A 
ATOM     24  C   UNL     1      -0.112  -0.365  23.225  0.00  0.00    +0.005 A 
ATOM     25  C   UNL     1       1.077  -0.074  22.557  0.00  0.00    -0.050 A 
ATOM     27  C   UNL     1       1.529  -0.938  21.429  0.00  0.00    +0.044 C 
ENDBRANCH   1  16
ENDBRANCH   8   1
ENDBRANCH  13   8
ENDBRANCH  11  13
TORSDOF 8
ENDMDL
MODEL 5
REMARK VINA RESULT:      -4.0      3.132      5.515
REMARK  Name = 75536719
REMARK  9 active torsions:
REMARK  status: ('A' for Active; 'I' for Inactive)
REMARK    1  A    between atoms: S_1  and  N_8
REMARK    2  A    between atoms: S_1  and  C_16
REMARK    3  A    between atoms: O_4  and  C_10
REMARK    4  A    between atoms: N_7  and  C_9
REMARK    5  A    between atoms: N_7  and  C_14
REMARK    6  A    between atoms: N_8  and  C_13
REMARK    7  A    between atoms: C_11  and  C_13
REMARK    8  A    between atoms: C_14  and  C_15
REMARK    9  A    between atoms: C_25  and  C_27
REMARK                            x       y       z     vdW  Elec       q    Type
REMARK                         _______ _______ _______ _____ _____    ______ ____
ROOT
ATOM      3  O   UNL     1       0.506   0.676  22.745  0.00  0.00    -0.371 OA
ATOM      9  C   UNL     1      -0.285  -0.717  24.498  0.00  0.00    +0.111 C 
ATOM     10  C   UNL     1      -0.162   0.704  25.014  0.00  0.00    +0.164 C 
ATOM     11  C   UNL     1      -0.179   1.492  23.710  0.00  0.00    +0.164 C 
ATOM     12  C   UNL     1       0.592  -0.665  23.258  0.00  0.00    +0.181 C 
ENDROOT
BRANCH  10   4
ATOM      4  O   UNL     1      -1.230   1.071  25.865  0.00  0.00    -0.388 OA
ATOM     30  H   UNL     1      -1.784   1.719  25.399  0.00  0.00    +0.210 HD
ENDBRANCH  10   4
BRANCH   9   7
ATOM      7  N   UNL     1       0.147  -1.724  25.455  0.00  0.00    -0.305 NA
ATOM     28  H   UNL     1       0.433  -1.262  26.318  0.00  0.00    +0.123 HD
BRANCH   7  14
ATOM     14  C   UNL     1      -0.932  -2.658  25.756  0.00  0.00    +0.119 C 
BRANCH  14  15
ATOM      2  F   UNL     1      -2.127  -3.619  23.373  0.00  0.00    -0.205 F 
ATOM     15  C   UNL     1      -2.260  -2.165  25.245  0.00  0.00    +0.002 A 
ATOM     17  C   UNL     1      -2.791  -2.682  24.064  0.00  0.00    +0.128 A 
ATOM     18  C   UNL     1      -2.958  -1.189  25.955  0.00  0.00    +0.008 A 
ATOM     21  C   UNL     1      -4.021  -2.222  23.592  0.00  0.00    +0.038 A 
ATOM     22  C   UNL     1      -4.187  -0.728  25.484  0.00  0.00    +0.000 A 
ATOM     26  C   UNL     1      -4.719  -1.245  24.302  0.00  0.00    +0.003 A 
ENDBRANCH  14  15
ENDBRANCH   7  14
ENDBRANCH   9   7
BRANCH  11  13
ATOM     13  C   UNL     1       0.503   2.844  23.816  0.00  0.00    +0.140 C 
BRANCH  13   8
ATOM      8  N   UNL     1      -0.510   3.916  23.752  0.00  0.00    -0.187 NA
ATOM     29  H   UNL     1      -0.413   4.574  22.968  0.00  0.00    +0.148 HD
BRANCH   8   1
ATOM      1  S   UNL     1      -1.271   4.455  25.173  0.00  0.00    +0.058 S 
ATOM      5  O   UNL     1      -1.456   5.892  25.105  0.00  0.00    -0.153 OA
ATOM      6  O   UNL     1      -0.611   3.858  26.318  0.00  0.00    -0.153 OA
BRANCH   1  16
ATOM     16  C   UNL     1      -2.862   3.695  25.041  0.00  0.00    +0.105 A 
ATOM     19  C   UNL     1      -3.756   3.758  26.110  0.00  0.00    +0.029 A 
ATOM     20  C   UNL     1      -3.223   3.029  23.870  0.00  0.00    +0.029 A 
ATOM     23  C   UNL     1      -5.009   3.156  26.007  0.00  0.00    +0.005 A 
ATOM     24  C   UNL     1      -4.476   2.427  23.767  0.00  0.00    +0.005 A 
ATOM     25  C   UNL     1      -5.370   2.491  24.836  0.00  0.00    -0.050 A 
ATOM     27  C   UNL     1      -6.711   1.847  24.725  0.00  0.00    +0.044 C 
ENDBRANCH   1  16
ENDBRANCH   8   1
ENDBRANCH  13   8
ENDBRANCH  11  13
TORSDOF 8
ENDMDL
MODEL 6
REMARK VINA RESULT:      -3.7      2.391      6.986
REMARK  Name = 75536719
REMARK  9 active torsions:
REMARK  status: ('A' for Active; 'I' for Inactive)
REMARK    1  A    between atoms: S_1  and  N_8
REMARK    2  A    between atoms: S_1  and  C_16
REMARK    3  A    between atoms: O_4  and  C_10
REMARK    4  A    between atoms: N_7  and  C_9
REMARK    5  A    between atoms: N_7  and  C_14
REMARK    6  A    between atoms: N_8  and  C_13
REMARK    7  A    between atoms: C_11  and  C_13
REMARK    8  A    between atoms: C_14  and  C_15
REMARK    9  A    between atoms: C_25  and  C_27
REMARK                            x       y       z     vdW  Elec       q    Type
REMARK                         _______ _______ _______ _____ _____    ______ ____
ROOT
ATOM      3  O   UNL     1      -1.642   2.083  22.778  0.00  0.00    -0.371 OA
ATOM      9  C   UNL     1      -3.624   2.454  24.033  0.00  0.00    +0.111 C 
ATOM     10  C   UNL     1      -2.437   2.423  24.979  0.00  0.00    +0.164 C 
ATOM     11  C   UNL     1      -1.291   2.714  24.020  0.00  0.00    +0.164 C 
ATOM     12  C   UNL     1      -3.047   1.773  22.804  0.00  0.00    +0.181 C 
ENDROOT
BRANCH  10   4
ATOM      4  O   UNL     1      -2.529   3.395  26.002  0.00  0.00    -0.388 OA
ATOM     30  H   UNL     1      -2.997   3.001  26.758  0.00  0.00    +0.210 HD
ENDBRANCH  10   4
BRANCH   9   7
ATOM      7  N   UNL     1      -4.802   1.779  24.555  0.00  0.00    -0.305 NA
ATOM     28  H   UNL     1      -5.246   1.255  23.801  0.00  0.00    +0.123 HD
BRANCH   7  14
ATOM     14  C   UNL     1      -4.446   0.855  25.626  0.00  0.00    +0.119 C 
BRANCH  14  15
ATOM      2  F   UNL     1      -2.073  -0.432  26.488  0.00  0.00    -0.205 F 
ATOM     15  C   UNL     1      -3.992  -0.476  25.090  0.00  0.00    +0.002 A 
ATOM     17  C   UNL     1      -2.813  -1.055  25.559  0.00  0.00    +0.128 A 
ATOM     18  C   UNL     1      -4.753  -1.131  24.122  0.00  0.00    +0.008 A 
ATOM     21  C   UNL     1      -2.394  -2.288  25.058  0.00  0.00    +0.038 A 
ATOM     22  C   UNL     1      -4.334  -2.363  23.621  0.00  0.00    +0.000 A 
ATOM     26  C   UNL     1      -3.154  -2.942  24.090  0.00  0.00    +0.003 A 
ENDBRANCH  14  15
ENDBRANCH   7  14
ENDBRANCH   9   7
BRANCH  11  13
ATOM     13  C   UNL     1       0.047   2.184  24.504  0.00  0.00    +0.140 C 
BRANCH  13   8
ATOM      8  N   UNL     1       0.840   1.712  23.352  0.00  0.00    -0.187 NA
ATOM     29  H   UNL     1       0.857   2.338  22.537  0.00  0.00    +0.148 HD
BRANCH   8   1
ATOM      1  S   UNL     1       1.070   0.046  23.100  0.00  0.00    +0.058 S 
ATOM      5  O   UNL     1       0.694  -0.291  21.741  0.00  0.00    -0.153 OA
ATOM      6  O   UNL     1       0.500  -0.683  24.217  0.00  0.00    -0.153 OA
BRANCH   1  16
ATOM     16  C   UNL     1       2.827  -0.100  23.231  0.00  0.00    +0.105 A 
ATOM     19  C   UNL     1       3.395  -1.284  23.702  0.00  0.00    +0.029 A 
ATOM     20  C   UNL     1       3.645   0.969  22.867  0.00  0.00    +0.029 A 
ATOM     23  C   UNL     1       4.780  -1.398  23.807  0.00  0.00    +0.005 A 
ATOM     24  C   UNL     1       5.031   0.855  22.973  0.00  0.00    +0.005 A 
ATOM     25  C   UNL     1       5.599  -0.329  23.443  0.00  0.00    -0.050 A 
ATOM     27  C   UNL     1       7.081  -0.451  23.557  0.00  0.00    +0.044 C 
ENDBRANCH   1  16
ENDBRANCH   8   1
ENDBRANCH  13   8
ENDBRANCH  11  13
TORSDOF 8
ENDMDL
MODEL 7
REMARK VINA RESULT:      -3.4      1.543      2.037
REMARK  Name = 75536719
REMARK  9 active torsions:
REMARK  status: ('A' for Active; 'I' for Inactive)
REMARK    1  A    between atoms: S_1  and  N_8
REMARK    2  A    between atoms: S_1  and  C_16
REMARK    3  A    between atoms: O_4  and  C_10
REMARK    4  A    between atoms: N_7  and  C_9
REMARK    5  A    between atoms: N_7  and  C_14
REMARK    6  A    between atoms: N_8  and  C_13
REMARK    7  A    between atoms: C_11  and  C_13
REMARK    8  A    between atoms: C_14  and  C_15
REMARK    9  A    between atoms: C_25  and  C_27
REMARK                            x       y       z     vdW  Elec       q    Type
REMARK                         _______ _______ _______ _____ _____    ______ ____
ROOT
ATOM      3  O   UNL     1      -2.249   4.162  25.546  0.00  0.00    -0.371 OA
ATOM      9  C   UNL     1      -0.788   2.508  24.669  0.00  0.00    +0.111 C 
ATOM     10  C   UNL     1      -2.172   2.308  24.080  0.00  0.00    +0.164 C 
ATOM     11  C   UNL     1      -2.787   3.683  24.303  0.00  0.00    +0.164 C 
ATOM     12  C   UNL     1      -1.098   3.367  25.883  0.00  0.00    +0.181 C 
ENDROOT
BRANCH  10   4
ATOM      4  O   UNL     1      -2.138   1.961  22.710  0.00  0.00    -0.388 OA
ATOM     30  H   UNL     1      -1.352   1.411  22.553  0.00  0.00    +0.210 HD
ENDBRANCH  10   4
BRANCH   9   7
ATOM      7  N   UNL     1      -0.115   1.265  25.011  0.00  0.00    -0.305 NA
ATOM     28  H   UNL     1      -0.621   0.810  25.770  0.00  0.00    +0.123 HD
BRANCH   7  14
ATOM     14  C   UNL     1      -0.069   0.361  23.867  0.00  0.00    +0.119 C 
BRANCH  14  15
ATOM      2  F   UNL     1       0.454  -0.991  21.432  0.00  0.00    -0.205 F 
ATOM     15  C   UNL     1       1.267   0.400  23.176  0.00  0.00    +0.002 A 
ATOM     17  C   UNL     1       1.457  -0.288  21.978  0.00  0.00    +0.128 A 
ATOM     18  C   UNL     1       2.318   1.126  23.737  0.00  0.00    +0.008 A 
ATOM     21  C   UNL     1       2.698  -0.251  21.341  0.00  0.00    +0.038 A 
ATOM     22  C   UNL     1       3.558   1.163  23.100  0.00  0.00    +0.000 A 
ATOM     26  C   UNL     1       3.748   0.474  21.902  0.00  0.00    +0.003 A 
ENDBRANCH  14  15
ENDBRANCH   7  14
ENDBRANCH   9   7
BRANCH  11  13
ATOM     13  C   UNL     1      -4.303   3.659  24.375  0.00  0.00    +0.140 C 
BRANCH  13   8
ATOM      8  N   UNL     1      -4.730   3.008  25.629  0.00  0.00    -0.187 NA
ATOM     29  H   UNL     1      -4.066   3.069  26.411  0.00  0.00    +0.148 HD
BRANCH   8   1
ATOM      1  S   UNL     1      -5.810   1.695  25.583  0.00  0.00    +0.058 S 
ATOM      5  O   UNL     1      -6.712   1.854  24.459  0.00  0.00    -0.153 OA
ATOM      6  O   UNL     1      -6.336   1.469  26.915  0.00  0.00    -0.153 OA
BRANCH   1  16
ATOM     16  C   UNL     1      -4.724   0.347  25.222  0.00  0.00    +0.105 A 
ATOM     19  C   UNL     1      -4.728  -0.231  23.953  0.00  0.00    +0.029 A 
ATOM     20  C   UNL     1      -3.865  -0.141  26.207  0.00  0.00    +0.029 A 
ATOM     23  C   UNL     1      -3.874  -1.296  23.669  0.00  0.00    +0.005 A 
ATOM     24  C   UNL     1      -3.011  -1.206  25.923  0.00  0.00    +0.005 A 
ATOM     25  C   UNL     1      -3.015  -1.783  24.653  0.00  0.00    -0.050 A 
ATOM     27  C   UNL     1      -2.101  -2.923  24.350  0.00  0.00    +0.044 C 
ENDBRANCH   1  16
ENDBRANCH   8   1
ENDBRANCH  13   8
ENDBRANCH  11  13
TORSDOF 8
ENDMDL
MODEL 8
REMARK VINA RESULT:      -3.1      2.980      7.271
REMARK  Name = 75536719
REMARK  9 active torsions:
REMARK  status: ('A' for Active; 'I' for Inactive)
REMARK    1  A    between atoms: S_1  and  N_8
REMARK    2  A    between atoms: S_1  and  C_16
REMARK    3  A    between atoms: O_4  and  C_10
REMARK    4  A    between atoms: N_7  and  C_9
REMARK    5  A    between atoms: N_7  and  C_14
REMARK    6  A    between atoms: N_8  and  C_13
REMARK    7  A    between atoms: C_11  and  C_13
REMARK    8  A    between atoms: C_14  and  C_15
REMARK    9  A    between atoms: C_25  and  C_27
REMARK                            x       y       z     vdW  Elec       q    Type
REMARK                         _______ _______ _______ _____ _____    ______ ____
ROOT
ATOM      3  O   UNL     1      -1.434  -1.157  25.913  0.00  0.00    -0.371 OA
ATOM      9  C   UNL     1      -3.735  -0.687  25.568  0.00  0.00    +0.111 C 
ATOM     10  C   UNL     1      -3.150  -1.259  24.289  0.00  0.00    +0.164 C 
ATOM     11  C   UNL     1      -1.912  -1.965  24.825  0.00  0.00    +0.164 C 
ATOM     12  C   UNL     1      -2.481  -0.252  26.305  0.00  0.00    +0.181 C 
ENDROOT
BRANCH  10   4
ATOM      4  O   UNL     1      -4.029  -2.155  23.640  0.00  0.00    -0.388 OA
ATOM     30  H   UNL     1      -4.626  -2.536  24.307  0.00  0.00    +0.210 HD
ENDBRANCH  10   4
BRANCH   9   7
ATOM      7  N   UNL     1      -4.668   0.406  25.343  0.00  0.00    -0.305 NA
ATOM     28  H   UNL     1      -4.726   0.974  26.188  0.00  0.00    +0.123 HD
BRANCH   7  14
ATOM     14  C   UNL     1      -4.231   1.251  24.237  0.00  0.00    +0.119 C 
BRANCH  14  15
ATOM      2  F   UNL     1      -5.242   3.096  26.135  0.00  0.00    -0.205 F 
ATOM     15  C   UNL     1      -3.452   2.446  24.717  0.00  0.00    +0.002 A 
ATOM     17  C   UNL     1      -4.009   3.314  25.655  0.00  0.00    +0.128 A 
ATOM     18  C   UNL     1      -2.170   2.683  24.222  0.00  0.00    +0.008 A 
ATOM     21  C   UNL     1      -3.285   4.422  26.097  0.00  0.00    +0.038 A 
ATOM     22  C   UNL     1      -1.446   3.790  24.664  0.00  0.00    +0.000 A 
ATOM     26  C   UNL     1      -2.004   4.659  25.602  0.00  0.00    +0.003 A 
ENDBRANCH  14  15
ENDBRANCH   7  14
ENDBRANCH   9   7
BRANCH  11  13
ATOM     13  C   UNL     1      -0.816  -2.127  23.786  0.00  0.00    +0.140 C 
BRANCH  13   8
ATOM      8  N   UNL     1       0.319  -1.246  24.121  0.00  0.00    -0.187 NA
ATOM     29  H   UNL     1       0.485  -1.094  25.124  0.00  0.00    +0.148 HD
BRANCH   8   1
ATOM      1  S   UNL     1       0.815  -0.042  23.027  0.00  0.00    +0.058 S 
ATOM      5  O   UNL     1       0.380   1.255  23.508  0.00  0.00    -0.153 OA
ATOM      6  O   UNL     1       0.490  -0.467  21.679  0.00  0.00    -0.153 OA
BRANCH   1  16
ATOM     16  C   UNL     1       2.575  -0.117  23.181  0.00  0.00    +0.105 A 
ATOM     19  C   UNL     1       3.184  -1.274  23.668  0.00  0.00    +0.029 A 
ATOM     20  C   UNL     1       3.355   0.981  22.819  0.00  0.00    +0.029 A 
ATOM     23  C   UNL     1       4.571  -1.333  23.792  0.00  0.00    +0.005 A 
ATOM     24  C   UNL     1       4.743   0.923  22.943  0.00  0.00    +0.005 A 
ATOM     25  C   UNL     1       5.351  -0.235  23.429  0.00  0.00    -0.050 A 
ATOM     27  C   UNL     1       6.835  -0.297  23.563  0.00  0.00    +0.044 C 
ENDBRANCH   1  16
ENDBRANCH   8   1
ENDBRANCH  13   8
ENDBRANCH  11  13
TORSDOF 8
ENDMDL
MODEL 9
REMARK VINA RESULT:      -3.1      1.213      1.871
REMARK  Name = 75536719
REMARK  9 active torsions:
REMARK  status: ('A' for Active; 'I' for Inactive)
REMARK    1  A    between atoms: S_1  and  N_8
REMARK    2  A    between atoms: S_1  and  C_16
REMARK    3  A    between atoms: O_4  and  C_10
REMARK    4  A    between atoms: N_7  and  C_9
REMARK    5  A    between atoms: N_7  and  C_14
REMARK    6  A    between atoms: N_8  and  C_13
REMARK    7  A    between atoms: C_11  and  C_13
REMARK    8  A    between atoms: C_14  and  C_15
REMARK    9  A    between atoms: C_25  and  C_27
REMARK                            x       y       z     vdW  Elec       q    Type
REMARK                         _______ _______ _______ _____ _____    ______ ____
ROOT
ATOM      3  O   UNL     1      -2.170   1.806  23.314  0.00  0.00    -0.371 OA
ATOM      9  C   UNL     1       0.038   1.137  23.878  0.00  0.00    +0.111 C 
ATOM     10  C   UNL     1      -0.455   2.136  24.909  0.00  0.00    +0.164 C 
ATOM     11  C   UNL     1      -1.962   2.035  24.717  0.00  0.00    +0.164 C 
ATOM     12  C   UNL     1      -0.923   1.391  22.729  0.00  0.00    +0.181 C 
ENDROOT
BRANCH  10   4
ATOM      4  O   UNL     1      -0.067   1.798  26.226  0.00  0.00    -0.388 OA
ATOM     30  H   UNL     1       0.012   0.831  26.283  0.00  0.00    +0.210 HD
ENDBRANCH  10   4
BRANCH   9   7
ATOM      7  N   UNL     1       1.431   1.324  23.505  0.00  0.00    -0.305 NA
ATOM     28  H   UNL     1       1.973   1.541  24.340  0.00  0.00    +0.123 HD
BRANCH   7  14
ATOM     14  C   UNL     1       1.975   0.119  22.888  0.00  0.00    +0.119 C 
BRANCH  14  15
ATOM      2  F   UNL     1       3.019  -2.220  24.102  0.00  0.00    -0.205 F 
ATOM     15  C   UNL     1       3.436  -0.061  23.206  0.00  0.00    +0.002 A 
ATOM     17  C   UNL     1       3.883  -1.239  23.803  0.00  0.00    +0.128 A 
ATOM     18  C   UNL     1       4.342   0.954  22.901  0.00  0.00    +0.008 A 
ATOM     21  C   UNL     1       5.237  -1.402  24.097  0.00  0.00    +0.038 A 
ATOM     22  C   UNL     1       5.696   0.792  23.195  0.00  0.00    +0.000 A 
ATOM     26  C   UNL     1       6.143  -0.387  23.793  0.00  0.00    +0.003 A 
ENDBRANCH  14  15
ENDBRANCH   7  14
ENDBRANCH   9   7
BRANCH  11  13
ATOM     13  C   UNL     1      -2.708   3.285  25.149  0.00  0.00    +0.140 C 
BRANCH  13   8
ATOM      8  N   UNL     1      -3.818   2.915  26.048  0.00  0.00    -0.187 NA
ATOM     29  H   UNL     1      -3.564   2.771  27.034  0.00  0.00    +0.148 HD
BRANCH   8   1
ATOM      1  S   UNL     1      -5.176   2.096  25.434  0.00  0.00    +0.058 S 
ATOM      5  O   UNL     1      -5.532   2.655  24.144  0.00  0.00    -0.153 OA
ATOM      6  O   UNL     1      -6.173   1.983  26.481  0.00  0.00    -0.153 OA
BRANCH   1  16
ATOM     16  C   UNL     1      -4.527   0.474  25.163  0.00  0.00    +0.105 A 
ATOM     19  C   UNL     1      -3.869  -0.196  26.195  0.00  0.00    +0.029 A 
ATOM     20  C   UNL     1      -4.670  -0.136  23.916  0.00  0.00    +0.029 A 
ATOM     23  C   UNL     1      -3.355  -1.474  25.980  0.00  0.00    +0.005 A 
ATOM     24  C   UNL     1      -4.155  -1.415  23.702  0.00  0.00    +0.005 A 
ATOM     25  C   UNL     1      -3.498  -2.084  24.734  0.00  0.00    -0.050 A 
ATOM     27  C   UNL     1      -2.948  -3.451  24.505  0.00  0.00    +0.044 C 
ENDBRANCH   1  16
ENDBRANCH   8   1
ENDBRANCH  13   8
ENDBRANCH  11  13
TORSDOF 8
ENDMDL
MODEL 10
REMARK VINA RESULT:      -2.9      3.014      5.435
REMARK  Name = 75536719
REMARK  9 active torsions:
REMARK  status: ('A' for Active; 'I' for Inactive)
REMARK    1  A    between atoms: S_1  and  N_8
REMARK    2  A    between atoms: S_1  and  C_16
REMARK    3  A    between atoms: O_4  and  C_10
REMARK    4  A    between atoms: N_7  and  C_9
REMARK    5  A    between atoms: N_7  and  C_14
REMARK    6  A    between atoms: N_8  and  C_13
REMARK    7  A    between atoms: C_11  and  C_13
REMARK    8  A    between atoms: C_14  and  C_15
REMARK    9  A    between atoms: C_25  and  C_27
REMARK                            x       y       z     vdW  Elec       q    Type
REMARK                         _______ _______ _______ _____ _____    ______ ____
ROOT
ATOM      3  O   UNL     1      -0.190  -1.658  23.512  0.00  0.00    -0.371 OA
ATOM      9  C   UNL     1       0.368   0.534  24.235  0.00  0.00    +0.111 C 
ATOM     10  C   UNL     1      -0.722  -0.020  25.133  0.00  0.00    +0.164 C 
ATOM     11  C   UNL     1      -0.569  -1.516  24.891  0.00  0.00    +0.164 C 
ATOM     12  C   UNL     1       0.256  -0.379  23.026  0.00  0.00    +0.181 C 
ENDROOT
BRANCH  10   4
ATOM      4  O   UNL     1      -0.532   0.317  26.493  0.00  0.00    -0.388 OA
ATOM     30  H   UNL     1      -0.664  -0.485  27.028  0.00  0.00    +0.210 HD
ENDBRANCH  10   4
BRANCH   9   7
ATOM      7  N   UNL     1       0.190   1.939  23.902  0.00  0.00    -0.305 NA
ATOM     28  H   UNL     1      -0.773   2.091  23.602  0.00  0.00    +0.123 HD
BRANCH   7  14
ATOM     14  C   UNL     1       0.465   2.791  25.054  0.00  0.00    +0.119 C 
BRANCH  14  15
ATOM      2  F   UNL     1       0.063   5.286  23.772  0.00  0.00    -0.205 F 
ATOM     15  C   UNL     1      -0.694   3.699  25.368  0.00  0.00    +0.002 A 
ATOM     17  C   UNL     1      -0.833   4.914  24.699  0.00  0.00    +0.128 A 
ATOM     18  C   UNL     1      -1.629   3.322  26.332  0.00  0.00    +0.008 A 
ATOM     21  C   UNL     1      -1.907   5.754  24.994  0.00  0.00    +0.038 A 
ATOM     22  C   UNL     1      -2.703   4.162  26.627  0.00  0.00    +0.000 A 
ATOM     26  C   UNL     1      -2.842   5.378  25.957  0.00  0.00    +0.003 A 
ENDBRANCH  14  15
ENDBRANCH   7  14
ENDBRANCH   9   7
BRANCH  11  13
ATOM     13  C   UNL     1      -1.840  -2.301  25.158  0.00  0.00    +0.140 C 
BRANCH  13   8
ATOM      8  N   UNL     1      -2.968  -1.368  25.352  0.00  0.00    -0.187 NA
ATOM     29  H   UNL     1      -3.354  -1.327  26.303  0.00  0.00    +0.148 HD
BRANCH   8   1
ATOM      1  S   UNL     1      -3.986  -0.980  24.046  0.00  0.00    +0.058 S 
ATOM      5  O   UNL     1      -5.111  -1.895  24.025  0.00  0.00    -0.153 OA
ATOM      6  O   UNL     1      -3.177  -0.789  22.857  0.00  0.00    -0.153 OA
BRANCH   1  16
ATOM     16  C   UNL     1      -4.590   0.613  24.520  0.00  0.00    +0.105 A 
ATOM     19  C   UNL     1      -5.512   0.728  25.560  0.00  0.00    +0.029 A 
ATOM     20  C   UNL     1      -4.146   1.754  23.852  0.00  0.00    +0.029 A 
ATOM     23  C   UNL     1      -5.990   1.984  25.932  0.00  0.00    +0.005 A 
ATOM     24  C   UNL     1      -4.625   3.011  24.224  0.00  0.00    +0.005 A 
ATOM     25  C   UNL     1      -5.547   3.125  25.265  0.00  0.00    -0.050 A 
ATOM     27  C   UNL     1      -6.058   4.469  25.662  0.00  0.00    +0.044 C 
ENDBRANCH   1  16
ENDBRANCH   8   1
ENDBRANCH  13   8
ENDBRANCH  11  13
TORSDOF 8
ENDMDL
