MODEL 1
REMARK VINA RESULT:      -3.4      0.000      0.000
REMARK  Name = 28962854
REMARK  11 active torsions:
REMARK  status: ('A' for Active; 'I' for Inactive)
REMARK    1  A    between atoms: O_1  and  C_10
REMARK    2  A    between atoms: O_4  and  C_26
REMARK    3  A    between atoms: O_4  and  C_29
REMARK    4  A    between atoms: N_5  and  C_14
REMARK    5  A    between atoms: N_6  and  C_23
REMARK    6  A    between atoms: C_7  and  C_17
REMARK    7  A    between atoms: C_9  and  C_19
REMARK    8  A    between atoms: C_12  and  C_18
REMARK    9  A    between atoms: C_18  and  C_20
REMARK   10  A    between atoms: C_18  and  C_21
REMARK   11  A    between atoms: C_22  and  C_26
REMARK                            x       y       z     vdW  Elec       q    Type
REMARK                         _______ _______ _______ _____ _____    ______ ____
ROOT
ATOM      7  C   UNL     1      -2.149  -0.943  25.147  0.00  0.00    -0.027 C 
ATOM      8  C   UNL     1      -2.156   0.201  24.077  0.00  0.00    +0.028 C 
ATOM      9  C   UNL     1      -0.715   0.794  23.884  0.00  0.00    +0.012 C 
ATOM     10  C   UNL     1      -3.274   1.242  24.373  0.00  0.00    +0.122 C 
ATOM     11  C   UNL     1      -3.556  -1.580  25.229  0.00  0.00    +0.007 C 
ATOM     12  C   UNL     1      -4.663   0.587  24.559  0.00  0.00    +0.029 C 
ATOM     13  C   UNL     1      -1.159  -2.043  24.700  0.00  0.00    +0.009 C 
ATOM     14  C   UNL     1       0.287  -0.334  23.510  0.00  0.00    +0.076 C 
ATOM     15  C   UNL     1      -4.648  -0.570  25.558  0.00  0.00    +0.007 C 
ATOM     16  C   UNL     1       0.252  -1.521  24.472  0.00  0.00    +0.023 C 
ATOM     17  C   UNL     1      -1.748  -0.436  26.555  0.00  0.00    +0.011 C 
ATOM     19  C   UNL     1      -0.644   1.906  22.824  0.00  0.00    +0.010 C 
ENDROOT
BRANCH  14   5
ATOM      3  O   UNL     1       2.019  -0.323  21.193  0.00  0.00    -0.273 OA
ATOM      5  N   UNL     1       1.646   0.159  23.438  0.00  0.00    -0.310 N 
ATOM     22  C   UNL     1       2.397   0.120  22.275  0.00  0.00    +0.239 C 
ATOM     30  H   UNL     1       2.082   0.487  24.295  0.00  0.00    +0.149 HD
BRANCH  22  26
ATOM     26  C   UNL     1       3.780   0.700  22.485  0.00  0.00    +0.255 C 
BRANCH  26   4
ATOM      4  O   UNL     1       4.641  -0.261  23.056  0.00  0.00    -0.374 OA
ATOM     29  C   UNL     1       5.468   0.302  24.071  0.00  0.00    +0.194 C 
ENDBRANCH  26   4
ENDBRANCH  22  26
ENDBRANCH  14   5
BRANCH  10   1
ATOM      1  O   UNL     1      -3.392   2.141  23.270  0.00  0.00    -0.391 OA
ATOM     31  H   UNL     1      -3.219   1.644  22.453  0.00  0.00    +0.210 HD
ENDBRANCH  10   1
BRANCH  12  18
ATOM     18  C   UNL     1      -5.724   1.612  24.978  0.00  0.00    +0.077 C 
ATOM     20  C   UNL     1      -6.293   2.311  23.748  0.00  0.00    +0.017 C 
BRANCH  18  21
ATOM      2  O   UNL     1      -5.585   2.811  27.077  0.00  0.00    -0.276 OA
ATOM      6  N   UNL     1      -4.006   3.259  25.437  0.00  0.00    -0.312 N 
ATOM     21  C   UNL     1      -5.119   2.613  25.957  0.00  0.00    +0.216 C 
ATOM     32  H   UNL     1      -3.674   3.018  24.510  0.00  0.00    +0.149 HD
BRANCH   6  23
ATOM     23  C   UNL     1      -3.265   4.251  26.176  0.00  0.00    +0.073 C 
ATOM     24  C   UNL     1      -2.475   5.168  25.250  0.00  0.00    +0.022 C 
ATOM     25  C   UNL     1      -2.177   3.623  27.039  0.00  0.00    +0.022 C 
ATOM     27  C   UNL     1      -1.206   4.384  24.925  0.00  0.00    +0.002 C 
ATOM     28  C   UNL     1      -0.992   3.422  26.095  0.00  0.00    +0.002 C 
ENDBRANCH   6  23
ENDBRANCH  18  21
ENDBRANCH  12  18
TORSDOF 7
ENDMDL
MODEL 2
REMARK VINA RESULT:      -0.2     15.378     17.995
REMARK  Name = 28962854
REMARK  11 active torsions:
REMARK  status: ('A' for Active; 'I' for Inactive)
REMARK    1  A    between atoms: O_1  and  C_10
REMARK    2  A    between atoms: O_4  and  C_26
REMARK    3  A    between atoms: O_4  and  C_29
REMARK    4  A    between atoms: N_5  and  C_14
REMARK    5  A    between atoms: N_6  and  C_23
REMARK    6  A    between atoms: C_7  and  C_17
REMARK    7  A    between atoms: C_9  and  C_19
REMARK    8  A    between atoms: C_12  and  C_18
REMARK    9  A    between atoms: C_18  and  C_20
REMARK   10  A    between atoms: C_18  and  C_21
REMARK   11  A    between atoms: C_22  and  C_26
REMARK                            x       y       z     vdW  Elec       q    Type
REMARK                         _______ _______ _______ _____ _____    ______ ____
ROOT
ATOM      7  C   UNL     1      -8.000  -9.882  11.228  0.00  0.00    -0.027 C 
ATOM      8  C   UNL     1      -6.908 -10.174  12.312  0.00  0.00    +0.028 C 
ATOM      9  C   UNL     1      -7.475  -9.927  13.756  0.00  0.00    +0.012 C 
ATOM     10  C   UNL     1      -5.575  -9.443  11.981  0.00  0.00    +0.122 C 
ATOM     11  C   UNL     1      -7.447 -10.244   9.829  0.00  0.00    +0.007 C 
ATOM     12  C   UNL     1      -5.082  -9.726  10.543  0.00  0.00    +0.029 C 
ATOM     13  C   UNL     1      -9.229 -10.780  11.496  0.00  0.00    +0.009 C 
ATOM     14  C   UNL     1      -8.754 -10.779  13.987  0.00  0.00    +0.076 C 
ATOM     15  C   UNL     1      -6.164  -9.499   9.487  0.00  0.00    +0.007 C 
ATOM     16  C   UNL     1      -9.807 -10.603  12.893  0.00  0.00    +0.023 C 
ATOM     17  C   UNL     1      -8.445  -8.397  11.220  0.00  0.00    +0.011 C 
ATOM     19  C   UNL     1      -6.460 -10.223  14.874  0.00  0.00    +0.010 C 
ENDROOT
BRANCH  14   5
ATOM      3  O   UNL     1     -10.544  -8.593  14.608  0.00  0.00    -0.273 OA
ATOM      5  N   UNL     1      -9.367 -10.488  15.266  0.00  0.00    -0.310 N 
ATOM     22  C   UNL     1     -10.215  -9.412  15.463  0.00  0.00    +0.239 C 
ATOM     30  H   UNL     1      -9.111 -11.066  16.061  0.00  0.00    +0.149 HD
BRANCH  22  26
ATOM     26  C   UNL     1     -10.711  -9.347  16.892  0.00  0.00    +0.255 C 
BRANCH  26   4
ATOM      4  O   UNL     1      -9.626  -9.287  17.793  0.00  0.00    -0.374 OA
ATOM     29  C   UNL     1      -9.477 -10.498  18.528  0.00  0.00    +0.194 C 
ENDBRANCH  26   4
ENDBRANCH  22  26
ENDBRANCH  14   5
BRANCH  10   1
ATOM      1  O   UNL     1      -4.549  -9.901  12.862  0.00  0.00    -0.391 OA
ATOM     31  H   UNL     1      -4.973 -10.281  13.649  0.00  0.00    +0.210 HD
ENDBRANCH  10   1
BRANCH  12  18
ATOM     18  C   UNL     1      -3.842  -8.895  10.193  0.00  0.00    +0.077 C 
ATOM     20  C   UNL     1      -3.745  -8.707   8.683  0.00  0.00    +0.017 C 
BRANCH  18  21
ATOM      2  O   UNL     1      -2.526 -10.778  10.960  0.00  0.00    -0.276 OA
ATOM      6  N   UNL     1      -1.563  -8.668  10.987  0.00  0.00    -0.312 N 
ATOM     21  C   UNL     1      -2.592  -9.569  10.751  0.00  0.00    +0.216 C 
ATOM     32  H   UNL     1      -1.694  -7.688  10.763  0.00  0.00    +0.149 HD
BRANCH   6  23
ATOM     23  C   UNL     1      -0.282  -9.068  11.516  0.00  0.00    +0.073 C 
ATOM     24  C   UNL     1      -0.105  -8.618  12.960  0.00  0.00    +0.022 C 
ATOM     25  C   UNL     1       0.870  -8.374  10.800  0.00  0.00    +0.022 C 
ATOM     27  C   UNL     1       0.334  -7.159  12.856  0.00  0.00    +0.002 C 
ATOM     28  C   UNL     1       0.998  -7.014  11.485  0.00  0.00    +0.002 C 
ENDBRANCH   6  23
ENDBRANCH  18  21
ENDBRANCH  12  18
TORSDOF 7
ENDMDL
