MODEL 1
REMARK VINA RESULT:      -3.3      0.000      0.000
REMARK  Name = 75537107
REMARK  3 active torsions:
REMARK  status: ('A' for Active; 'I' for Inactive)
REMARK    1  A    between atoms: N_3  and  C_8
REMARK    2  A    between atoms: N_5  and  C_18
REMARK    3  A    between atoms: C_19  and  C_20
REMARK                            x       y       z     vdW  Elec       q    Type
REMARK                         _______ _______ _______ _____ _____    ______ ____
ROOT
ATOM      1  O   UNL     1       7.431  -7.894  32.320  0.00  0.00    -0.252 OA
ATOM      3  N   UNL     1      12.501  -8.045  32.125  0.00  0.00    -0.296 NA
ATOM      4  N   UNL     1       9.726  -8.380  32.442  0.00  0.00    -0.278 N 
ATOM      5  N   UNL     1       8.327 -10.013  31.799  0.00  0.00    -0.287 N 
ATOM      7  C   UNL     1      10.567  -9.553  32.325  0.00  0.00    +0.109 C 
ATOM      9  C   UNL     1      11.834  -9.224  31.537  0.00  0.00    +0.108 C 
ATOM     10  C   UNL     1      11.610  -6.867  32.097  0.00  0.00    +0.104 C 
ATOM     11  C   UNL     1      10.314  -7.127  32.869  0.00  0.00    +0.125 C 
ATOM     14  C   UNL     1       9.654 -10.588  31.671  0.00  0.00    +0.132 C 
ATOM     17  C   UNL     1       8.375  -8.665  32.206  0.00  0.00    +0.305 C 
ATOM     18  C   UNL     1       7.138 -10.732  31.397  0.00  0.00    +0.133 C 
ENDROOT
BRANCH   3   8
ATOM      2  O   UNL     1      15.294  -6.687  26.819  0.00  0.00    -0.276 OA
ATOM      6  N   UNL     1      15.256  -7.610  28.950  0.00  0.00    -0.302 N 
ATOM      8  C   UNL     1      13.745  -7.758  31.415  0.00  0.00    +0.060 C 
ATOM     12  C   UNL     1      13.524  -6.626  30.403  0.00  0.00    +0.038 C 
ATOM     13  C   UNL     1      14.251  -9.021  30.706  0.00  0.00    +0.038 C 
ATOM     15  C   UNL     1      14.788  -6.375  29.582  0.00  0.00    +0.109 C 
ATOM     16  C   UNL     1      15.500  -8.721  29.878  0.00  0.00    +0.109 C 
ATOM     19  C   UNL     1      15.472  -7.646  27.573  0.00  0.00    +0.212 C 
ATOM     20  C   UNL     1      15.952  -8.956  26.999  0.00  0.00    +0.109 C 
ENDBRANCH   3   8
TORSDOF 1
ENDMDL
MODEL 2
REMARK VINA RESULT:      -2.6      2.709      3.851
REMARK  Name = 75537107
REMARK  3 active torsions:
REMARK  status: ('A' for Active; 'I' for Inactive)
REMARK    1  A    between atoms: N_3  and  C_8
REMARK    2  A    between atoms: N_5  and  C_18
REMARK    3  A    between atoms: C_19  and  C_20
REMARK                            x       y       z     vdW  Elec       q    Type
REMARK                         _______ _______ _______ _____ _____    ______ ____
ROOT
ATOM      1  O   UNL     1      11.444  -4.372  32.495  0.00  0.00    -0.252 OA
ATOM      3  N   UNL     1      15.841  -6.365  30.927  0.00  0.00    -0.296 NA
ATOM      4  N   UNL     1      13.421  -5.588  32.132  0.00  0.00    -0.278 N 
ATOM      5  N   UNL     1      11.544  -6.726  32.605  0.00  0.00    -0.287 N 
ATOM      7  C   UNL     1      13.851  -6.966  32.243  0.00  0.00    +0.109 C 
ATOM      9  C   UNL     1      14.743  -7.343  31.061  0.00  0.00    +0.108 C 
ATOM     10  C   UNL     1      15.310  -5.005  30.700  0.00  0.00    +0.104 C 
ATOM     11  C   UNL     1      14.403  -4.560  31.850  0.00  0.00    +0.125 C 
ATOM     14  C   UNL     1      12.541  -7.747  32.335  0.00  0.00    +0.132 C 
ATOM     17  C   UNL     1      12.060  -5.427  32.424  0.00  0.00    +0.305 C 
ATOM     18  C   UNL     1      10.162  -7.056  32.873  0.00  0.00    +0.133 C 
ENDROOT
BRANCH   3   8
ATOM      2  O   UNL     1      16.657  -7.194  24.890  0.00  0.00    -0.276 OA
ATOM      6  N   UNL     1      17.133  -7.655  27.116  0.00  0.00    -0.302 N 
ATOM      8  C   UNL     1      16.734  -6.750  29.836  0.00  0.00    +0.060 C 
ATOM     12  C   UNL     1      16.535  -5.812  28.638  0.00  0.00    +0.038 C 
ATOM     13  C   UNL     1      16.470  -8.204  29.427  0.00  0.00    +0.038 C 
ATOM     15  C   UNL     1      17.390  -6.254  27.452  0.00  0.00    +0.109 C 
ATOM     16  C   UNL     1      17.326  -8.600  28.224  0.00  0.00    +0.109 C 
ATOM     19  C   UNL     1      16.777  -8.003  25.813  0.00  0.00    +0.212 C 
ATOM     20  C   UNL     1      16.527  -9.466  25.548  0.00  0.00    +0.109 C 
ENDBRANCH   3   8
TORSDOF 1
ENDMDL
MODEL 3
REMARK VINA RESULT:      -2.4     16.204     17.510
REMARK  Name = 75537107
REMARK  3 active torsions:
REMARK  status: ('A' for Active; 'I' for Inactive)
REMARK    1  A    between atoms: N_3  and  C_8
REMARK    2  A    between atoms: N_5  and  C_18
REMARK    3  A    between atoms: C_19  and  C_20
REMARK                            x       y       z     vdW  Elec       q    Type
REMARK                         _______ _______ _______ _____ _____    ______ ____
ROOT
ATOM      1  O   UNL     1      -5.010   4.182  25.364  0.00  0.00    -0.252 OA
ATOM      3  N   UNL     1      -0.809   1.480  24.459  0.00  0.00    -0.296 NA
ATOM      4  N   UNL     1      -3.274   2.605  25.212  0.00  0.00    -0.278 N 
ATOM      5  N   UNL     1      -5.389   1.886  24.979  0.00  0.00    -0.287 N 
ATOM      7  C   UNL     1      -3.159   1.165  25.117  0.00  0.00    +0.109 C 
ATOM      9  C   UNL     1      -2.066   0.783  24.121  0.00  0.00    +0.108 C 
ATOM     10  C   UNL     1      -0.992   2.945  24.417  0.00  0.00    +0.104 C 
ATOM     11  C   UNL     1      -2.078   3.401  25.394  0.00  0.00    +0.125 C 
ATOM     14  C   UNL     1      -4.567   0.714  24.732  0.00  0.00    +0.132 C 
ATOM     17  C   UNL     1      -4.607   3.036  25.209  0.00  0.00    +0.305 C 
ATOM     18  C   UNL     1      -6.828   1.855  24.843  0.00  0.00    +0.133 C 
ENDROOT
BRANCH   3   8
ATOM      2  O   UNL     1       4.318  -1.788  23.544  0.00  0.00    -0.276 OA
ATOM      6  N   UNL     1       2.913   0.008  23.102  0.00  0.00    -0.302 N 
ATOM      8  C   UNL     1       0.259   1.075  23.548  0.00  0.00    +0.060 C 
ATOM     12  C   UNL     1       0.567  -0.417  23.729  0.00  0.00    +0.038 C 
ATOM     13  C   UNL     1       1.516   1.917  23.801  0.00  0.00    +0.038 C 
ATOM     15  C   UNL     1       1.746  -0.841  22.854  0.00  0.00    +0.109 C 
ATOM     16  C   UNL     1       2.677   1.447  22.925  0.00  0.00    +0.109 C 
ATOM     19  C   UNL     1       4.136  -0.573  23.436  0.00  0.00    +0.212 C 
ATOM     20  C   UNL     1       5.288   0.369  23.678  0.00  0.00    +0.109 C 
ENDBRANCH   3   8
TORSDOF 1
ENDMDL
MODEL 4
REMARK VINA RESULT:      -1.8      3.748      5.579
REMARK  Name = 75537107
REMARK  3 active torsions:
REMARK  status: ('A' for Active; 'I' for Inactive)
REMARK    1  A    between atoms: N_3  and  C_8
REMARK    2  A    between atoms: N_5  and  C_18
REMARK    3  A    between atoms: C_19  and  C_20
REMARK                            x       y       z     vdW  Elec       q    Type
REMARK                         _______ _______ _______ _____ _____    ______ ____
ROOT
ATOM      1  O   UNL     1      12.409  -6.226  32.299  0.00  0.00    -0.252 OA
ATOM      3  N   UNL     1      16.584  -5.199  29.601  0.00  0.00    -0.296 NA
ATOM      4  N   UNL     1      14.456  -6.196  31.146  0.00  0.00    -0.278 N 
ATOM      5  N   UNL     1      13.113  -7.976  30.883  0.00  0.00    -0.287 N 
ATOM      7  C   UNL     1      15.226  -7.115  30.335  0.00  0.00    +0.109 C 
ATOM      9  C   UNL     1      15.838  -6.386  29.139  0.00  0.00    +0.108 C 
ATOM     10  C   UNL     1      15.693  -4.263  30.317  0.00  0.00    +0.104 C 
ATOM     11  C   UNL     1      15.042  -4.929  31.531  0.00  0.00    +0.125 C 
ATOM     14  C   UNL     1      14.223  -8.210  29.976  0.00  0.00    +0.132 C 
ATOM     17  C   UNL     1      13.225  -6.736  31.542  0.00  0.00    +0.305 C 
ATOM     18  C   UNL     1      11.978  -8.870  30.951  0.00  0.00    +0.133 C 
ENDROOT
BRANCH   3   8
ATOM      2  O   UNL     1      16.132  -1.150  24.996  0.00  0.00    -0.276 OA
ATOM      6  N   UNL     1      17.028  -3.049  25.990  0.00  0.00    -0.302 N 
ATOM      8  C   UNL     1      17.222  -4.528  28.470  0.00  0.00    +0.060 C 
ATOM     12  C   UNL     1      16.825  -3.046  28.446  0.00  0.00    +0.038 C 
ATOM     13  C   UNL     1      16.821  -5.212  27.157  0.00  0.00    +0.038 C 
ATOM     15  C   UNL     1      17.405  -2.347  27.217  0.00  0.00    +0.109 C 
ATOM     16  C   UNL     1      17.400  -4.469  25.953  0.00  0.00    +0.109 C 
ATOM     19  C   UNL     1      16.403  -2.353  24.956  0.00  0.00    +0.212 C 
ATOM     20  C   UNL     1      16.045  -3.148  23.725  0.00  0.00    +0.109 C 
ENDBRANCH   3   8
TORSDOF 1
ENDMDL
MODEL 5
REMARK VINA RESULT:       0.4     16.853     18.318
REMARK  Name = 75537107
REMARK  3 active torsions:
REMARK  status: ('A' for Active; 'I' for Inactive)
REMARK    1  A    between atoms: N_3  and  C_8
REMARK    2  A    between atoms: N_5  and  C_18
REMARK    3  A    between atoms: C_19  and  C_20
REMARK                            x       y       z     vdW  Elec       q    Type
REMARK                         _______ _______ _______ _____ _____    ______ ____
ROOT
ATOM      1  O   UNL     1      -6.595   1.839  26.110  0.00  0.00    -0.252 OA
ATOM      3  N   UNL     1      -2.077   0.721  24.086  0.00  0.00    -0.296 NA
ATOM      4  N   UNL     1      -4.628   1.632  24.843  0.00  0.00    -0.278 N 
ATOM      5  N   UNL     1      -5.436   3.692  25.223  0.00  0.00    -0.287 N 
ATOM      7  C   UNL     1      -3.769   2.507  24.072  0.00  0.00    +0.109 C 
ATOM      9  C   UNL     1      -2.301   2.162  24.315  0.00  0.00    +0.108 C 
ATOM     10  C   UNL     1      -2.908  -0.093  24.996  0.00  0.00    +0.104 C 
ATOM     11  C   UNL     1      -4.397   0.202  24.807  0.00  0.00    +0.125 C 
ATOM     14  C   UNL     1      -4.184   3.907  24.520  0.00  0.00    +0.132 C 
ATOM     17  C   UNL     1      -5.672   2.324  25.469  0.00  0.00    +0.305 C 
ATOM     18  C   UNL     1      -6.233   4.790  25.723  0.00  0.00    +0.133 C 
ENDROOT
BRANCH   3   8
ATOM      2  O   UNL     1       3.786   2.009  22.752  0.00  0.00    -0.276 OA
ATOM      6  N   UNL     1       2.082   0.548  23.352  0.00  0.00    -0.302 N 
ATOM      8  C   UNL     1      -0.663   0.393  24.258  0.00  0.00    +0.060 C 
ATOM     12  C   UNL     1       0.161   1.678  24.405  0.00  0.00    +0.038 C 
ATOM     13  C   UNL     1      -0.164  -0.430  23.063  0.00  0.00    +0.038 C 
ATOM     15  C   UNL     1       1.654   1.362  24.491  0.00  0.00    +0.109 C 
ATOM     16  C   UNL     1       1.336  -0.704  23.175  0.00  0.00    +0.109 C 
ATOM     19  C   UNL     1       3.151   0.969  22.561  0.00  0.00    +0.212 C 
ATOM     20  C   UNL     1       3.529   0.076  21.407  0.00  0.00    +0.109 C 
ENDBRANCH   3   8
TORSDOF 1
ENDMDL
