MODEL 1
REMARK VINA RESULT:      -5.2      0.000      0.000
REMARK  Name = 26743096
REMARK  8 active torsions:
REMARK  status: ('A' for Active; 'I' for Inactive)
REMARK    1  A    between atoms: S_1  and  C_21
REMARK    2  A    between atoms: S_1  and  C_22
REMARK    3  A    between atoms: N_4  and  C_9
REMARK    4  A    between atoms: C_7  and  C_13
REMARK    5  A    between atoms: C_8  and  C_16
REMARK    6  A    between atoms: C_13  and  C_17
REMARK    7  A    between atoms: C_16  and  C_18
REMARK    8  A    between atoms: C_20  and  C_21
REMARK                            x       y       z     vdW  Elec       q    Type
REMARK                         _______ _______ _______ _____ _____    ______ ____
ROOT
ATOM      5  N   UNL     1      -5.937   4.299  25.709  0.00  0.00    -0.316 NA
ATOM      7  C   UNL     1      -4.174   1.949  25.434  0.00  0.00    +0.004 C 
ATOM      8  C   UNL     1      -3.634   3.397  25.489  0.00  0.00    +0.012 C 
ATOM     10  C   UNL     1      -5.544   1.898  26.131  0.00  0.00    +0.019 C 
ATOM     14  C   UNL     1      -4.673   4.412  24.980  0.00  0.00    +0.085 C 
ATOM     15  C   UNL     1      -6.508   2.959  25.603  0.00  0.00    +0.081 C 
ATOM     29  H   UNL     1      -6.600   4.980  25.339  0.00  0.00    +0.122 HD
ENDROOT
BRANCH   7  13
ATOM     13  C   UNL     1      -4.262   1.369  24.017  0.00  0.00    +0.099 C 
BRANCH  13  17
ATOM      2  O   UNL     1      -3.979  -0.794  22.966  0.00  0.00    -0.276 OA
ATOM      4  N   UNL     1      -3.538  -0.565  25.233  0.00  0.00    -0.312 N 
ATOM     17  C   UNL     1      -3.921  -0.105  23.980  0.00  0.00    +0.214 C 
ATOM     28  H   UNL     1      -3.533   0.068  26.028  0.00  0.00    +0.149 HD
BRANCH   4   9
ATOM      9  C   UNL     1      -3.162  -1.928  25.473  0.00  0.00    +0.073 C 
ATOM     11  C   UNL     1      -3.622  -3.031  24.566  0.00  0.00    +0.024 C 
ATOM     12  C   UNL     1      -2.177  -2.631  24.585  0.00  0.00    +0.024 C 
ENDBRANCH   4   9
ENDBRANCH  13  17
ENDBRANCH   7  13
BRANCH   8  16
ATOM     16  C   UNL     1      -2.307   3.570  24.747  0.00  0.00    +0.064 C 
BRANCH  16  18
ATOM      3  O   UNL     1      -0.495   0.582  25.612  0.00  0.00    -0.359 OA
ATOM      6  N   UNL     1      -1.254   1.698  25.941  0.00  0.00    -0.083 NA
ATOM     18  C   UNL     1      -1.495   2.308  24.776  0.00  0.00    +0.084 A 
ATOM     19  C   UNL     1      -0.919   1.629  23.688  0.00  0.00    +0.071 A 
ATOM     20  C   UNL     1      -0.302   0.551  24.268  0.00  0.00    +0.148 A 
BRANCH  20  21
ATOM     21  C   UNL     1       0.486  -0.571  23.744  0.00  0.00    +0.151 C 
BRANCH  21   1
ATOM      1  S   UNL     1       1.466  -0.135  22.264  0.00  0.00    -0.117 S 
BRANCH   1  22
ATOM     22  C   UNL     1       3.126  -0.188  22.925  0.00  0.00    +0.008 A 
ATOM     23  C   UNL     1       3.940   0.943  22.855  0.00  0.00    +0.015 A 
ATOM     24  C   UNL     1       3.606  -1.359  23.509  0.00  0.00    +0.015 A 
ATOM     25  C   UNL     1       5.236   0.901  23.371  0.00  0.00    +0.001 A 
ATOM     26  C   UNL     1       4.902  -1.401  24.025  0.00  0.00    +0.001 A 
ATOM     27  C   UNL     1       5.716  -0.270  23.955  0.00  0.00    +0.000 A 
ENDBRANCH   1  22
ENDBRANCH  21   1
ENDBRANCH  20  21
ENDBRANCH  16  18
ENDBRANCH   8  16
TORSDOF 8
ENDMDL
MODEL 2
REMARK VINA RESULT:      -4.7      2.809      6.233
REMARK  Name = 26743096
REMARK  8 active torsions:
REMARK  status: ('A' for Active; 'I' for Inactive)
REMARK    1  A    between atoms: S_1  and  C_21
REMARK    2  A    between atoms: S_1  and  C_22
REMARK    3  A    between atoms: N_4  and  C_9
REMARK    4  A    between atoms: C_7  and  C_13
REMARK    5  A    between atoms: C_8  and  C_16
REMARK    6  A    between atoms: C_13  and  C_17
REMARK    7  A    between atoms: C_16  and  C_18
REMARK    8  A    between atoms: C_20  and  C_21
REMARK                            x       y       z     vdW  Elec       q    Type
REMARK                         _______ _______ _______ _____ _____    ______ ____
ROOT
ATOM      5  N   UNL     1       2.398   0.751  22.288  0.00  0.00    -0.316 NA
ATOM      7  C   UNL     1      -0.139   0.311  23.730  0.00  0.00    +0.004 C 
ATOM      8  C   UNL     1       0.765   1.540  23.985  0.00  0.00    +0.012 C 
ATOM     10  C   UNL     1       0.129  -0.224  22.313  0.00  0.00    +0.019 C 
ATOM     14  C   UNL     1       2.238   1.240  23.658  0.00  0.00    +0.085 C 
ATOM     15  C   UNL     1       1.615  -0.459  22.048  0.00  0.00    +0.081 C 
ATOM     29  H   UNL     1       3.384   0.557  22.113  0.00  0.00    +0.122 HD
ENDROOT
BRANCH   7  13
ATOM     13  C   UNL     1       0.016  -0.805  24.771  0.00  0.00    +0.099 C 
BRANCH  13  17
ATOM      2  O   UNL     1      -1.790  -0.822  26.383  0.00  0.00    -0.276 OA
ATOM      4  N   UNL     1      -1.920  -2.194  24.515  0.00  0.00    -0.312 N 
ATOM     17  C   UNL     1      -1.316  -1.250  25.334  0.00  0.00    +0.214 C 
ATOM     28  H   UNL     1      -1.451  -2.508  23.670  0.00  0.00    +0.149 HD
BRANCH   4   9
ATOM      9  C   UNL     1      -3.193  -2.780  24.821  0.00  0.00    +0.073 C 
ATOM     11  C   UNL     1      -4.397  -2.506  23.970  0.00  0.00    +0.024 C 
ATOM     12  C   UNL     1      -3.772  -3.870  23.968  0.00  0.00    +0.024 C 
ENDBRANCH   4   9
ENDBRANCH  13  17
ENDBRANCH   7  13
BRANCH   8  16
ATOM     16  C   UNL     1       0.632   2.098  25.403  0.00  0.00    +0.064 C 
BRANCH  16  18
ATOM      3  O   UNL     1      -1.669   4.850  25.099  0.00  0.00    -0.359 OA
ATOM      6  N   UNL     1      -0.489   4.193  24.775  0.00  0.00    -0.083 NA
ATOM     18  C   UNL     1      -0.506   3.072  25.502  0.00  0.00    +0.084 A 
ATOM     19  C   UNL     1      -1.662   2.969  26.296  0.00  0.00    +0.071 A 
ATOM     20  C   UNL     1      -2.359   4.111  26.005  0.00  0.00    +0.148 A 
BRANCH  20  21
ATOM     21  C   UNL     1      -3.641   4.663  26.461  0.00  0.00    +0.151 C 
BRANCH  21   1
ATOM      1  S   UNL     1      -5.026   4.304  25.322  0.00  0.00    -0.117 S 
BRANCH   1  22
ATOM     22  C   UNL     1      -4.388   2.882  24.446  0.00  0.00    +0.008 A 
ATOM     23  C   UNL     1      -3.604   3.060  23.306  0.00  0.00    +0.015 A 
ATOM     24  C   UNL     1      -4.676   1.596  24.902  0.00  0.00    +0.015 A 
ATOM     25  C   UNL     1      -3.106   1.950  22.623  0.00  0.00    +0.001 A 
ATOM     26  C   UNL     1      -4.179   0.486  24.218  0.00  0.00    +0.001 A 
ATOM     27  C   UNL     1      -3.394   0.665  23.078  0.00  0.00    +0.000 A 
ENDBRANCH   1  22
ENDBRANCH  21   1
ENDBRANCH  20  21
ENDBRANCH  16  18
ENDBRANCH   8  16
TORSDOF 8
ENDMDL
MODEL 3
REMARK VINA RESULT:      -4.3      2.491      6.854
REMARK  Name = 26743096
REMARK  8 active torsions:
REMARK  status: ('A' for Active; 'I' for Inactive)
REMARK    1  A    between atoms: S_1  and  C_21
REMARK    2  A    between atoms: S_1  and  C_22
REMARK    3  A    between atoms: N_4  and  C_9
REMARK    4  A    between atoms: C_7  and  C_13
REMARK    5  A    between atoms: C_8  and  C_16
REMARK    6  A    between atoms: C_13  and  C_17
REMARK    7  A    between atoms: C_16  and  C_18
REMARK    8  A    between atoms: C_20  and  C_21
REMARK                            x       y       z     vdW  Elec       q    Type
REMARK                         _______ _______ _______ _____ _____    ______ ____
ROOT
ATOM      5  N   UNL     1      -3.112  -1.068  25.431  0.00  0.00    -0.316 NA
ATOM      7  C   UNL     1      -0.331  -1.050  24.446  0.00  0.00    +0.004 C 
ATOM      8  C   UNL     1      -0.746  -0.400  25.786  0.00  0.00    +0.012 C 
ATOM     10  C   UNL     1      -1.345  -2.147  24.084  0.00  0.00    +0.019 C 
ATOM     14  C   UNL     1      -2.221   0.042  25.771  0.00  0.00    +0.085 C 
ATOM     15  C   UNL     1      -2.788  -1.647  24.129  0.00  0.00    +0.081 C 
ATOM     29  H   UNL     1      -4.076  -0.735  25.424  0.00  0.00    +0.122 HD
ENDROOT
BRANCH   7  13
ATOM     13  C   UNL     1      -0.172  -0.053  23.291  0.00  0.00    +0.099 C 
BRANCH  13  17
ATOM      2  O   UNL     1       1.125  -0.680  21.345  0.00  0.00    -0.276 OA
ATOM      4  N   UNL     1       2.224   0.008  23.270  0.00  0.00    -0.312 N 
ATOM     17  C   UNL     1       1.102  -0.285  22.507  0.00  0.00    +0.214 C 
ATOM     28  H   UNL     1       2.118   0.315  24.233  0.00  0.00    +0.149 HD
BRANCH   4   9
ATOM      9  C   UNL     1       3.559  -0.127  22.763  0.00  0.00    +0.073 C 
ATOM     11  C   UNL     1       4.658   0.787  23.217  0.00  0.00    +0.024 C 
ATOM     12  C   UNL     1       4.668  -0.657  23.624  0.00  0.00    +0.024 C 
ENDBRANCH   4   9
ENDBRANCH  13  17
ENDBRANCH   7  13
BRANCH   8  16
ATOM     16  C   UNL     1       0.158   0.765  26.194  0.00  0.00    +0.064 C 
BRANCH  16  18
ATOM      3  O   UNL     1      -0.520   3.665  24.172  0.00  0.00    -0.359 OA
ATOM      6  N   UNL     1       0.111   2.450  24.406  0.00  0.00    -0.083 NA
ATOM     18  C   UNL     1      -0.322   2.061  25.609  0.00  0.00    +0.084 A 
ATOM     19  C   UNL     1      -1.221   2.981  26.176  0.00  0.00    +0.071 A 
ATOM     20  C   UNL     1      -1.311   3.971  25.233  0.00  0.00    +0.148 A 
BRANCH  20  21
ATOM     21  C   UNL     1      -2.058   5.232  25.151  0.00  0.00    +0.151 C 
BRANCH  21   1
ATOM      1  S   UNL     1      -3.441   5.174  23.957  0.00  0.00    -0.117 S 
BRANCH   1  22
ATOM     22  C   UNL     1      -4.318   3.722  24.518  0.00  0.00    +0.008 A 
ATOM     23  C   UNL     1      -4.197   2.521  23.820  0.00  0.00    +0.015 A 
ATOM     24  C   UNL     1      -5.123   3.790  25.655  0.00  0.00    +0.015 A 
ATOM     25  C   UNL     1      -4.882   1.387  24.258  0.00  0.00    +0.001 A 
ATOM     26  C   UNL     1      -5.808   2.657  26.093  0.00  0.00    +0.001 A 
ATOM     27  C   UNL     1      -5.687   1.455  25.394  0.00  0.00    +0.000 A 
ENDBRANCH   1  22
ENDBRANCH  21   1
ENDBRANCH  20  21
ENDBRANCH  16  18
ENDBRANCH   8  16
TORSDOF 8
ENDMDL
MODEL 4
REMARK VINA RESULT:      -4.1      1.538      1.891
REMARK  Name = 26743096
REMARK  8 active torsions:
REMARK  status: ('A' for Active; 'I' for Inactive)
REMARK    1  A    between atoms: S_1  and  C_21
REMARK    2  A    between atoms: S_1  and  C_22
REMARK    3  A    between atoms: N_4  and  C_9
REMARK    4  A    between atoms: C_7  and  C_13
REMARK    5  A    between atoms: C_8  and  C_16
REMARK    6  A    between atoms: C_13  and  C_17
REMARK    7  A    between atoms: C_16  and  C_18
REMARK    8  A    between atoms: C_20  and  C_21
REMARK                            x       y       z     vdW  Elec       q    Type
REMARK                         _______ _______ _______ _____ _____    ______ ____
ROOT
ATOM      5  N   UNL     1      -2.376   5.727  24.524  0.00  0.00    -0.316 NA
ATOM      7  C   UNL     1      -3.418   3.180  25.590  0.00  0.00    +0.004 C 
ATOM      8  C   UNL     1      -2.103   3.820  26.093  0.00  0.00    +0.012 C 
ATOM     10  C   UNL     1      -4.319   4.279  25.003  0.00  0.00    +0.019 C 
ATOM     14  C   UNL     1      -1.452   4.703  25.013  0.00  0.00    +0.085 C 
ATOM     15  C   UNL     1      -3.594   5.139  23.970  0.00  0.00    +0.081 C 
ATOM     29  H   UNL     1      -1.912   6.284  23.807  0.00  0.00    +0.122 HD
ENDROOT
BRANCH   7  13
ATOM     13  C   UNL     1      -3.213   2.045  24.579  0.00  0.00    +0.099 C 
BRANCH  13  17
ATOM      2  O   UNL     1      -5.222   0.908  25.308  0.00  0.00    -0.276 OA
ATOM      4  N   UNL     1      -3.382  -0.344  24.653  0.00  0.00    -0.312 N 
ATOM     17  C   UNL     1      -4.069   0.838  24.894  0.00  0.00    +0.214 C 
ATOM     28  H   UNL     1      -2.420  -0.315  24.326  0.00  0.00    +0.149 HD
BRANCH   4   9
ATOM      9  C   UNL     1      -3.967  -1.635  24.871  0.00  0.00    +0.073 C 
ATOM     11  C   UNL     1      -4.321  -2.531  23.720  0.00  0.00    +0.024 C 
ATOM     12  C   UNL     1      -3.186  -2.893  24.631  0.00  0.00    +0.024 C 
ENDBRANCH   4   9
ENDBRANCH  13  17
ENDBRANCH   7  13
BRANCH   8  16
ATOM     16  C   UNL     1      -1.100   2.794  26.623  0.00  0.00    +0.064 C 
BRANCH  16  18
ATOM      3  O   UNL     1       0.757   1.684  23.746  0.00  0.00    -0.359 OA
ATOM      6  N   UNL     1       0.331   2.668  24.629  0.00  0.00    -0.083 NA
ATOM     18  C   UNL     1      -0.455   2.031  25.503  0.00  0.00    +0.084 A 
ATOM     19  C   UNL     1      -0.560   0.657  25.224  0.00  0.00    +0.071 A 
ATOM     20  C   UNL     1       0.220   0.491  24.110  0.00  0.00    +0.148 A 
BRANCH  20  21
ATOM     21  C   UNL     1       0.569  -0.666  23.278  0.00  0.00    +0.151 C 
BRANCH  21   1
ATOM      1  S   UNL     1       1.713  -0.254  21.913  0.00  0.00    -0.117 S 
BRANCH   1  22
ATOM     22  C   UNL     1       3.282  -0.253  22.770  0.00  0.00    +0.008 A 
ATOM     23  C   UNL     1       4.095   0.880  22.735  0.00  0.00    +0.015 A 
ATOM     24  C   UNL     1       3.692  -1.386  23.472  0.00  0.00    +0.015 A 
ATOM     25  C   UNL     1       5.319   0.880  23.403  0.00  0.00    +0.001 A 
ATOM     26  C   UNL     1       4.917  -1.386  24.141  0.00  0.00    +0.001 A 
ATOM     27  C   UNL     1       5.730  -0.252  24.106  0.00  0.00    +0.000 A 
ENDBRANCH   1  22
ENDBRANCH  21   1
ENDBRANCH  20  21
ENDBRANCH  16  18
ENDBRANCH   8  16
TORSDOF 8
ENDMDL
MODEL 5
REMARK VINA RESULT:      -3.8      2.611      6.511
REMARK  Name = 26743096
REMARK  8 active torsions:
REMARK  status: ('A' for Active; 'I' for Inactive)
REMARK    1  A    between atoms: S_1  and  C_21
REMARK    2  A    between atoms: S_1  and  C_22
REMARK    3  A    between atoms: N_4  and  C_9
REMARK    4  A    between atoms: C_7  and  C_13
REMARK    5  A    between atoms: C_8  and  C_16
REMARK    6  A    between atoms: C_13  and  C_17
REMARK    7  A    between atoms: C_16  and  C_18
REMARK    8  A    between atoms: C_20  and  C_21
REMARK                            x       y       z     vdW  Elec       q    Type
REMARK                         _______ _______ _______ _____ _____    ______ ____
ROOT
ATOM      5  N   UNL     1      -1.632  -3.112  25.115  0.00  0.00    -0.316 NA
ATOM      7  C   UNL     1      -1.580  -0.173  24.859  0.00  0.00    +0.004 C 
ATOM      8  C   UNL     1      -2.877  -1.003  24.706  0.00  0.00    +0.012 C 
ATOM     10  C   UNL     1      -0.579  -0.962  25.720  0.00  0.00    +0.019 C 
ATOM     14  C   UNL     1      -2.582  -2.436  24.231  0.00  0.00    +0.085 C 
ATOM     15  C   UNL     1      -0.368  -2.387  25.212  0.00  0.00    +0.081 C 
ATOM     29  H   UNL     1      -1.457  -4.054  24.764  0.00  0.00    +0.122 HD
ENDROOT
BRANCH   7  13
ATOM     13  C   UNL     1      -0.944   0.243  23.527  0.00  0.00    +0.099 C 
BRANCH  13  17
ATOM      2  O   UNL     1       0.970   1.448  24.391  0.00  0.00    -0.276 OA
ATOM      4  N   UNL     1       1.303  -0.289  22.889  0.00  0.00    -0.312 N 
ATOM     17  C   UNL     1       0.529   0.557  23.671  0.00  0.00    +0.214 C 
ATOM     28  H   UNL     1       0.858  -0.993  22.306  0.00  0.00    +0.149 HD
BRANCH   4   9
ATOM      9  C   UNL     1       2.734  -0.204  22.843  0.00  0.00    +0.073 C 
ATOM     11  C   UNL     1       3.446   0.248  21.602  0.00  0.00    +0.024 C 
ATOM     12  C   UNL     1       3.433   1.124  22.819  0.00  0.00    +0.024 C 
ENDBRANCH   4   9
ENDBRANCH  13  17
ENDBRANCH   7  13
BRANCH   8  16
ATOM     16  C   UNL     1      -3.910  -0.337  23.795  0.00  0.00    +0.064 C 
BRANCH  16  18
ATOM      3  O   UNL     1      -5.742   2.018  25.810  0.00  0.00    -0.359 OA
ATOM      6  N   UNL     1      -5.392   0.724  25.442  0.00  0.00    -0.083 NA
ATOM     18  C   UNL     1      -4.514   0.873  24.446  0.00  0.00    +0.084 A 
ATOM     19  C   UNL     1      -4.273   2.225  24.144  0.00  0.00    +0.071 A 
ATOM     20  C   UNL     1      -5.069   2.902  25.030  0.00  0.00    +0.148 A 
BRANCH  20  21
ATOM     21  C   UNL     1      -5.322   4.325  25.285  0.00  0.00    +0.151 C 
BRANCH  21   1
ATOM      1  S   UNL     1      -4.263   5.021  26.603  0.00  0.00    -0.117 S 
BRANCH   1  22
ATOM     22  C   UNL     1      -2.637   4.595  25.997  0.00  0.00    +0.008 A 
ATOM     23  C   UNL     1      -2.020   3.418  26.422  0.00  0.00    +0.015 A 
ATOM     24  C   UNL     1      -1.985   5.439  25.099  0.00  0.00    +0.015 A 
ATOM     25  C   UNL     1      -0.751   3.086  25.948  0.00  0.00    +0.001 A 
ATOM     26  C   UNL     1      -0.715   5.107  24.625  0.00  0.00    +0.001 A 
ATOM     27  C   UNL     1      -0.099   3.930  25.051  0.00  0.00    +0.000 A 
ENDBRANCH   1  22
ENDBRANCH  21   1
ENDBRANCH  20  21
ENDBRANCH  16  18
ENDBRANCH   8  16
TORSDOF 8
ENDMDL
MODEL 6
REMARK VINA RESULT:      -3.7      2.355      6.370
REMARK  Name = 26743096
REMARK  8 active torsions:
REMARK  status: ('A' for Active; 'I' for Inactive)
REMARK    1  A    between atoms: S_1  and  C_21
REMARK    2  A    between atoms: S_1  and  C_22
REMARK    3  A    between atoms: N_4  and  C_9
REMARK    4  A    between atoms: C_7  and  C_13
REMARK    5  A    between atoms: C_8  and  C_16
REMARK    6  A    between atoms: C_13  and  C_17
REMARK    7  A    between atoms: C_16  and  C_18
REMARK    8  A    between atoms: C_20  and  C_21
REMARK                            x       y       z     vdW  Elec       q    Type
REMARK                         _______ _______ _______ _____ _____    ______ ____
ROOT
ATOM      5  N   UNL     1      -1.526   4.528  25.729  0.00  0.00    -0.316 NA
ATOM      7  C   UNL     1      -0.405   2.322  24.122  0.00  0.00    +0.004 C 
ATOM      8  C   UNL     1      -1.019   2.106  25.525  0.00  0.00    +0.012 C 
ATOM     10  C   UNL     1      -1.005   3.595  23.502  0.00  0.00    +0.019 C 
ATOM     14  C   UNL     1      -0.919   3.374  26.391  0.00  0.00    +0.085 C 
ATOM     15  C   UNL     1      -0.906   4.801  24.434  0.00  0.00    +0.081 C 
ATOM     29  H   UNL     1      -1.433   5.348  26.329  0.00  0.00    +0.122 HD
ENDROOT
BRANCH   7  13
ATOM     13  C   UNL     1       1.127   2.382  24.114  0.00  0.00    +0.099 C 
BRANCH  13  17
ATOM      2  O   UNL     1       1.090   0.246  22.975  0.00  0.00    -0.276 OA
ATOM      4  N   UNL     1       3.128   1.269  23.406  0.00  0.00    -0.312 N 
ATOM     17  C   UNL     1       1.743   1.178  23.436  0.00  0.00    +0.214 C 
ATOM     28  H   UNL     1       3.594   2.068  23.826  0.00  0.00    +0.149 HD
BRANCH   4   9
ATOM      9  C   UNL     1       3.956   0.256  22.818  0.00  0.00    +0.073 C 
ATOM     11  C   UNL     1       5.393   0.098  23.219  0.00  0.00    +0.024 C 
ATOM     12  C   UNL     1       4.388  -0.947  23.603  0.00  0.00    +0.024 C 
ENDBRANCH   4   9
ENDBRANCH  13  17
ENDBRANCH   7  13
BRANCH   8  16
ATOM     16  C   UNL     1      -0.424   0.904  26.261  0.00  0.00    +0.064 C 
BRANCH  16  18
ATOM      3  O   UNL     1      -1.091  -2.366  24.911  0.00  0.00    -0.359 OA
ATOM      6  N   UNL     1      -0.234  -1.326  25.246  0.00  0.00    -0.083 NA
ATOM     18  C   UNL     1      -1.021  -0.385  25.776  0.00  0.00    +0.084 A 
ATOM     19  C   UNL     1      -2.372  -0.772  25.802  0.00  0.00    +0.071 A 
ATOM     20  C   UNL     1      -2.362  -2.025  25.248  0.00  0.00    +0.148 A 
BRANCH  20  21
ATOM     21  C   UNL     1      -3.404  -3.018  24.961  0.00  0.00    +0.151 C 
BRANCH  21   1
ATOM      1  S   UNL     1      -4.612  -2.455  23.709  0.00  0.00    -0.117 S 
BRANCH   1  22
ATOM     22  C   UNL     1      -4.481  -0.681  23.881  0.00  0.00    +0.008 A 
ATOM     23  C   UNL     1      -3.612   0.037  23.059  0.00  0.00    +0.015 A 
ATOM     24  C   UNL     1      -5.247  -0.015  24.838  0.00  0.00    +0.015 A 
ATOM     25  C   UNL     1      -3.510   1.422  23.194  0.00  0.00    +0.001 A 
ATOM     26  C   UNL     1      -5.144   1.370  24.972  0.00  0.00    +0.001 A 
ATOM     27  C   UNL     1      -4.275   2.088  24.149  0.00  0.00    +0.000 A 
ENDBRANCH   1  22
ENDBRANCH  21   1
ENDBRANCH  20  21
ENDBRANCH  16  18
ENDBRANCH   8  16
TORSDOF 8
ENDMDL
MODEL 7
REMARK VINA RESULT:      -3.0     16.499     19.774
REMARK  Name = 26743096
REMARK  8 active torsions:
REMARK  status: ('A' for Active; 'I' for Inactive)
REMARK    1  A    between atoms: S_1  and  C_21
REMARK    2  A    between atoms: S_1  and  C_22
REMARK    3  A    between atoms: N_4  and  C_9
REMARK    4  A    between atoms: C_7  and  C_13
REMARK    5  A    between atoms: C_8  and  C_16
REMARK    6  A    between atoms: C_13  and  C_17
REMARK    7  A    between atoms: C_16  and  C_18
REMARK    8  A    between atoms: C_20  and  C_21
REMARK                            x       y       z     vdW  Elec       q    Type
REMARK                         _______ _______ _______ _____ _____    ______ ____
ROOT
ATOM      5  N   UNL     1      15.826  -8.549  25.936  0.00  0.00    -0.316 NA
ATOM      7  C   UNL     1      17.235  -6.101  26.791  0.00  0.00    +0.004 C 
ATOM      8  C   UNL     1      16.815  -7.213  27.781  0.00  0.00    +0.012 C 
ATOM     10  C   UNL     1      17.379  -6.709  25.386  0.00  0.00    +0.019 C 
ATOM     14  C   UNL     1      15.594  -7.997  27.271  0.00  0.00    +0.085 C 
ATOM     15  C   UNL     1      16.146  -7.505  24.965  0.00  0.00    +0.081 C 
ATOM     29  H   UNL     1      14.994  -9.053  25.631  0.00  0.00    +0.122 HD
ENDROOT
BRANCH   7  13
ATOM     13  C   UNL     1      16.288  -4.895  26.769  0.00  0.00    +0.099 C 
BRANCH  13  17
ATOM      2  O   UNL     1      17.405  -2.748  26.714  0.00  0.00    -0.276 OA
ATOM      4  N   UNL     1      16.855  -3.794  24.717  0.00  0.00    -0.312 N 
ATOM     17  C   UNL     1      16.913  -3.690  26.100  0.00  0.00    +0.214 C 
ATOM     28  H   UNL     1      16.413  -4.602  24.285  0.00  0.00    +0.149 HD
BRANCH   4   9
ATOM      9  C   UNL     1      17.378  -2.783  23.844  0.00  0.00    +0.073 C 
ATOM     11  C   UNL     1      17.324  -2.941  22.353  0.00  0.00    +0.024 C 
ATOM     12  C   UNL     1      16.468  -1.912  23.030  0.00  0.00    +0.024 C 
ENDBRANCH   4   9
ENDBRANCH  13  17
ENDBRANCH   7  13
BRANCH   8  16
ATOM     16  C   UNL     1      16.566  -6.691  29.198  0.00  0.00    +0.064 C 
BRANCH  16  18
ATOM      3  O   UNL     1      15.030  -9.299  31.148  0.00  0.00    -0.359 OA
ATOM      6  N   UNL     1      16.127  -8.704  30.537  0.00  0.00    -0.083 NA
ATOM     18  C   UNL     1      15.645  -7.600  29.960  0.00  0.00    +0.084 A 
ATOM     19  C   UNL     1      14.264  -7.446  30.171  0.00  0.00    +0.071 A 
ATOM     20  C   UNL     1      13.927  -8.541  30.924  0.00  0.00    +0.148 A 
BRANCH  20  21
ATOM     21  C   UNL     1      12.669  -9.026  31.503  0.00  0.00    +0.151 C 
BRANCH  21   1
ATOM      1  S   UNL     1      11.446  -7.697  31.790  0.00  0.00    -0.117 S 
BRANCH   1  22
ATOM     22  C   UNL     1       9.944  -8.649  31.976  0.00  0.00    +0.008 A 
ATOM     23  C   UNL     1      10.012 -10.029  32.166  0.00  0.00    +0.015 A 
ATOM     24  C   UNL     1       8.705  -8.010  31.932  0.00  0.00    +0.015 A 
ATOM     25  C   UNL     1       8.840 -10.771  32.311  0.00  0.00    +0.001 A 
ATOM     26  C   UNL     1       7.533  -8.752  32.077  0.00  0.00    +0.001 A 
ATOM     27  C   UNL     1       7.601 -10.133  32.267  0.00  0.00    +0.000 A 
ENDBRANCH   1  22
ENDBRANCH  21   1
ENDBRANCH  20  21
ENDBRANCH  16  18
ENDBRANCH   8  16
TORSDOF 8
ENDMDL
MODEL 8
REMARK VINA RESULT:      -2.0      2.674      7.176
REMARK  Name = 26743096
REMARK  8 active torsions:
REMARK  status: ('A' for Active; 'I' for Inactive)
REMARK    1  A    between atoms: S_1  and  C_21
REMARK    2  A    between atoms: S_1  and  C_22
REMARK    3  A    between atoms: N_4  and  C_9
REMARK    4  A    between atoms: C_7  and  C_13
REMARK    5  A    between atoms: C_8  and  C_16
REMARK    6  A    between atoms: C_13  and  C_17
REMARK    7  A    between atoms: C_16  and  C_18
REMARK    8  A    between atoms: C_20  and  C_21
REMARK                            x       y       z     vdW  Elec       q    Type
REMARK                         _______ _______ _______ _____ _____    ______ ____
ROOT
ATOM      5  N   UNL     1       0.224   2.007  26.003  0.00  0.00    -0.316 NA
ATOM      7  C   UNL     1      -0.025   0.661  23.389  0.00  0.00    +0.004 C 
ATOM      8  C   UNL     1      -1.141   0.622  24.459  0.00  0.00    +0.012 C 
ATOM     10  C   UNL     1       0.842   1.911  23.614  0.00  0.00    +0.019 C 
ATOM     14  C   UNL     1      -0.574   0.787  25.880  0.00  0.00    +0.085 C 
ATOM     15  C   UNL     1       1.336   2.029  25.055  0.00  0.00    +0.081 C 
ATOM     29  H   UNL     1       0.588   2.077  26.953  0.00  0.00    +0.122 HD
ENDROOT
BRANCH   7  13
ATOM     13  C   UNL     1       0.843  -0.603  23.346  0.00  0.00    +0.099 C 
BRANCH  13  17
ATOM      2  O   UNL     1       2.258  -0.058  21.459  0.00  0.00    -0.276 OA
ATOM      4  N   UNL     1       3.234  -0.546  23.508  0.00  0.00    -0.312 N 
ATOM     17  C   UNL     1       2.162  -0.367  22.643  0.00  0.00    +0.214 C 
ATOM     28  H   UNL     1       3.068  -0.819  24.473  0.00  0.00    +0.149 HD
BRANCH   4   9
ATOM      9  C   UNL     1       4.596  -0.381  23.092  0.00  0.00    +0.073 C 
ATOM     11  C   UNL     1       5.436   0.748  23.612  0.00  0.00    +0.024 C 
ATOM     12  C   UNL     1       5.734  -0.661  24.029  0.00  0.00    +0.024 C 
ENDBRANCH   4   9
ENDBRANCH  13  17
ENDBRANCH   7  13
BRANCH   8  16
ATOM     16  C   UNL     1      -2.013  -0.632  24.371  0.00  0.00    +0.064 C 
BRANCH  16  18
ATOM      3  O   UNL     1      -5.612  -0.573  24.296  0.00  0.00    -0.359 OA
ATOM      6  N   UNL     1      -4.388  -1.208  24.121  0.00  0.00    -0.083 NA
ATOM     18  C   UNL     1      -3.472  -0.290  24.441  0.00  0.00    +0.084 A 
ATOM     19  C   UNL     1      -4.053   0.933  24.823  0.00  0.00    +0.071 A 
ATOM     20  C   UNL     1      -5.399   0.701  24.714  0.00  0.00    +0.148 A 
BRANCH  20  21
ATOM     21  C   UNL     1      -6.593   1.522  24.950  0.00  0.00    +0.151 C 
BRANCH  21   1
ATOM      1  S   UNL     1      -6.313   2.875  26.148  0.00  0.00    -0.117 S 
BRANCH   1  22
ATOM     22  C   UNL     1      -4.730   3.497  25.598  0.00  0.00    +0.008 A 
ATOM     23  C   UNL     1      -3.689   3.660  26.512  0.00  0.00    +0.015 A 
ATOM     24  C   UNL     1      -4.537   3.819  24.255  0.00  0.00    +0.015 A 
ATOM     25  C   UNL     1      -2.454   4.145  26.083  0.00  0.00    +0.001 A 
ATOM     26  C   UNL     1      -3.302   4.305  23.826  0.00  0.00    +0.001 A 
ATOM     27  C   UNL     1      -2.260   4.468  24.741  0.00  0.00    +0.000 A 
ENDBRANCH   1  22
ENDBRANCH  21   1
ENDBRANCH  20  21
ENDBRANCH  16  18
ENDBRANCH   8  16
TORSDOF 8
ENDMDL
MODEL 9
REMARK VINA RESULT:      -1.9     18.199     20.048
REMARK  Name = 26743096
REMARK  8 active torsions:
REMARK  status: ('A' for Active; 'I' for Inactive)
REMARK    1  A    between atoms: S_1  and  C_21
REMARK    2  A    between atoms: S_1  and  C_22
REMARK    3  A    between atoms: N_4  and  C_9
REMARK    4  A    between atoms: C_7  and  C_13
REMARK    5  A    between atoms: C_8  and  C_16
REMARK    6  A    between atoms: C_13  and  C_17
REMARK    7  A    between atoms: C_16  and  C_18
REMARK    8  A    between atoms: C_20  and  C_21
REMARK                            x       y       z     vdW  Elec       q    Type
REMARK                         _______ _______ _______ _____ _____    ______ ____
ROOT
ATOM      5  N   UNL     1      15.146  -8.594  25.612  0.00  0.00    -0.316 NA
ATOM      7  C   UNL     1      17.348  -7.058  26.834  0.00  0.00    +0.004 C 
ATOM      8  C   UNL     1      17.013  -8.510  27.247  0.00  0.00    +0.012 C 
ATOM     10  C   UNL     1      16.845  -6.814  25.402  0.00  0.00    +0.019 C 
ATOM     14  C   UNL     1      15.531  -8.843  27.002  0.00  0.00    +0.085 C 
ATOM     15  C   UNL     1      15.378  -7.205  25.224  0.00  0.00    +0.081 C 
ATOM     29  H   UNL     1      14.158  -8.819  25.492  0.00  0.00    +0.122 HD
ENDROOT
BRANCH   7  13
ATOM     13  C   UNL     1      16.800  -5.994  27.793  0.00  0.00    +0.099 C 
BRANCH  13  17
ATOM      2  O   UNL     1      17.398  -3.670  28.115  0.00  0.00    -0.276 OA
ATOM      4  N   UNL     1      17.117  -4.484  25.960  0.00  0.00    -0.312 N 
ATOM     17  C   UNL     1      17.139  -4.589  27.344  0.00  0.00    +0.214 C 
ATOM     28  H   UNL     1      16.876  -5.292  25.392  0.00  0.00    +0.149 HD
BRANCH   4   9
ATOM      9  C   UNL     1      17.404  -3.257  25.275  0.00  0.00    +0.073 C 
ATOM     11  C   UNL     1      16.612  -2.836  24.072  0.00  0.00    +0.024 C 
ATOM     12  C   UNL     1      16.474  -2.083  25.361  0.00  0.00    +0.024 C 
ENDBRANCH   4   9
ENDBRANCH  13  17
ENDBRANCH   7  13
BRANCH   8  16
ATOM     16  C   UNL     1      17.403  -8.828  28.692  0.00  0.00    +0.064 C 
BRANCH  16  18
ATOM      3  O   UNL     1      14.833 -10.448  30.624  0.00  0.00    -0.359 OA
ATOM      6  N   UNL     1      16.012 -10.462  29.889  0.00  0.00    -0.083 NA
ATOM     18  C   UNL     1      16.202  -9.194  29.514  0.00  0.00    +0.084 A 
ATOM     19  C   UNL     1      15.184  -8.342  29.979  0.00  0.00    +0.071 A 
ATOM     20  C   UNL     1      14.350  -9.180  30.671  0.00  0.00    +0.148 A 
BRANCH  20  21
ATOM     21  C   UNL     1      13.100  -8.982  31.414  0.00  0.00    +0.151 C 
BRANCH  21   1
ATOM      1  S   UNL     1      12.131  -7.547  30.825  0.00  0.00    -0.117 S 
BRANCH   1  22
ATOM     22  C   UNL     1      13.216  -6.198  31.266  0.00  0.00    +0.008 A 
ATOM     23  C   UNL     1      13.117  -5.605  32.525  0.00  0.00    +0.015 A 
ATOM     24  C   UNL     1      14.162  -5.737  30.351  0.00  0.00    +0.015 A 
ATOM     25  C   UNL     1      13.964  -4.552  32.869  0.00  0.00    +0.001 A 
ATOM     26  C   UNL     1      15.009  -4.683  30.695  0.00  0.00    +0.001 A 
ATOM     27  C   UNL     1      14.909  -4.091  31.954  0.00  0.00    +0.000 A 
ENDBRANCH   1  22
ENDBRANCH  21   1
ENDBRANCH  20  21
ENDBRANCH  16  18
ENDBRANCH   8  16
TORSDOF 8
ENDMDL
MODEL 10
REMARK VINA RESULT:      -1.8      2.715      5.583
REMARK  Name = 26743096
REMARK  8 active torsions:
REMARK  status: ('A' for Active; 'I' for Inactive)
REMARK    1  A    between atoms: S_1  and  C_21
REMARK    2  A    between atoms: S_1  and  C_22
REMARK    3  A    between atoms: N_4  and  C_9
REMARK    4  A    between atoms: C_7  and  C_13
REMARK    5  A    between atoms: C_8  and  C_16
REMARK    6  A    between atoms: C_13  and  C_17
REMARK    7  A    between atoms: C_16  and  C_18
REMARK    8  A    between atoms: C_20  and  C_21
REMARK                            x       y       z     vdW  Elec       q    Type
REMARK                         _______ _______ _______ _____ _____    ______ ____
ROOT
ATOM      5  N   UNL     1      -4.627   3.647  24.770  0.00  0.00    -0.316 NA
ATOM      7  C   UNL     1      -1.989   4.038  26.034  0.00  0.00    +0.004 C 
ATOM      8  C   UNL     1      -2.211   4.158  24.508  0.00  0.00    +0.012 C 
ATOM     10  C   UNL     1      -3.319   4.312  26.757  0.00  0.00    +0.019 C 
ATOM     14  C   UNL     1      -3.406   3.310  24.038  0.00  0.00    +0.085 C 
ATOM     15  C   UNL     1      -4.466   3.463  26.210  0.00  0.00    +0.081 C 
ATOM     29  H   UNL     1      -5.392   3.061  24.437  0.00  0.00    +0.122 HD
ENDROOT
BRANCH   7  13
ATOM     13  C   UNL     1      -1.396   2.695  26.475  0.00  0.00    +0.099 C 
BRANCH  13  17
ATOM      2  O   UNL     1       0.913   3.361  26.179  0.00  0.00    -0.276 OA
ATOM      4  N   UNL     1       0.293   2.234  28.111  0.00  0.00    -0.312 N 
ATOM     17  C   UNL     1       0.059   2.816  26.872  0.00  0.00    +0.214 C 
ATOM     28  H   UNL     1      -0.467   1.786  28.615  0.00  0.00    +0.149 HD
BRANCH   4   9
ATOM      9  C   UNL     1       1.592   2.212  28.720  0.00  0.00    +0.073 C 
ATOM     11  C   UNL     1       2.075   3.359  29.558  0.00  0.00    +0.024 C 
ATOM     12  C   UNL     1       1.752   2.044  30.202  0.00  0.00    +0.024 C 
ENDBRANCH   4   9
ENDBRANCH  13  17
ENDBRANCH   7  13
BRANCH   8  16
ATOM     16  C   UNL     1      -0.961   3.823  23.692  0.00  0.00    +0.064 C 
BRANCH  16  18
ATOM      3  O   UNL     1      -1.201   0.352  22.764  0.00  0.00    -0.359 OA
ATOM      6  N   UNL     1      -1.615   1.677  22.690  0.00  0.00    -0.083 NA
ATOM     18  C   UNL     1      -0.803   2.340  23.518  0.00  0.00    +0.084 A 
ATOM     19  C   UNL     1       0.136   1.495  24.136  0.00  0.00    +0.071 A 
ATOM     20  C   UNL     1      -0.157   0.257  23.627  0.00  0.00    +0.148 A 
BRANCH  20  21
ATOM     21  C   UNL     1       0.409  -1.082  23.826  0.00  0.00    +0.151 C 
BRANCH  21   1
ATOM      1  S   UNL     1      -0.390  -2.009  25.184  0.00  0.00    -0.117 S 
BRANCH   1  22
ATOM     22  C   UNL     1      -2.110  -1.607  24.908  0.00  0.00    +0.008 A 
ATOM     23  C   UNL     1      -2.670  -0.485  25.518  0.00  0.00    +0.015 A 
ATOM     24  C   UNL     1      -2.890  -2.416  24.082  0.00  0.00    +0.015 A 
ATOM     25  C   UNL     1      -4.012  -0.171  25.302  0.00  0.00    +0.001 A 
ATOM     26  C   UNL     1      -4.232  -2.102  23.866  0.00  0.00    +0.001 A 
ATOM     27  C   UNL     1      -4.793  -0.979  24.477  0.00  0.00    +0.000 A 
ENDBRANCH   1  22
ENDBRANCH  21   1
ENDBRANCH  20  21
ENDBRANCH  16  18
ENDBRANCH   8  16
TORSDOF 8
ENDMDL
