MODEL 1
REMARK VINA RESULT:      -6.3      0.000      0.000
REMARK  Name = 75367706
REMARK  3 active torsions:
REMARK  status: ('A' for Active; 'I' for Inactive)
REMARK    1  A    between atoms: O_3  and  C_8
REMARK    2  A    between atoms: O_3  and  C_15
REMARK    3  A    between atoms: C_13  and  C_14
REMARK                            x       y       z     vdW  Elec       q    Type
REMARK                         _______ _______ _______ _____ _____    ______ ____
ROOT
ATOM      2  O   UNL     1      -1.983   5.073  25.014  0.00  0.00    -0.375 OA
ATOM      4  O   UNL     1      -5.829   1.887  24.568  0.00  0.00    -0.270 OA
ATOM      5  N   UNL     1      -3.601   2.583  24.350  0.00  0.00    -0.292 N 
ATOM      8  C   UNL     1      -1.523   2.701  25.680  0.00  0.00    +0.218 C 
ATOM      9  C   UNL     1      -2.164   2.267  24.363  0.00  0.00    +0.155 C 
ATOM     10  C   UNL     1      -3.956   3.992  24.157  0.00  0.00    +0.136 C 
ATOM     11  C   UNL     1      -1.131   4.181  25.721  0.00  0.00    +0.206 C 
ATOM     12  C   UNL     1      -3.376   4.893  25.242  0.00  0.00    +0.179 C 
ATOM     13  C   UNL     1      -4.622   1.644  24.543  0.00  0.00    +0.247 C 
ENDROOT
BRANCH  13  14
ATOM      1  F   UNL     1      -3.185  -3.713  25.285  0.00  0.00    -0.205 F 
ATOM     14  C   UNL     1      -4.246   0.240  24.738  0.00  0.00    +0.037 A 
ATOM     16  C   UNL     1      -3.827  -0.203  25.992  0.00  0.00    +0.016 A 
ATOM     17  C   UNL     1      -4.305  -0.654  23.667  0.00  0.00    +0.016 A 
ATOM     18  C   UNL     1      -3.468  -1.538  26.178  0.00  0.00    +0.039 A 
ATOM     19  C   UNL     1      -3.946  -1.989  23.852  0.00  0.00    +0.039 A 
ATOM     21  C   UNL     1      -3.529  -2.431  25.108  0.00  0.00    +0.123 A 
ENDBRANCH  13  14
BRANCH   8   3
ATOM      3  O   UNL     1      -0.359   1.908  25.908  0.00  0.00    -0.468 OA
BRANCH   3  15
ATOM      6  N   UNL     1      -0.544  -0.143  24.827  0.00  0.00    -0.219 NA
ATOM      7  N   UNL     1       1.359   0.709  22.950  0.00  0.00    -0.256 NA
ATOM     15  C   UNL     1       0.023   1.079  24.889  0.00  0.00    +0.234 A 
ATOM     20  C   UNL     1       0.958   1.497  23.967  0.00  0.00    +0.177 A 
ATOM     22  C   UNL     1      -0.142  -0.931  23.809  0.00  0.00    +0.134 A 
ATOM     23  C   UNL     1       0.792  -0.512  22.888  0.00  0.00    +0.130 A 
ENDBRANCH   3  15
ENDBRANCH   8   3
TORSDOF 3
ENDMDL
MODEL 2
REMARK VINA RESULT:      -6.0      2.732      4.752
REMARK  Name = 75367706
REMARK  3 active torsions:
REMARK  status: ('A' for Active; 'I' for Inactive)
REMARK    1  A    between atoms: O_3  and  C_8
REMARK    2  A    between atoms: O_3  and  C_15
REMARK    3  A    between atoms: C_13  and  C_14
REMARK                            x       y       z     vdW  Elec       q    Type
REMARK                         _______ _______ _______ _____ _____    ______ ____
ROOT
ATOM      2  O   UNL     1      -0.740  -2.751  25.242  0.00  0.00    -0.375 OA
ATOM      4  O   UNL     1      -5.172  -1.121  23.557  0.00  0.00    -0.270 OA
ATOM      5  N   UNL     1      -3.381  -1.252  25.065  0.00  0.00    -0.292 N 
ATOM      8  C   UNL     1      -1.136  -0.283  25.415  0.00  0.00    +0.218 C 
ATOM      9  C   UNL     1      -2.492  -0.603  26.041  0.00  0.00    +0.155 C 
ATOM     10  C   UNL     1      -3.097  -2.656  24.758  0.00  0.00    +0.136 C 
ATOM     11  C   UNL     1      -0.162  -1.464  25.411  0.00  0.00    +0.206 C 
ATOM     12  C   UNL     1      -1.695  -2.857  24.191  0.00  0.00    +0.179 C 
ATOM     13  C   UNL     1      -4.435  -0.611  24.400  0.00  0.00    +0.247 C 
ENDROOT
BRANCH  13  14
ATOM      1  F   UNL     1      -5.451   4.757  25.614  0.00  0.00    -0.205 F 
ATOM     14  C   UNL     1      -4.701   0.796  24.719  0.00  0.00    +0.037 A 
ATOM     16  C   UNL     1      -5.617   1.125  25.719  0.00  0.00    +0.016 A 
ATOM     17  C   UNL     1      -4.039   1.808  24.021  0.00  0.00    +0.016 A 
ATOM     18  C   UNL     1      -5.871   2.462  26.021  0.00  0.00    +0.039 A 
ATOM     19  C   UNL     1      -4.293   3.145  24.324  0.00  0.00    +0.039 A 
ATOM     21  C   UNL     1      -5.208   3.472  25.324  0.00  0.00    +0.123 A 
ENDBRANCH  13  14
BRANCH   8   3
ATOM      3  O   UNL     1      -0.545   0.802  26.128  0.00  0.00    -0.468 OA
BRANCH   3  15
ATOM      6  N   UNL     1      -1.349   2.983  26.205  0.00  0.00    -0.219 NA
ATOM      7  N   UNL     1      -0.111   3.494  23.740  0.00  0.00    -0.256 NA
ATOM     15  C   UNL     1      -0.644   2.038  25.551  0.00  0.00    +0.234 A 
ATOM     20  C   UNL     1      -0.037   2.289  24.340  0.00  0.00    +0.177 A 
ATOM     22  C   UNL     1      -1.424   4.188  25.605  0.00  0.00    +0.134 A 
ATOM     23  C   UNL     1      -0.815   4.438  24.395  0.00  0.00    +0.130 A 
ENDBRANCH   3  15
ENDBRANCH   8   3
TORSDOF 3
ENDMDL
MODEL 3
REMARK VINA RESULT:      -4.6      2.749      6.220
REMARK  Name = 75367706
REMARK  3 active torsions:
REMARK  status: ('A' for Active; 'I' for Inactive)
REMARK    1  A    between atoms: O_3  and  C_8
REMARK    2  A    between atoms: O_3  and  C_15
REMARK    3  A    between atoms: C_13  and  C_14
REMARK                            x       y       z     vdW  Elec       q    Type
REMARK                         _______ _______ _______ _____ _____    ______ ____
ROOT
ATOM      2  O   UNL     1      -4.132  -2.984  23.917  0.00  0.00    -0.375 OA
ATOM      4  O   UNL     1       0.066  -1.103  25.913  0.00  0.00    -0.270 OA
ATOM      5  N   UNL     1      -1.711  -1.202  24.386  0.00  0.00    -0.292 N 
ATOM      8  C   UNL     1      -4.068  -0.493  24.188  0.00  0.00    +0.218 C 
ATOM      9  C   UNL     1      -2.690  -0.514  23.530  0.00  0.00    +0.155 C 
ATOM     10  C   UNL     1      -1.802  -2.664  24.436  0.00  0.00    +0.136 C 
ATOM     11  C   UNL     1      -4.877  -1.775  23.972  0.00  0.00    +0.206 C 
ATOM     12  C   UNL     1      -3.158  -3.146  24.943  0.00  0.00    +0.179 C 
ATOM     13  C   UNL     1      -0.743  -0.554  25.165  0.00  0.00    +0.247 C 
ENDROOT
BRANCH  13  14
ATOM      1  F   UNL     1      -0.463   5.030  24.931  0.00  0.00    -0.205 F 
ATOM     14  C   UNL     1      -0.670   0.910  25.103  0.00  0.00    +0.037 A 
ATOM     16  C   UNL     1      -0.205   1.538  23.947  0.00  0.00    +0.016 A 
ATOM     17  C   UNL     1      -1.064   1.676  26.202  0.00  0.00    +0.016 A 
ATOM     18  C   UNL     1      -0.135   2.929  23.889  0.00  0.00    +0.039 A 
ATOM     19  C   UNL     1      -0.993   3.067  26.143  0.00  0.00    +0.039 A 
ATOM     21  C   UNL     1      -0.530   3.694  24.987  0.00  0.00    +0.123 A 
ENDBRANCH  13  14
BRANCH   8   3
ATOM      3  O   UNL     1      -4.807   0.613  23.671  0.00  0.00    -0.468 OA
BRANCH   3  15
ATOM      6  N   UNL     1      -3.998   2.772  23.974  0.00  0.00    -0.219 NA
ATOM      7  N   UNL     1      -5.531   2.988  26.312  0.00  0.00    -0.256 NA
ATOM     15  C   UNL     1      -4.779   1.764  24.410  0.00  0.00    +0.234 A 
ATOM     20  C   UNL     1      -5.532   1.870  25.559  0.00  0.00    +0.177 A 
ATOM     22  C   UNL     1      -3.996   3.889  24.727  0.00  0.00    +0.134 A 
ATOM     23  C   UNL     1      -4.750   3.995  25.876  0.00  0.00    +0.130 A 
ENDBRANCH   3  15
ENDBRANCH   8   3
TORSDOF 3
ENDMDL
MODEL 4
REMARK VINA RESULT:      -4.6      2.749      6.152
REMARK  Name = 75367706
REMARK  3 active torsions:
REMARK  status: ('A' for Active; 'I' for Inactive)
REMARK    1  A    between atoms: O_3  and  C_8
REMARK    2  A    between atoms: O_3  and  C_15
REMARK    3  A    between atoms: C_13  and  C_14
REMARK                            x       y       z     vdW  Elec       q    Type
REMARK                         _______ _______ _______ _____ _____    ______ ____
ROOT
ATOM      2  O   UNL     1      -4.121  -2.984  23.915  0.00  0.00    -0.375 OA
ATOM      4  O   UNL     1       0.070  -1.095  25.919  0.00  0.00    -0.270 OA
ATOM      5  N   UNL     1      -1.704  -1.197  24.388  0.00  0.00    -0.292 N 
ATOM      8  C   UNL     1      -4.063  -0.494  24.186  0.00  0.00    +0.218 C 
ATOM      9  C   UNL     1      -2.683  -0.512  23.530  0.00  0.00    +0.155 C 
ATOM     10  C   UNL     1      -1.793  -2.660  24.438  0.00  0.00    +0.136 C 
ATOM     11  C   UNL     1      -4.869  -1.777  23.968  0.00  0.00    +0.206 C 
ATOM     12  C   UNL     1      -3.149  -3.144  24.942  0.00  0.00    +0.179 C 
ATOM     13  C   UNL     1      -0.739  -0.548  25.169  0.00  0.00    +0.247 C 
ENDROOT
BRANCH  13  14
ATOM      1  F   UNL     1      -0.469   5.037  24.933  0.00  0.00    -0.205 F 
ATOM     14  C   UNL     1      -0.668   0.916  25.108  0.00  0.00    +0.037 A 
ATOM     16  C   UNL     1      -1.065   1.681  26.205  0.00  0.00    +0.016 A 
ATOM     17  C   UNL     1      -0.205   1.545  23.951  0.00  0.00    +0.016 A 
ATOM     18  C   UNL     1      -0.998   3.072  26.146  0.00  0.00    +0.039 A 
ATOM     19  C   UNL     1      -0.138   2.937  23.892  0.00  0.00    +0.039 A 
ATOM     21  C   UNL     1      -0.534   3.700  24.990  0.00  0.00    +0.123 A 
ENDBRANCH  13  14
BRANCH   8   3
ATOM      3  O   UNL     1      -4.802   0.611  23.668  0.00  0.00    -0.468 OA
BRANCH   3  15
ATOM      6  N   UNL     1      -3.998   2.771  23.972  0.00  0.00    -0.219 NA
ATOM      7  N   UNL     1      -5.537   2.984  26.308  0.00  0.00    -0.256 NA
ATOM     15  C   UNL     1      -4.778   1.762  24.406  0.00  0.00    +0.234 A 
ATOM     20  C   UNL     1      -5.534   1.866  25.554  0.00  0.00    +0.177 A 
ATOM     22  C   UNL     1      -4.001   3.889  24.726  0.00  0.00    +0.134 A 
ATOM     23  C   UNL     1      -4.757   3.993  25.873  0.00  0.00    +0.130 A 
ENDBRANCH   3  15
ENDBRANCH   8   3
TORSDOF 3
ENDMDL
MODEL 5
REMARK VINA RESULT:      -4.1      2.788      4.830
REMARK  Name = 75367706
REMARK  3 active torsions:
REMARK  status: ('A' for Active; 'I' for Inactive)
REMARK    1  A    between atoms: O_3  and  C_8
REMARK    2  A    between atoms: O_3  and  C_15
REMARK    3  A    between atoms: C_13  and  C_14
REMARK                            x       y       z     vdW  Elec       q    Type
REMARK                         _______ _______ _______ _____ _____    ______ ____
ROOT
ATOM      2  O   UNL     1      -2.892  -2.691  24.640  0.00  0.00    -0.375 OA
ATOM      4  O   UNL     1      -4.970   1.849  24.192  0.00  0.00    -0.270 OA
ATOM      5  N   UNL     1      -3.450   0.274  25.030  0.00  0.00    -0.292 N 
ATOM      8  C   UNL     1      -1.295  -0.772  24.429  0.00  0.00    +0.218 C 
ATOM      9  C   UNL     1      -2.100  -0.058  25.512  0.00  0.00    +0.155 C 
ATOM     10  C   UNL     1      -4.400  -0.838  24.938  0.00  0.00    +0.136 C 
ATOM     11  C   UNL     1      -1.564  -2.277  24.348  0.00  0.00    +0.206 C 
ATOM     12  C   UNL     1      -3.918  -1.941  24.000  0.00  0.00    +0.179 C 
ATOM     13  C   UNL     1      -3.859   1.552  24.629  0.00  0.00    +0.247 C 
ENDROOT
BRANCH  13  14
ATOM      1  F   UNL     1      -0.170   5.745  24.994  0.00  0.00    -0.205 F 
ATOM     14  C   UNL     1      -2.892   2.651  24.725  0.00  0.00    +0.037 A 
ATOM     16  C   UNL     1      -3.152   3.739  25.558  0.00  0.00    +0.016 A 
ATOM     17  C   UNL     1      -1.711   2.609  23.982  0.00  0.00    +0.016 A 
ATOM     18  C   UNL     1      -2.234   4.784  25.649  0.00  0.00    +0.039 A 
ATOM     19  C   UNL     1      -0.792   3.654  24.073  0.00  0.00    +0.039 A 
ATOM     21  C   UNL     1      -1.053   4.742  24.907  0.00  0.00    +0.123 A 
ENDBRANCH  13  14
BRANCH   8   3
ATOM      3  O   UNL     1       0.095  -0.563  24.677  0.00  0.00    -0.468 OA
BRANCH   3  15
ATOM      6  N   UNL     1       2.117   0.149  23.775  0.00  0.00    -0.219 NA
ATOM      7  N   UNL     1       1.182  -0.531  21.219  0.00  0.00    -0.256 NA
ATOM     15  C   UNL     1       0.888  -0.371  23.580  0.00  0.00    +0.234 A 
ATOM     20  C   UNL     1       0.430  -0.705  22.324  0.00  0.00    +0.177 A 
ATOM     22  C   UNL     1       2.869   0.323  22.670  0.00  0.00    +0.134 A 
ATOM     23  C   UNL     1       2.410  -0.012  21.415  0.00  0.00    +0.130 A 
ENDBRANCH   3  15
ENDBRANCH   8   3
TORSDOF 3
ENDMDL
MODEL 6
REMARK VINA RESULT:      -3.4      1.448      2.193
REMARK  Name = 75367706
REMARK  3 active torsions:
REMARK  status: ('A' for Active; 'I' for Inactive)
REMARK    1  A    between atoms: O_3  and  C_8
REMARK    2  A    between atoms: O_3  and  C_15
REMARK    3  A    between atoms: C_13  and  C_14
REMARK                            x       y       z     vdW  Elec       q    Type
REMARK                         _______ _______ _______ _____ _____    ______ ____
ROOT
ATOM      2  O   UNL     1      -0.261   3.820  24.238  0.00  0.00    -0.375 OA
ATOM      4  O   UNL     1      -4.837   1.902  24.963  0.00  0.00    -0.270 OA
ATOM      5  N   UNL     1      -2.664   1.960  24.084  0.00  0.00    -0.292 N 
ATOM      8  C   UNL     1      -0.354   1.363  24.726  0.00  0.00    +0.218 C 
ATOM      9  C   UNL     1      -1.445   1.252  23.662  0.00  0.00    +0.155 C 
ATOM     10  C   UNL     1      -2.625   3.423  24.013  0.00  0.00    +0.136 C 
ATOM     11  C   UNL     1       0.453   2.662  24.652  0.00  0.00    +0.206 C 
ATOM     12  C   UNL     1      -1.518   4.020  24.876  0.00  0.00    +0.179 C 
ATOM     13  C   UNL     1      -3.817   1.333  24.573  0.00  0.00    +0.247 C 
ENDROOT
BRANCH  13  14
ATOM      1  F   UNL     1      -3.884  -4.257  24.830  0.00  0.00    -0.205 F 
ATOM     14  C   UNL     1      -3.835  -0.132  24.640  0.00  0.00    +0.037 A 
ATOM     16  C   UNL     1      -4.367  -0.873  23.585  0.00  0.00    +0.016 A 
ATOM     17  C   UNL     1      -3.320  -0.786  25.761  0.00  0.00    +0.016 A 
ATOM     18  C   UNL     1      -4.384  -2.266  23.648  0.00  0.00    +0.039 A 
ATOM     19  C   UNL     1      -3.337  -2.179  25.825  0.00  0.00    +0.039 A 
ATOM     21  C   UNL     1      -3.868  -2.919  24.768  0.00  0.00    +0.123 A 
ENDBRANCH  13  14
BRANCH   8   3
ATOM      3  O   UNL     1       0.536   0.257  24.588  0.00  0.00    -0.468 OA
BRANCH   3  15
ATOM      6  N   UNL     1       2.559   1.025  23.737  0.00  0.00    -0.219 NA
ATOM      7  N   UNL     1       2.014  -0.301  21.326  0.00  0.00    -0.256 NA
ATOM     15  C   UNL     1       1.427   0.316  23.553  0.00  0.00    +0.234 A 
ATOM     20  C   UNL     1       1.160  -0.335  22.368  0.00  0.00    +0.177 A 
ATOM     22  C   UNL     1       3.413   1.060  22.695  0.00  0.00    +0.134 A 
ATOM     23  C   UNL     1       3.144   0.408  21.511  0.00  0.00    +0.130 A 
ENDBRANCH   3  15
ENDBRANCH   8   3
TORSDOF 3
ENDMDL
MODEL 7
REMARK VINA RESULT:      -3.3      1.905      4.343
REMARK  Name = 75367706
REMARK  3 active torsions:
REMARK  status: ('A' for Active; 'I' for Inactive)
REMARK    1  A    between atoms: O_3  and  C_8
REMARK    2  A    between atoms: O_3  and  C_15
REMARK    3  A    between atoms: C_13  and  C_14
REMARK                            x       y       z     vdW  Elec       q    Type
REMARK                         _______ _______ _______ _____ _____    ______ ____
ROOT
ATOM      2  O   UNL     1      -0.588   5.376  24.878  0.00  0.00    -0.375 OA
ATOM      4  O   UNL     1       0.274   0.850  22.900  0.00  0.00    -0.270 OA
ATOM      5  N   UNL     1      -0.340   2.357  24.587  0.00  0.00    -0.292 N 
ATOM      8  C   UNL     1      -2.316   3.625  25.355  0.00  0.00    +0.218 C 
ATOM      9  C   UNL     1      -1.176   2.690  25.752  0.00  0.00    +0.155 C 
ATOM     10  C   UNL     1       0.570   3.406  24.119  0.00  0.00    +0.136 C 
ATOM     11  C   UNL     1      -1.916   5.102  25.304  0.00  0.00    +0.206 C 
ATOM     12  C   UNL     1      -0.167   4.678  23.711  0.00  0.00    +0.179 C 
ATOM     13  C   UNL     1      -0.390   1.141  23.895  0.00  0.00    +0.247 C 
ENDROOT
BRANCH  13  14
ATOM      1  F   UNL     1      -3.899  -2.810  25.738  0.00  0.00    -0.205 F 
ATOM     14  C   UNL     1      -1.310   0.105  24.378  0.00  0.00    +0.037 A 
ATOM     16  C   UNL     1      -2.636   0.094  23.947  0.00  0.00    +0.016 A 
ATOM     17  C   UNL     1      -0.859  -0.869  25.270  0.00  0.00    +0.016 A 
ATOM     18  C   UNL     1      -3.511  -0.890  24.406  0.00  0.00    +0.039 A 
ATOM     19  C   UNL     1      -1.734  -1.853  25.730  0.00  0.00    +0.039 A 
ATOM     21  C   UNL     1      -3.060  -1.864  25.297  0.00  0.00    +0.123 A 
ENDBRANCH  13  14
BRANCH   8   3
ATOM      3  O   UNL     1      -3.385   3.467  26.287  0.00  0.00    -0.468 OA
BRANCH   3  15
ATOM      6  N   UNL     1      -5.499   2.594  26.706  0.00  0.00    -0.219 NA
ATOM      7  N   UNL     1      -5.732   1.935  23.989  0.00  0.00    -0.256 NA
ATOM     15  C   UNL     1      -4.517   2.859  25.821  0.00  0.00    +0.234 A 
ATOM     20  C   UNL     1      -4.632   2.535  24.486  0.00  0.00    +0.177 A 
ATOM     22  C   UNL     1      -6.599   1.994  26.208  0.00  0.00    +0.134 A 
ATOM     23  C   UNL     1      -6.712   1.671  24.874  0.00  0.00    +0.130 A 
ENDBRANCH   3  15
ENDBRANCH   8   3
TORSDOF 3
ENDMDL
MODEL 8
REMARK VINA RESULT:      -3.0      1.916      4.086
REMARK  Name = 75367706
REMARK  3 active torsions:
REMARK  status: ('A' for Active; 'I' for Inactive)
REMARK    1  A    between atoms: O_3  and  C_8
REMARK    2  A    between atoms: O_3  and  C_15
REMARK    3  A    between atoms: C_13  and  C_14
REMARK                            x       y       z     vdW  Elec       q    Type
REMARK                         _______ _______ _______ _____ _____    ______ ____
ROOT
ATOM      2  O   UNL     1      -4.807   4.522  25.107  0.00  0.00    -0.375 OA
ATOM      4  O   UNL     1      -0.139   3.209  23.833  0.00  0.00    -0.270 OA
ATOM      5  N   UNL     1      -2.106   3.122  25.106  0.00  0.00    -0.292 N 
ATOM      8  C   UNL     1      -4.337   2.061  25.058  0.00  0.00    +0.218 C 
ATOM      9  C   UNL     1      -3.083   2.343  25.884  0.00  0.00    +0.155 C 
ATOM     10  C   UNL     1      -2.407   4.544  24.921  0.00  0.00    +0.136 C 
ATOM     11  C   UNL     1      -5.350   3.210  25.059  0.00  0.00    +0.206 C 
ATOM     12  C   UNL     1      -3.735   4.771  24.205  0.00  0.00    +0.179 C 
ATOM     13  C   UNL     1      -0.954   2.588  24.515  0.00  0.00    +0.247 C 
ENDROOT
BRANCH  13  14
ATOM      1  F   UNL     1       0.118  -2.855  25.257  0.00  0.00    -0.205 F 
ATOM     14  C   UNL     1      -0.673   1.161  24.709  0.00  0.00    +0.037 A 
ATOM     16  C   UNL     1      -0.199   0.392  23.646  0.00  0.00    +0.016 A 
ATOM     17  C   UNL     1      -0.880   0.572  25.958  0.00  0.00    +0.016 A 
ATOM     18  C   UNL     1       0.068  -0.964  23.831  0.00  0.00    +0.039 A 
ATOM     19  C   UNL     1      -0.613  -0.784  26.142  0.00  0.00    +0.039 A 
ATOM     21  C   UNL     1      -0.139  -1.552  25.079  0.00  0.00    +0.123 A 
ENDBRANCH  13  14
BRANCH   8   3
ATOM      3  O   UNL     1      -4.968   0.887  25.567  0.00  0.00    -0.468 OA
BRANCH   3  15
ATOM      6  N   UNL     1      -4.459  -0.574  23.832  0.00  0.00    -0.219 NA
ATOM      7  N   UNL     1      -3.432  -2.393  25.704  0.00  0.00    -0.256 NA
ATOM     15  C   UNL     1      -4.453  -0.310  25.154  0.00  0.00    +0.234 A 
ATOM     20  C   UNL     1      -3.948  -1.204  26.073  0.00  0.00    +0.177 A 
ATOM     22  C   UNL     1      -3.943  -1.764  23.463  0.00  0.00    +0.134 A 
ATOM     23  C   UNL     1      -3.439  -2.657  24.383  0.00  0.00    +0.130 A 
ENDBRANCH   3  15
ENDBRANCH   8   3
TORSDOF 3
ENDMDL
MODEL 9
REMARK VINA RESULT:      -2.6      2.837      4.892
REMARK  Name = 75367706
REMARK  3 active torsions:
REMARK  status: ('A' for Active; 'I' for Inactive)
REMARK    1  A    between atoms: O_3  and  C_8
REMARK    2  A    between atoms: O_3  and  C_15
REMARK    3  A    between atoms: C_13  and  C_14
REMARK                            x       y       z     vdW  Elec       q    Type
REMARK                         _______ _______ _______ _____ _____    ______ ____
ROOT
ATOM      2  O   UNL     1      -3.022  -2.944  24.366  0.00  0.00    -0.375 OA
ATOM      4  O   UNL     1      -5.852   1.191  24.545  0.00  0.00    -0.270 OA
ATOM      5  N   UNL     1      -3.991  -0.142  25.050  0.00  0.00    -0.292 N 
ATOM      8  C   UNL     1      -1.805  -0.771  24.086  0.00  0.00    +0.218 C 
ATOM      9  C   UNL     1      -2.549  -0.262  25.320  0.00  0.00    +0.155 C 
ATOM     10  C   UNL     1      -4.751  -1.394  25.004  0.00  0.00    +0.136 C 
ATOM     11  C   UNL     1      -1.836  -2.294  23.930  0.00  0.00    +0.206 C 
ATOM     12  C   UNL     1      -4.239  -2.348  23.930  0.00  0.00    +0.179 C 
ATOM     13  C   UNL     1      -4.656   1.066  24.805  0.00  0.00    +0.247 C 
ENDROOT
BRANCH  13  14
ATOM      1  F   UNL     1      -1.683   5.804  24.983  0.00  0.00    -0.205 F 
ATOM     14  C   UNL     1      -3.876   2.309  24.852  0.00  0.00    +0.037 A 
ATOM     16  C   UNL     1      -3.773   3.024  26.045  0.00  0.00    +0.016 A 
ATOM     17  C   UNL     1      -3.237   2.776  23.702  0.00  0.00    +0.016 A 
ATOM     18  C   UNL     1      -3.033   4.204  26.090  0.00  0.00    +0.039 A 
ATOM     19  C   UNL     1      -2.497   3.957  23.747  0.00  0.00    +0.039 A 
ATOM     21  C   UNL     1      -2.394   4.671  24.941  0.00  0.00    +0.123 A 
ENDBRANCH  13  14
BRANCH   8   3
ATOM      3  O   UNL     1      -0.447  -0.340  24.159  0.00  0.00    -0.468 OA
BRANCH   3  15
ATOM      6  N   UNL     1       0.265   1.862  23.937  0.00  0.00    -0.219 NA
ATOM      7  N   UNL     1      -0.293   2.285  26.654  0.00  0.00    -0.256 NA
ATOM     15  C   UNL     1      -0.224   0.884  24.726  0.00  0.00    +0.234 A 
ATOM     20  C   UNL     1      -0.498   1.092  26.060  0.00  0.00    +0.177 A 
ATOM     22  C   UNL     1       0.471   3.055  24.531  0.00  0.00    +0.134 A 
ATOM     23  C   UNL     1       0.196   3.262  25.865  0.00  0.00    +0.130 A 
ENDBRANCH   3  15
ENDBRANCH   8   3
TORSDOF 3
ENDMDL
