MODEL 1
REMARK VINA RESULT:      -2.3      0.000      0.000
REMARK  Name = 45783488
REMARK  9 active torsions:
REMARK  status: ('A' for Active; 'I' for Inactive)
REMARK    1  A    between atoms: O_2  and  C_27
REMARK    2  A    between atoms: O_2  and  C_28
REMARK    3  A    between atoms: N_3  and  C_13
REMARK    4  A    between atoms: N_8  and  C_25
REMARK    5  A    between atoms: N_8  and  C_26
REMARK    6  A    between atoms: C_9  and  C_14
REMARK    7  A    between atoms: C_13  and  C_15
REMARK    8  A    between atoms: C_16  and  C_19
REMARK    9  A    between atoms: C_26  and  C_27
REMARK                            x       y       z     vdW  Elec       q    Type
REMARK                         _______ _______ _______ _____ _____    ______ ____
ROOT
ATOM      1  O   UNL     1      -2.406   3.761  24.624  0.00  0.00    -0.336 OA
ATOM      4  N   UNL     1      -2.323   1.617  23.980  0.00  0.00    -0.190 NA
ATOM      5  N   UNL     1      -1.052   3.470  24.412  0.00  0.00    -0.056 NA
ATOM     14  C   UNL     1      -3.084   2.616  24.347  0.00  0.00    +0.245 A 
ATOM     16  C   UNL     1      -1.084   2.188  24.035  0.00  0.00    +0.204 A 
ENDROOT
BRANCH  16  19
ATOM      7  N   UNL     1       2.507   1.408  23.465  0.00  0.00    -0.240 NA
ATOM     19  C   UNL     1       0.101   1.451  23.707  0.00  0.00    +0.041 A 
ATOM     22  C   UNL     1       0.032   0.116  23.326  0.00  0.00    +0.016 A 
ATOM     23  C   UNL     1       1.352   2.047  23.761  0.00  0.00    +0.124 A 
ATOM     24  C   UNL     1       1.198  -0.574  23.014  0.00  0.00    +0.044 A 
ATOM     25  C   UNL     1       2.400   0.112  23.098  0.00  0.00    +0.119 A 
BRANCH  25   8
ATOM      8  N   UNL     1       3.579  -0.604  22.778  0.00  0.00    -0.327 N 
ATOM     29  H   UNL     1       3.912  -0.525  21.824  0.00  0.00    +0.148 HD
BRANCH   8  26
ATOM     26  C   UNL     1       4.277  -1.407  23.731  0.00  0.00    +0.131 C 
BRANCH  26  27
ATOM     27  C   UNL     1       5.343  -0.579  24.427  0.00  0.00    +0.178 C 
BRANCH  27   2
ATOM      2  O   UNL     1       6.022   0.223  23.468  0.00  0.00    -0.381 OA
ATOM     28  C   UNL     1       7.074  -0.495  22.839  0.00  0.00    +0.194 C 
ENDBRANCH  27   2
ENDBRANCH  26  27
ENDBRANCH   8  26
ENDBRANCH  25   8
ENDBRANCH  16  19
BRANCH  14   9
ATOM      3  N   UNL     1      -5.128   1.502  25.227  0.00  0.00    -0.287 NA
ATOM      9  C   UNL     1      -4.590   2.670  24.501  0.00  0.00    +0.146 C 
ATOM     10  C   UNL     1      -5.062   3.888  25.315  0.00  0.00    +0.030 C 
ATOM     11  C   UNL     1      -5.906   3.312  26.442  0.00  0.00    +0.017 C 
ATOM     12  C   UNL     1      -6.339   1.961  25.908  0.00  0.00    +0.085 C 
BRANCH   3  13
ATOM     13  C   UNL     1      -5.384   0.356  24.365  0.00  0.00    +0.121 C 
BRANCH  13  15
ATOM      6  N   UNL     1      -3.470  -2.878  23.916  0.00  0.00    -0.263 NA
ATOM     15  C   UNL     1      -4.411  -0.765  24.616  0.00  0.00    -0.015 A 
ATOM     17  C   UNL     1      -3.573  -0.751  25.726  0.00  0.00    +0.008 A 
ATOM     18  C   UNL     1      -4.321  -1.841  23.748  0.00  0.00    +0.115 A 
ATOM     20  C   UNL     1      -2.685  -1.801  25.932  0.00  0.00    +0.020 A 
ATOM     21  C   UNL     1      -2.672  -2.831  25.006  0.00  0.00    +0.111 A 
ENDBRANCH  13  15
ENDBRANCH   3  13
ENDBRANCH  14   9
TORSDOF 8
ENDMDL
MODEL 2
REMARK VINA RESULT:      -1.7      1.896      3.814
REMARK  Name = 45783488
REMARK  9 active torsions:
REMARK  status: ('A' for Active; 'I' for Inactive)
REMARK    1  A    between atoms: O_2  and  C_27
REMARK    2  A    between atoms: O_2  and  C_28
REMARK    3  A    between atoms: N_3  and  C_13
REMARK    4  A    between atoms: N_8  and  C_25
REMARK    5  A    between atoms: N_8  and  C_26
REMARK    6  A    between atoms: C_9  and  C_14
REMARK    7  A    between atoms: C_13  and  C_15
REMARK    8  A    between atoms: C_16  and  C_19
REMARK    9  A    between atoms: C_26  and  C_27
REMARK                            x       y       z     vdW  Elec       q    Type
REMARK                         _______ _______ _______ _____ _____    ______ ____
ROOT
ATOM      1  O   UNL     1      -3.040  -0.879  25.002  0.00  0.00    -0.336 OA
ATOM      4  N   UNL     1      -2.078   1.099  24.580  0.00  0.00    -0.190 NA
ATOM      5  N   UNL     1      -1.787  -1.166  24.445  0.00  0.00    -0.056 NA
ATOM     14  C   UNL     1      -3.131   0.477  25.045  0.00  0.00    +0.245 A 
ATOM     16  C   UNL     1      -1.280   0.051  24.223  0.00  0.00    +0.204 A 
ENDROOT
BRANCH  16  19
ATOM      7  N   UNL     1       2.062   1.540  23.562  0.00  0.00    -0.240 NA
ATOM     19  C   UNL     1       0.017   0.253  23.647  0.00  0.00    +0.041 A 
ATOM     22  C   UNL     1       0.500  -0.592  22.654  0.00  0.00    +0.016 A 
ATOM     23  C   UNL     1       0.830   1.295  24.064  0.00  0.00    +0.124 A 
ATOM     24  C   UNL     1       1.761  -0.372  22.114  0.00  0.00    +0.044 A 
ATOM     25  C   UNL     1       2.497   0.699  22.599  0.00  0.00    +0.119 A 
BRANCH  25   8
ATOM      8  N   UNL     1       3.781   0.909  22.040  0.00  0.00    -0.327 N 
ATOM     29  H   UNL     1       3.862   1.660  21.363  0.00  0.00    +0.148 HD
BRANCH   8  26
ATOM     26  C   UNL     1       4.915   0.116  22.392  0.00  0.00    +0.131 C 
BRANCH  26  27
ATOM     27  C   UNL     1       5.420   0.513  23.768  0.00  0.00    +0.178 C 
BRANCH  27   2
ATOM      2  O   UNL     1       5.348  -0.607  24.641  0.00  0.00    -0.381 OA
ATOM     28  C   UNL     1       4.799  -1.743  23.988  0.00  0.00    +0.194 C 
ENDBRANCH  27   2
ENDBRANCH  26  27
ENDBRANCH   8  26
ENDBRANCH  25   8
ENDBRANCH  16  19
BRANCH  14   9
ATOM      3  N   UNL     1      -4.540   2.501  25.376  0.00  0.00    -0.287 NA
ATOM      9  C   UNL     1      -4.412   1.050  25.615  0.00  0.00    +0.146 C 
ATOM     10  C   UNL     1      -5.672   0.436  24.981  0.00  0.00    +0.030 C 
ATOM     11  C   UNL     1      -6.476   1.620  24.465  0.00  0.00    +0.017 C 
ATOM     12  C   UNL     1      -5.974   2.782  25.298  0.00  0.00    +0.085 C 
BRANCH   3  13
ATOM     13  C   UNL     1      -3.876   3.312  26.388  0.00  0.00    +0.121 C 
BRANCH  13  15
ATOM      6  N   UNL     1      -0.193   3.796  25.658  0.00  0.00    -0.263 NA
ATOM     15  C   UNL     1      -2.598   3.918  25.872  0.00  0.00    -0.015 A 
ATOM     17  C   UNL     1      -2.609   5.111  25.157  0.00  0.00    +0.008 A 
ATOM     18  C   UNL     1      -1.375   3.305  26.094  0.00  0.00    +0.115 A 
ATOM     20  C   UNL     1      -1.412   5.647  24.693  0.00  0.00    +0.020 A 
ATOM     21  C   UNL     1      -0.242   4.957  24.967  0.00  0.00    +0.111 A 
ENDBRANCH  13  15
ENDBRANCH   3  13
ENDBRANCH  14   9
TORSDOF 8
ENDMDL
MODEL 3
REMARK VINA RESULT:      -1.5      1.189      1.667
REMARK  Name = 45783488
REMARK  9 active torsions:
REMARK  status: ('A' for Active; 'I' for Inactive)
REMARK    1  A    between atoms: O_2  and  C_27
REMARK    2  A    between atoms: O_2  and  C_28
REMARK    3  A    between atoms: N_3  and  C_13
REMARK    4  A    between atoms: N_8  and  C_25
REMARK    5  A    between atoms: N_8  and  C_26
REMARK    6  A    between atoms: C_9  and  C_14
REMARK    7  A    between atoms: C_13  and  C_15
REMARK    8  A    between atoms: C_16  and  C_19
REMARK    9  A    between atoms: C_26  and  C_27
REMARK                            x       y       z     vdW  Elec       q    Type
REMARK                         _______ _______ _______ _____ _____    ______ ____
ROOT
ATOM      1  O   UNL     1      -2.128   2.253  25.614  0.00  0.00    -0.336 OA
ATOM      4  N   UNL     1      -1.860   1.612  23.484  0.00  0.00    -0.190 NA
ATOM      5  N   UNL     1      -0.767   1.960  25.464  0.00  0.00    -0.056 NA
ATOM     14  C   UNL     1      -2.699   2.022  24.402  0.00  0.00    +0.245 A 
ATOM     16  C   UNL     1      -0.687   1.589  24.182  0.00  0.00    +0.204 A 
ENDROOT
BRANCH  16  19
ATOM      7  N   UNL     1       1.780  -0.442  22.281  0.00  0.00    -0.240 NA
ATOM     19  C   UNL     1       0.546   1.190  23.569  0.00  0.00    +0.041 A 
ATOM     22  C   UNL     1       1.678   1.994  23.647  0.00  0.00    +0.016 A 
ATOM     23  C   UNL     1       0.648  -0.008  22.880  0.00  0.00    +0.124 A 
ATOM     24  C   UNL     1       2.860   1.581  23.044  0.00  0.00    +0.044 A 
ATOM     25  C   UNL     1       2.859   0.365  22.378  0.00  0.00    +0.119 A 
BRANCH  25   8
ATOM      8  N   UNL     1       4.071  -0.041  21.768  0.00  0.00    -0.327 N 
ATOM     29  H   UNL     1       4.045  -0.188  20.765  0.00  0.00    +0.148 HD
BRANCH   8  26
ATOM     26  C   UNL     1       5.276  -0.243  22.505  0.00  0.00    +0.131 C 
BRANCH  26  27
ATOM     27  C   UNL     1       5.027  -1.203  23.656  0.00  0.00    +0.178 C 
BRANCH  27   2
ATOM      2  O   UNL     1       5.507  -0.629  24.865  0.00  0.00    -0.381 OA
ATOM     28  C   UNL     1       5.838   0.742  24.696  0.00  0.00    +0.194 C 
ENDBRANCH  27   2
ENDBRANCH  26  27
ENDBRANCH   8  26
ENDBRANCH  25   8
ENDBRANCH  16  19
BRANCH  14   9
ATOM      3  N   UNL     1      -4.964   1.481  25.278  0.00  0.00    -0.287 NA
ATOM      9  C   UNL     1      -4.189   2.269  24.299  0.00  0.00    +0.146 C 
ATOM     10  C   UNL     1      -4.570   3.733  24.585  0.00  0.00    +0.030 C 
ATOM     11  C   UNL     1      -5.607   3.665  25.697  0.00  0.00    +0.017 C 
ATOM     12  C   UNL     1      -6.166   2.261  25.578  0.00  0.00    +0.085 C 
BRANCH   3  13
ATOM     13  C   UNL     1      -5.283   0.139  24.812  0.00  0.00    +0.121 C 
BRANCH  13  15
ATOM      6  N   UNL     1      -2.109  -1.505  26.057  0.00  0.00    -0.263 NA
ATOM     15  C   UNL     1      -4.091  -0.778  24.879  0.00  0.00    -0.015 A 
ATOM     17  C   UNL     1      -3.853  -1.718  23.883  0.00  0.00    +0.008 A 
ATOM     18  C   UNL     1      -3.198  -0.712  25.936  0.00  0.00    +0.115 A 
ATOM     20  C   UNL     1      -2.743  -2.551  23.972  0.00  0.00    +0.020 A 
ATOM     21  C   UNL     1      -1.910  -2.406  25.069  0.00  0.00    +0.111 A 
ENDBRANCH  13  15
ENDBRANCH   3  13
ENDBRANCH  14   9
TORSDOF 8
ENDMDL
MODEL 4
REMARK VINA RESULT:       1.2      1.545      3.535
REMARK  Name = 45783488
REMARK  9 active torsions:
REMARK  status: ('A' for Active; 'I' for Inactive)
REMARK    1  A    between atoms: O_2  and  C_27
REMARK    2  A    between atoms: O_2  and  C_28
REMARK    3  A    between atoms: N_3  and  C_13
REMARK    4  A    between atoms: N_8  and  C_25
REMARK    5  A    between atoms: N_8  and  C_26
REMARK    6  A    between atoms: C_9  and  C_14
REMARK    7  A    between atoms: C_13  and  C_15
REMARK    8  A    between atoms: C_16  and  C_19
REMARK    9  A    between atoms: C_26  and  C_27
REMARK                            x       y       z     vdW  Elec       q    Type
REMARK                         _______ _______ _______ _____ _____    ______ ____
ROOT
ATOM      1  O   UNL     1      -2.223   0.773  25.732  0.00  0.00    -0.336 OA
ATOM      4  N   UNL     1      -1.424  -0.595  24.148  0.00  0.00    -0.190 NA
ATOM      5  N   UNL     1      -0.958   1.268  25.392  0.00  0.00    -0.056 NA
ATOM     14  C   UNL     1      -2.420  -0.324  24.953  0.00  0.00    +0.245 A 
ATOM     16  C   UNL     1      -0.550   0.409  24.452  0.00  0.00    +0.204 A 
ENDROOT
BRANCH  16  19
ATOM      7  N   UNL     1       2.745   1.796  23.431  0.00  0.00    -0.240 NA
ATOM     19  C   UNL     1       0.721   0.525  23.801  0.00  0.00    +0.041 A 
ATOM     22  C   UNL     1       1.177  -0.465  22.936  0.00  0.00    +0.016 A 
ATOM     23  C   UNL     1       1.536   1.626  24.013  0.00  0.00    +0.124 A 
ATOM     24  C   UNL     1       2.414  -0.325  22.319  0.00  0.00    +0.044 A 
ATOM     25  C   UNL     1       3.153   0.814  22.597  0.00  0.00    +0.119 A 
BRANCH  25   8
ATOM      8  N   UNL     1       4.412   0.941  21.961  0.00  0.00    -0.327 N 
ATOM     29  H   UNL     1       4.473   1.620  21.210  0.00  0.00    +0.148 HD
BRANCH   8  26
ATOM     26  C   UNL     1       5.548   0.162  22.336  0.00  0.00    +0.131 C 
BRANCH  26  27
ATOM     27  C   UNL     1       5.948   0.481  23.766  0.00  0.00    +0.178 C 
BRANCH  27   2
ATOM      2  O   UNL     1       5.393  -0.492  24.642  0.00  0.00    -0.381 OA
ATOM     28  C   UNL     1       5.153  -1.721  23.972  0.00  0.00    +0.194 C 
ENDBRANCH  27   2
ENDBRANCH  26  27
ENDBRANCH   8  26
ENDBRANCH  25   8
ENDBRANCH  16  19
BRANCH  14   9
ATOM      3  N   UNL     1      -4.800  -0.523  24.256  0.00  0.00    -0.287 NA
ATOM      9  C   UNL     1      -3.736  -1.052  25.132  0.00  0.00    +0.146 C 
ATOM     10  C   UNL     1      -3.642  -2.546  24.775  0.00  0.00    +0.030 C 
ATOM     11  C   UNL     1      -4.729  -2.777  23.737  0.00  0.00    +0.017 C 
ATOM     12  C   UNL     1      -5.703  -1.642  23.981  0.00  0.00    +0.085 C 
BRANCH   3  13
ATOM     13  C   UNL     1      -5.500   0.620  24.827  0.00  0.00    +0.121 C 
BRANCH  13  15
ATOM      6  N   UNL     1      -3.279   3.298  23.337  0.00  0.00    -0.263 NA
ATOM     15  C   UNL     1      -4.706   1.891  24.689  0.00  0.00    -0.015 A 
ATOM     17  C   UNL     1      -4.652   2.818  25.724  0.00  0.00    +0.008 A 
ATOM     18  C   UNL     1      -4.009   2.176  23.526  0.00  0.00    +0.115 A 
ATOM     20  C   UNL     1      -3.911   3.984  25.567  0.00  0.00    +0.020 A 
ATOM     21  C   UNL     1      -3.249   4.175  24.365  0.00  0.00    +0.111 A 
ENDBRANCH  13  15
ENDBRANCH   3  13
ENDBRANCH  14   9
TORSDOF 8
ENDMDL
