MODEL 1
REMARK VINA RESULT:      -4.5      0.000      0.000
REMARK  Name = 45783807
REMARK  9 active torsions:
REMARK  status: ('A' for Active; 'I' for Inactive)
REMARK    1  A    between atoms: N_2  and  C_11
REMARK    2  A    between atoms: N_6  and  C_26
REMARK    3  A    between atoms: N_6  and  C_27
REMARK    4  A    between atoms: N_6  and  C_28
REMARK    5  A    between atoms: C_7  and  C_12
REMARK    6  A    between atoms: C_11  and  C_13
REMARK    7  A    between atoms: C_13  and  C_14
REMARK    8  A    between atoms: C_14  and  C_15
REMARK    9  A    between atoms: C_16  and  C_17
REMARK                            x       y       z     vdW  Elec       q    Type
REMARK                         _______ _______ _______ _____ _____    ______ ____
ROOT
ATOM      2  N   UNL     1      16.243  -9.058  28.991  0.00  0.00    -0.291 NA
ATOM      7  C   UNL     1      16.722  -9.686  27.744  0.00  0.00    +0.146 C 
ATOM      8  C   UNL     1      15.648 -10.731  27.395  0.00  0.00    +0.030 C 
ATOM      9  C   UNL     1      15.433 -10.066  29.677  0.00  0.00    +0.085 C 
ATOM     10  C   UNL     1      14.639 -10.661  28.532  0.00  0.00    +0.017 C 
ENDROOT
BRANCH   7  12
ATOM      1  O   UNL     1      17.249  -9.186  25.411  0.00  0.00    -0.336 OA
ATOM      3  N   UNL     1      16.882  -7.373  26.674  0.00  0.00    -0.190 NA
ATOM      4  N   UNL     1      17.404  -8.082  24.562  0.00  0.00    -0.056 NA
ATOM     12  C   UNL     1      16.943  -8.680  26.634  0.00  0.00    +0.245 A 
ATOM     16  C   UNL     1      17.173  -7.050  25.381  0.00  0.00    +0.204 A 
BRANCH  16  17
ATOM      5  N   UNL     1      17.249  -3.334  25.491  0.00  0.00    -0.240 NA
ATOM     17  C   UNL     1      17.223  -5.687  24.936  0.00  0.00    +0.041 A 
ATOM     22  C   UNL     1      17.290  -5.377  23.583  0.00  0.00    +0.016 A 
ATOM     23  C   UNL     1      17.205  -4.638  25.843  0.00  0.00    +0.124 A 
ATOM     25  C   UNL     1      17.336  -4.046  23.181  0.00  0.00    +0.044 A 
ATOM     26  C   UNL     1      17.313  -3.071  24.166  0.00  0.00    +0.121 A 
BRANCH  26   6
ATOM      6  N   UNL     1      17.362  -1.720  23.742  0.00  0.00    -0.321 N 
ATOM     27  C   UNL     1      17.398  -0.653  24.717  0.00  0.00    +0.130 C 
ATOM     28  C   UNL     1      17.369  -1.400  22.332  0.00  0.00    +0.130 C 
ENDBRANCH  26   6
ENDBRANCH  16  17
ENDBRANCH   7  12
BRANCH   2  11
ATOM     11  C   UNL     1      17.321  -8.557  29.834  0.00  0.00    +0.085 C 
BRANCH  11  13
ATOM     13  C   UNL     1      16.798  -7.476  30.778  0.00  0.00    +0.020 C 
BRANCH  13  14
ATOM     14  C   UNL     1      15.992  -6.421  30.016  0.00  0.00    +0.036 C 
BRANCH  14  15
ATOM     15  C   UNL     1      14.637  -6.197  30.638  0.00  0.00    -0.047 A 
ATOM     18  C   UNL     1      13.665  -7.196  30.570  0.00  0.00    +0.003 A 
ATOM     19  C   UNL     1      14.355  -4.992  31.281  0.00  0.00    +0.003 A 
ATOM     20  C   UNL     1      12.411  -6.988  31.146  0.00  0.00    +0.000 A 
ATOM     21  C   UNL     1      13.101  -4.785  31.856  0.00  0.00    +0.000 A 
ATOM     24  C   UNL     1      12.129  -5.783  31.788  0.00  0.00    +0.000 A 
ENDBRANCH  14  15
ENDBRANCH  13  14
ENDBRANCH  11  13
ENDBRANCH   2  11
TORSDOF 7
ENDMDL
MODEL 2
REMARK VINA RESULT:      -2.9     17.526     19.824
REMARK  Name = 45783807
REMARK  9 active torsions:
REMARK  status: ('A' for Active; 'I' for Inactive)
REMARK    1  A    between atoms: N_2  and  C_11
REMARK    2  A    between atoms: N_6  and  C_26
REMARK    3  A    between atoms: N_6  and  C_27
REMARK    4  A    between atoms: N_6  and  C_28
REMARK    5  A    between atoms: C_7  and  C_12
REMARK    6  A    between atoms: C_11  and  C_13
REMARK    7  A    between atoms: C_13  and  C_14
REMARK    8  A    between atoms: C_14  and  C_15
REMARK    9  A    between atoms: C_16  and  C_17
REMARK                            x       y       z     vdW  Elec       q    Type
REMARK                         _______ _______ _______ _____ _____    ______ ____
ROOT
ATOM      2  N   UNL     1      -4.369   2.901  25.345  0.00  0.00    -0.291 NA
ATOM      7  C   UNL     1      -3.418   3.589  24.449  0.00  0.00    +0.146 C 
ATOM      8  C   UNL     1      -2.789   4.691  25.320  0.00  0.00    +0.030 C 
ATOM      9  C   UNL     1      -4.796   3.891  26.334  0.00  0.00    +0.085 C 
ATOM     10  C   UNL     1      -3.490   4.585  26.666  0.00  0.00    +0.017 C 
ENDROOT
BRANCH   7  12
ATOM      1  O   UNL     1      -2.784   1.909  22.791  0.00  0.00    -0.336 OA
ATOM      3  N   UNL     1      -1.151   2.434  24.233  0.00  0.00    -0.190 NA
ATOM      4  N   UNL     1      -1.679   1.128  22.429  0.00  0.00    -0.056 NA
ATOM     12  C   UNL     1      -2.388   2.648  23.861  0.00  0.00    +0.245 A 
ATOM     16  C   UNL     1      -0.757   1.493  23.326  0.00  0.00    +0.204 A 
BRANCH  16  17
ATOM      5  N   UNL     1       2.955   1.301  23.454  0.00  0.00    -0.240 NA
ATOM     17  C   UNL     1       0.567   0.940  23.341  0.00  0.00    +0.041 A 
ATOM     22  C   UNL     1       0.770  -0.433  23.260  0.00  0.00    +0.016 A 
ATOM     23  C   UNL     1       1.682   1.757  23.436  0.00  0.00    +0.124 A 
ATOM     25  C   UNL     1       2.065  -0.941  23.276  0.00  0.00    +0.044 A 
ATOM     26  C   UNL     1       3.113  -0.040  23.374  0.00  0.00    +0.121 A 
BRANCH  26   6
ATOM      6  N   UNL     1       4.426  -0.572  23.390  0.00  0.00    -0.321 N 
ATOM     27  C   UNL     1       4.644  -1.959  23.735  0.00  0.00    +0.130 C 
ATOM     28  C   UNL     1       5.556   0.270  23.068  0.00  0.00    +0.130 C 
ENDBRANCH  26   6
ENDBRANCH  16  17
ENDBRANCH   7  12
BRANCH   2  11
ATOM     11  C   UNL     1      -5.498   2.311  24.639  0.00  0.00    +0.085 C 
BRANCH  11  13
ATOM     13  C   UNL     1      -5.463   0.788  24.760  0.00  0.00    +0.020 C 
BRANCH  13  14
ATOM     14  C   UNL     1      -4.463   0.343  25.830  0.00  0.00    +0.036 C 
BRANCH  14  15
ATOM     15  C   UNL     1      -3.563  -0.758  25.329  0.00  0.00    -0.047 A 
ATOM     18  C   UNL     1      -4.068  -1.734  24.468  0.00  0.00    +0.003 A 
ATOM     19  C   UNL     1      -2.227  -0.803  25.726  0.00  0.00    +0.003 A 
ATOM     20  C   UNL     1      -3.235  -2.753  24.005  0.00  0.00    +0.000 A 
ATOM     21  C   UNL     1      -1.395  -1.822  25.262  0.00  0.00    +0.000 A 
ATOM     24  C   UNL     1      -1.899  -2.797  24.402  0.00  0.00    +0.000 A 
ENDBRANCH  14  15
ENDBRANCH  13  14
ENDBRANCH  11  13
ENDBRANCH   2  11
TORSDOF 7
ENDMDL
