MODEL 1
REMARK VINA RESULT:      -5.6      0.000      0.000
REMARK  Name = 86769009
REMARK  7 active torsions:
REMARK  status: ('A' for Active; 'I' for Inactive)
REMARK    1  A    between atoms: O_2  and  C_10
REMARK    2  A    between atoms: N_4  and  C_9
REMARK    3  A    between atoms: N_4  and  C_14
REMARK    4  A    between atoms: N_5  and  C_13
REMARK    5  A    between atoms: C_11  and  C_13
REMARK    6  A    between atoms: C_14  and  C_15
REMARK    7  A    between atoms: C_16  and  C_18
REMARK                            x       y       z     vdW  Elec       q    Type
REMARK                         _______ _______ _______ _____ _____    ______ ____
ROOT
ATOM      1  O   UNL     1      -1.704  -2.632  23.891  0.00  0.00    -0.371 OA
ATOM      9  C   UNL     1      -0.002  -1.054  24.398  0.00  0.00    +0.111 C 
ATOM     10  C   UNL     1      -1.199  -0.799  25.297  0.00  0.00    +0.164 C 
ATOM     11  C   UNL     1      -1.911  -2.143  25.227  0.00  0.00    +0.165 C 
ATOM     12  C   UNL     1      -0.630  -1.885  23.292  0.00  0.00    +0.181 C 
ENDROOT
BRANCH  10   2
ATOM      2  O   UNL     1      -0.827  -0.469  26.621  0.00  0.00    -0.388 OA
ATOM     25  H   UNL     1      -1.426   0.226  26.943  0.00  0.00    +0.210 HD
ENDBRANCH  10   2
BRANCH   9   4
ATOM      4  N   UNL     1       0.627   0.161  23.907  0.00  0.00    -0.304 NA
ATOM     24  H   UNL     1       1.241   0.533  24.632  0.00  0.00    +0.123 HD
BRANCH   4  14
ATOM     14  C   UNL     1       1.414  -0.104  22.709  0.00  0.00    +0.136 C 
BRANCH  14  15
ATOM      6  N   UNL     1       3.585  -1.074  23.549  0.00  0.00    -0.347 N 
ATOM      7  N   UNL     1       5.076   0.532  23.189  0.00  0.00    -0.244 NA
ATOM     15  C   UNL     1       2.893  -0.041  22.983  0.00  0.00    +0.049 A 
ATOM     17  C   UNL     1       3.834   0.938  22.769  0.00  0.00    +0.134 A 
ATOM     19  C   UNL     1       4.891  -0.684  23.654  0.00  0.00    +0.196 A 
ATOM     27  H   UNL     1       3.204  -1.965  23.840  0.00  0.00    +0.167 HD
ENDBRANCH  14  15
ENDBRANCH   4  14
ENDBRANCH   9   4
BRANCH  11  13
ATOM     13  C   UNL     1      -3.399  -2.051  25.514  0.00  0.00    +0.138 C 
BRANCH  13   5
ATOM      3  O   UNL     1      -3.959  -0.237  23.360  0.00  0.00    -0.270 OA
ATOM      5  N   UNL     1      -3.824  -0.686  25.632  0.00  0.00    -0.309 N 
ATOM     16  C   UNL     1      -4.074   0.123  24.529  0.00  0.00    +0.244 C 
ATOM     26  H   UNL     1      -3.874  -0.306  26.571  0.00  0.00    +0.149 HD
BRANCH  16  18
ATOM      8  N   UNL     1      -5.247   4.153  25.372  0.00  0.00    -0.263 NA
ATOM     18  C   UNL     1      -4.481   1.522  24.821  0.00  0.00    +0.040 A 
ATOM     20  C   UNL     1      -3.684   2.582  24.406  0.00  0.00    +0.033 A 
ATOM     21  C   UNL     1      -5.661   1.776  25.510  0.00  0.00    +0.033 A 
ATOM     22  C   UNL     1      -4.107   3.868  24.704  0.00  0.00    +0.111 A 
ATOM     23  C   UNL     1      -5.997   3.097  25.760  0.00  0.00    +0.111 A 
ENDBRANCH  16  18
ENDBRANCH  13   5
ENDBRANCH  11  13
TORSDOF 7
ENDMDL
MODEL 2
REMARK VINA RESULT:      -5.5      2.617      4.944
REMARK  Name = 86769009
REMARK  7 active torsions:
REMARK  status: ('A' for Active; 'I' for Inactive)
REMARK    1  A    between atoms: O_2  and  C_10
REMARK    2  A    between atoms: N_4  and  C_9
REMARK    3  A    between atoms: N_4  and  C_14
REMARK    4  A    between atoms: N_5  and  C_13
REMARK    5  A    between atoms: C_11  and  C_13
REMARK    6  A    between atoms: C_14  and  C_15
REMARK    7  A    between atoms: C_16  and  C_18
REMARK                            x       y       z     vdW  Elec       q    Type
REMARK                         _______ _______ _______ _____ _____    ______ ____
ROOT
ATOM      1  O   UNL     1      -3.673   4.254  25.690  0.00  0.00    -0.371 OA
ATOM      9  C   UNL     1      -1.343   3.941  25.352  0.00  0.00    +0.111 C 
ATOM     10  C   UNL     1      -2.105   3.155  24.301  0.00  0.00    +0.164 C 
ATOM     11  C   UNL     1      -3.453   3.865  24.324  0.00  0.00    +0.165 C 
ATOM     12  C   UNL     1      -2.423   4.173  26.396  0.00  0.00    +0.181 C 
ENDROOT
BRANCH  10   2
ATOM      2  O   UNL     1      -1.499   3.217  23.026  0.00  0.00    -0.388 OA
ATOM     25  H   UNL     1      -0.592   3.551  23.134  0.00  0.00    +0.210 HD
ENDBRANCH  10   2
BRANCH   9   4
ATOM      4  N   UNL     1      -0.186   3.236  25.881  0.00  0.00    -0.304 NA
ATOM     24  H   UNL     1       0.066   3.642  26.783  0.00  0.00    +0.123 HD
BRANCH   4  14
ATOM     14  C   UNL     1      -0.473   1.818  26.062  0.00  0.00    +0.136 C 
BRANCH  14  15
ATOM      6  N   UNL     1       1.036   1.401  24.085  0.00  0.00    -0.347 N 
ATOM      7  N   UNL     1       0.396  -0.583  23.319  0.00  0.00    -0.244 NA
ATOM     15  C   UNL     1       0.021   0.994  24.903  0.00  0.00    +0.049 A 
ATOM     17  C   UNL     1      -0.358  -0.233  24.412  0.00  0.00    +0.134 A 
ATOM     19  C   UNL     1       1.225   0.423  23.149  0.00  0.00    +0.196 A 
ATOM     27  H   UNL     1       1.554   2.267  24.155  0.00  0.00    +0.167 HD
ENDBRANCH  14  15
ENDBRANCH   4  14
ENDBRANCH   9   4
BRANCH  11  13
ATOM     13  C   UNL     1      -4.600   2.993  23.847  0.00  0.00    +0.138 C 
BRANCH  13   5
ATOM      3  O   UNL     1      -5.338   1.118  25.892  0.00  0.00    -0.270 OA
ATOM      5  N   UNL     1      -4.255   1.602  23.898  0.00  0.00    -0.309 N 
ATOM     16  C   UNL     1      -4.658   0.764  24.933  0.00  0.00    +0.244 C 
ATOM     26  H   UNL     1      -3.637   1.260  23.170  0.00  0.00    +0.149 HD
BRANCH  16  18
ATOM      8  N   UNL     1      -3.326  -3.298  24.704  0.00  0.00    -0.263 NA
ATOM     18  C   UNL     1      -4.195  -0.646  24.853  0.00  0.00    +0.040 A 
ATOM     20  C   UNL     1      -4.442  -1.398  23.710  0.00  0.00    +0.033 A 
ATOM     21  C   UNL     1      -3.513  -1.218  25.921  0.00  0.00    +0.033 A 
ATOM     22  C   UNL     1      -3.991  -2.708  23.686  0.00  0.00    +0.111 A 
ATOM     23  C   UNL     1      -3.104  -2.536  25.798  0.00  0.00    +0.111 A 
ENDBRANCH  16  18
ENDBRANCH  13   5
ENDBRANCH  11  13
TORSDOF 7
ENDMDL
MODEL 3
REMARK VINA RESULT:      -5.3      2.025      2.978
REMARK  Name = 86769009
REMARK  7 active torsions:
REMARK  status: ('A' for Active; 'I' for Inactive)
REMARK    1  A    between atoms: O_2  and  C_10
REMARK    2  A    between atoms: N_4  and  C_9
REMARK    3  A    between atoms: N_4  and  C_14
REMARK    4  A    between atoms: N_5  and  C_13
REMARK    5  A    between atoms: C_11  and  C_13
REMARK    6  A    between atoms: C_14  and  C_15
REMARK    7  A    between atoms: C_16  and  C_18
REMARK                            x       y       z     vdW  Elec       q    Type
REMARK                         _______ _______ _______ _____ _____    ______ ____
ROOT
ATOM      1  O   UNL     1      -1.758  -2.626  23.842  0.00  0.00    -0.371 OA
ATOM      9  C   UNL     1      -0.065  -1.103  24.516  0.00  0.00    +0.111 C 
ATOM     10  C   UNL     1      -1.279  -0.920  25.409  0.00  0.00    +0.164 C 
ATOM     11  C   UNL     1      -1.992  -2.252  25.210  0.00  0.00    +0.165 C 
ATOM     12  C   UNL     1      -0.672  -1.835  23.330  0.00  0.00    +0.181 C 
ENDROOT
BRANCH  10   2
ATOM      2  O   UNL     1      -0.934  -0.706  26.763  0.00  0.00    -0.388 OA
ATOM     25  H   UNL     1      -1.392  -1.371  27.305  0.00  0.00    +0.210 HD
ENDBRANCH  10   2
BRANCH   9   4
ATOM      4  N   UNL     1       0.575   0.148  24.142  0.00  0.00    -0.304 NA
ATOM     24  H   UNL     1       1.330  -0.050  23.484  0.00  0.00    +0.123 HD
BRANCH   4  14
ATOM     14  C   UNL     1      -0.375   1.057  23.513  0.00  0.00    +0.136 C 
BRANCH  14  15
ATOM      6  N   UNL     1      -0.982   2.215  25.670  0.00  0.00    -0.347 N 
ATOM      7  N   UNL     1      -0.871   4.378  25.177  0.00  0.00    -0.244 NA
ATOM     15  C   UNL     1      -0.621   2.282  24.354  0.00  0.00    +0.049 A 
ATOM     17  C   UNL     1      -0.558   3.626  24.073  0.00  0.00    +0.134 A 
ATOM     19  C   UNL     1      -1.121   3.498  26.122  0.00  0.00    +0.196 A 
ATOM     27  H   UNL     1      -1.122   1.374  26.213  0.00  0.00    +0.167 HD
ENDBRANCH  14  15
ENDBRANCH   4  14
ENDBRANCH   9   4
BRANCH  11  13
ATOM     13  C   UNL     1      -3.485  -2.180  25.474  0.00  0.00    +0.138 C 
BRANCH  13   5
ATOM      3  O   UNL     1      -4.003  -0.362  23.313  0.00  0.00    -0.270 OA
ATOM      5  N   UNL     1      -3.930  -0.821  25.586  0.00  0.00    -0.309 N 
ATOM     16  C   UNL     1      -4.157  -0.009  24.479  0.00  0.00    +0.244 C 
ATOM     26  H   UNL     1      -4.013  -0.445  26.525  0.00  0.00    +0.149 HD
BRANCH  16  18
ATOM      8  N   UNL     1      -5.404   4.002  25.305  0.00  0.00    -0.263 NA
ATOM     18  C   UNL     1      -4.590   1.383  24.765  0.00  0.00    +0.040 A 
ATOM     20  C   UNL     1      -4.007   2.448  24.088  0.00  0.00    +0.033 A 
ATOM     21  C   UNL     1      -5.580   1.626  25.711  0.00  0.00    +0.033 A 
ATOM     22  C   UNL     1      -4.445   3.727  24.392  0.00  0.00    +0.111 A 
ATOM     23  C   UNL     1      -5.948   2.941  25.943  0.00  0.00    +0.111 A 
ENDBRANCH  16  18
ENDBRANCH  13   5
ENDBRANCH  11  13
TORSDOF 7
ENDMDL
MODEL 4
REMARK VINA RESULT:      -5.3      2.538      6.604
REMARK  Name = 86769009
REMARK  7 active torsions:
REMARK  status: ('A' for Active; 'I' for Inactive)
REMARK    1  A    between atoms: O_2  and  C_10
REMARK    2  A    between atoms: N_4  and  C_9
REMARK    3  A    between atoms: N_4  and  C_14
REMARK    4  A    between atoms: N_5  and  C_13
REMARK    5  A    between atoms: C_11  and  C_13
REMARK    6  A    between atoms: C_14  and  C_15
REMARK    7  A    between atoms: C_16  and  C_18
REMARK                            x       y       z     vdW  Elec       q    Type
REMARK                         _______ _______ _______ _____ _____    ______ ____
ROOT
ATOM      1  O   UNL     1       0.134   3.367  23.631  0.00  0.00    -0.371 OA
ATOM      9  C   UNL     1      -1.000   3.787  25.675  0.00  0.00    +0.111 C 
ATOM     10  C   UNL     1      -0.619   2.319  25.613  0.00  0.00    +0.164 C 
ATOM     11  C   UNL     1       0.499   2.350  24.579  0.00  0.00    +0.165 C 
ATOM     12  C   UNL     1      -0.894   4.187  24.214  0.00  0.00    +0.181 C 
ENDROOT
BRANCH  10   2
ATOM      2  O   UNL     1      -0.171   1.817  26.857  0.00  0.00    -0.388 OA
ATOM     25  H   UNL     1      -0.950   1.607  27.400  0.00  0.00    +0.210 HD
ENDBRANCH  10   2
BRANCH   9   4
ATOM      4  N   UNL     1      -2.322   4.022  26.233  0.00  0.00    -0.304 NA
ATOM     24  H   UNL     1      -2.282   4.832  26.852  0.00  0.00    +0.123 HD
BRANCH   4  14
ATOM     14  C   UNL     1      -3.298   4.278  25.180  0.00  0.00    +0.136 C 
BRANCH  14  15
ATOM      6  N   UNL     1      -5.260   3.170  26.312  0.00  0.00    -0.347 N 
ATOM      7  N   UNL     1      -6.006   1.713  24.812  0.00  0.00    -0.244 NA
ATOM     15  C   UNL     1      -4.442   3.301  25.226  0.00  0.00    +0.049 A 
ATOM     17  C   UNL     1      -4.922   2.392  24.313  0.00  0.00    +0.134 A 
ATOM     19  C   UNL     1      -6.183   2.206  26.018  0.00  0.00    +0.196 A 
ATOM     27  H   UNL     1      -5.197   3.690  27.178  0.00  0.00    +0.167 HD
ENDBRANCH  14  15
ENDBRANCH   4  14
ENDBRANCH   9   4
BRANCH  11  13
ATOM     13  C   UNL     1       0.691   1.026  23.861  0.00  0.00    +0.138 C 
BRANCH  13   5
ATOM      3  O   UNL     1      -0.126  -1.148  25.549  0.00  0.00    -0.270 OA
ATOM      5  N   UNL     1      -0.539   0.294  23.779  0.00  0.00    -0.309 N 
ATOM     16  C   UNL     1      -0.853  -0.750  24.643  0.00  0.00    +0.244 C 
ATOM     26  H   UNL     1      -1.157   0.527  23.009  0.00  0.00    +0.149 HD
BRANCH  16  18
ATOM      8  N   UNL     1      -4.606  -2.697  23.971  0.00  0.00    -0.263 NA
ATOM     18  C   UNL     1      -2.156  -1.426  24.409  0.00  0.00    +0.040 A 
ATOM     20  C   UNL     1      -3.291  -0.675  24.126  0.00  0.00    +0.033 A 
ATOM     21  C   UNL     1      -2.245  -2.812  24.472  0.00  0.00    +0.033 A 
ATOM     22  C   UNL     1      -4.482  -1.352  23.918  0.00  0.00    +0.111 A 
ATOM     23  C   UNL     1      -3.482  -3.394  24.248  0.00  0.00    +0.111 A 
ENDBRANCH  16  18
ENDBRANCH  13   5
ENDBRANCH  11  13
TORSDOF 7
ENDMDL
MODEL 5
REMARK VINA RESULT:      -4.1     15.465     17.431
REMARK  Name = 86769009
REMARK  7 active torsions:
REMARK  status: ('A' for Active; 'I' for Inactive)
REMARK    1  A    between atoms: O_2  and  C_10
REMARK    2  A    between atoms: N_4  and  C_9
REMARK    3  A    between atoms: N_4  and  C_14
REMARK    4  A    between atoms: N_5  and  C_13
REMARK    5  A    between atoms: C_11  and  C_13
REMARK    6  A    between atoms: C_14  and  C_15
REMARK    7  A    between atoms: C_16  and  C_18
REMARK                            x       y       z     vdW  Elec       q    Type
REMARK                         _______ _______ _______ _____ _____    ______ ____
ROOT
ATOM      1  O   UNL     1      -4.393  -8.857  11.058  0.00  0.00    -0.371 OA
ATOM      9  C   UNL     1      -6.225  -8.416   9.611  0.00  0.00    +0.111 C 
ATOM     10  C   UNL     1      -6.530  -9.656  10.433  0.00  0.00    +0.164 C 
ATOM     11  C   UNL     1      -5.571  -9.475  11.603  0.00  0.00    +0.165 C 
ATOM     12  C   UNL     1      -4.717  -8.319   9.764  0.00  0.00    +0.181 C 
ENDROOT
BRANCH  10   2
ATOM      2  O   UNL     1      -7.877  -9.710  10.861  0.00  0.00    -0.388 OA
ATOM     25  H   UNL     1      -7.911 -10.193  11.704  0.00  0.00    +0.210 HD
ENDBRANCH  10   2
BRANCH   9   4
ATOM      4  N   UNL     1      -6.649  -8.518   8.225  0.00  0.00    -0.304 NA
ATOM     24  H   UNL     1      -6.250  -9.365   7.817  0.00  0.00    +0.123 HD
BRANCH   4  14
ATOM     14  C   UNL     1      -8.102  -8.583   8.124  0.00  0.00    +0.136 C 
BRANCH  14  15
ATOM      6  N   UNL     1      -9.996  -7.103   8.887  0.00  0.00    -0.347 N 
ATOM      7  N   UNL     1      -9.254  -5.040   8.532  0.00  0.00    -0.244 NA
ATOM     15  C   UNL     1      -8.742  -7.242   8.363  0.00  0.00    +0.049 A 
ATOM     17  C   UNL     1      -8.304  -5.955   8.153  0.00  0.00    +0.134 A 
ATOM     19  C   UNL     1     -10.261  -5.765   8.970  0.00  0.00    +0.196 A 
ATOM     27  H   UNL     1     -10.618  -7.852   9.164  0.00  0.00    +0.167 HD
ENDBRANCH  14  15
ENDBRANCH   4  14
ENDBRANCH   9   4
BRANCH  11  13
ATOM     13  C   UNL     1      -5.197 -10.781  12.280  0.00  0.00    +0.138 C 
BRANCH  13   5
ATOM      3  O   UNL     1      -7.580 -10.272  13.798  0.00  0.00    -0.270 OA
ATOM      5  N   UNL     1      -5.298 -10.677  13.707  0.00  0.00    -0.309 N 
ATOM     16  C   UNL     1      -6.500 -10.427  14.361  0.00  0.00    +0.244 C 
ATOM     26  H   UNL     1      -4.430 -10.728  14.229  0.00  0.00    +0.149 HD
BRANCH  16  18
ATOM      8  N   UNL     1      -6.304 -10.123  18.627  0.00  0.00    -0.263 NA
ATOM     18  C   UNL     1      -6.431 -10.321  15.842  0.00  0.00    +0.040 A 
ATOM     20  C   UNL     1      -5.257 -10.644  16.511  0.00  0.00    +0.033 A 
ATOM     21  C   UNL     1      -7.542  -9.898  16.563  0.00  0.00    +0.033 A 
ATOM     22  C   UNL     1      -5.244 -10.530  17.892  0.00  0.00    +0.111 A 
ATOM     23  C   UNL     1      -7.428  -9.817  17.942  0.00  0.00    +0.111 A 
ENDBRANCH  16  18
ENDBRANCH  13   5
ENDBRANCH  11  13
TORSDOF 7
ENDMDL
MODEL 6
REMARK VINA RESULT:      -4.1      1.771      2.278
REMARK  Name = 86769009
REMARK  7 active torsions:
REMARK  status: ('A' for Active; 'I' for Inactive)
REMARK    1  A    between atoms: O_2  and  C_10
REMARK    2  A    between atoms: N_4  and  C_9
REMARK    3  A    between atoms: N_4  and  C_14
REMARK    4  A    between atoms: N_5  and  C_13
REMARK    5  A    between atoms: C_11  and  C_13
REMARK    6  A    between atoms: C_14  and  C_15
REMARK    7  A    between atoms: C_16  and  C_18
REMARK                            x       y       z     vdW  Elec       q    Type
REMARK                         _______ _______ _______ _____ _____    ______ ____
ROOT
ATOM      1  O   UNL     1      -3.238  -2.235  24.384  0.00  0.00    -0.371 OA
ATOM      9  C   UNL     1      -0.923  -1.996  24.860  0.00  0.00    +0.111 C 
ATOM     10  C   UNL     1      -1.675  -0.817  25.452  0.00  0.00    +0.164 C 
ATOM     11  C   UNL     1      -3.088  -1.380  25.530  0.00  0.00    +0.165 C 
ATOM     12  C   UNL     1      -1.933  -2.520  23.852  0.00  0.00    +0.181 C 
ENDROOT
BRANCH  10   2
ATOM      2  O   UNL     1      -1.187  -0.442  26.725  0.00  0.00    -0.388 OA
ATOM     25  H   UNL     1      -1.620   0.389  26.986  0.00  0.00    +0.210 HD
ENDBRANCH  10   2
BRANCH   9   4
ATOM      4  N   UNL     1       0.346  -1.632  24.253  0.00  0.00    -0.304 NA
ATOM     24  H   UNL     1       0.597  -2.337  23.559  0.00  0.00    +0.123 HD
BRANCH   4  14
ATOM     14  C   UNL     1       0.261  -0.332  23.599  0.00  0.00    +0.136 C 
BRANCH  14  15
ATOM      6  N   UNL     1       2.325   1.117  23.540  0.00  0.00    -0.347 N 
ATOM      7  N   UNL     1       3.483   0.347  21.809  0.00  0.00    -0.244 NA
ATOM     15  C   UNL     1       1.585   0.093  23.020  0.00  0.00    +0.049 A 
ATOM     17  C   UNL     1       2.320  -0.367  21.953  0.00  0.00    +0.134 A 
ATOM     19  C   UNL     1       3.455   1.232  22.781  0.00  0.00    +0.196 A 
ATOM     27  H   UNL     1       2.084   1.687  24.340  0.00  0.00    +0.167 HD
ENDBRANCH  14  15
ENDBRANCH   4  14
ENDBRANCH   9   4
BRANCH  11  13
ATOM     13  C   UNL     1      -4.163  -0.308  25.514  0.00  0.00    +0.138 C 
BRANCH  13   5
ATOM      3  O   UNL     1      -3.142   1.228  23.314  0.00  0.00    -0.270 OA
ATOM      5  N   UNL     1      -3.591   1.006  25.579  0.00  0.00    -0.309 N 
ATOM     16  C   UNL     1      -3.120   1.678  24.456  0.00  0.00    +0.244 C 
ATOM     26  H   UNL     1      -3.482   1.409  26.503  0.00  0.00    +0.149 HD
BRANCH  16  18
ATOM      8  N   UNL     1      -1.425   5.548  25.149  0.00  0.00    -0.263 NA
ATOM     18  C   UNL     1      -2.532   3.022  24.695  0.00  0.00    +0.040 A 
ATOM     20  C   UNL     1      -1.194   3.260  24.402  0.00  0.00    +0.033 A 
ATOM     21  C   UNL     1      -3.317   4.045  25.214  0.00  0.00    +0.033 A 
ATOM     22  C   UNL     1      -0.693   4.530  24.645  0.00  0.00    +0.111 A 
ATOM     23  C   UNL     1      -2.722   5.279  25.421  0.00  0.00    +0.111 A 
ENDBRANCH  16  18
ENDBRANCH  13   5
ENDBRANCH  11  13
TORSDOF 7
ENDMDL
MODEL 7
REMARK VINA RESULT:      -3.9     14.847     16.503
REMARK  Name = 86769009
REMARK  7 active torsions:
REMARK  status: ('A' for Active; 'I' for Inactive)
REMARK    1  A    between atoms: O_2  and  C_10
REMARK    2  A    between atoms: N_4  and  C_9
REMARK    3  A    between atoms: N_4  and  C_14
REMARK    4  A    between atoms: N_5  and  C_13
REMARK    5  A    between atoms: C_11  and  C_13
REMARK    6  A    between atoms: C_14  and  C_15
REMARK    7  A    between atoms: C_16  and  C_18
REMARK                            x       y       z     vdW  Elec       q    Type
REMARK                         _______ _______ _______ _____ _____    ______ ____
ROOT
ATOM      1  O   UNL     1      -6.772  -8.527  11.640  0.00  0.00    -0.371 OA
ATOM      9  C   UNL     1      -5.351  -8.996   9.796  0.00  0.00    +0.111 C 
ATOM     10  C   UNL     1      -6.253 -10.192  10.043  0.00  0.00    +0.164 C 
ATOM     11  C   UNL     1      -7.384  -9.548  10.834  0.00  0.00    +0.165 C 
ATOM     12  C   UNL     1      -5.457  -8.261  11.121  0.00  0.00    +0.181 C 
ENDROOT
BRANCH  10   2
ATOM      2  O   UNL     1      -6.719 -10.781   8.845  0.00  0.00    -0.388 OA
ATOM     25  H   UNL     1      -7.471 -10.258   8.519  0.00  0.00    +0.210 HD
ENDBRANCH  10   2
BRANCH   9   4
ATOM      4  N   UNL     1      -3.984  -9.358   9.456  0.00  0.00    -0.304 NA
ATOM     24  H   UNL     1      -3.353  -8.638   9.808  0.00  0.00    +0.123 HD
BRANCH   4  14
ATOM     14  C   UNL     1      -3.619 -10.640  10.048  0.00  0.00    +0.136 C 
BRANCH  14  15
ATOM      6  N   UNL     1      -3.647 -10.773  12.566  0.00  0.00    -0.347 N 
ATOM      7  N   UNL     1      -1.635 -10.055  13.173  0.00  0.00    -0.244 NA
ATOM     15  C   UNL     1      -2.991 -10.472  11.406  0.00  0.00    +0.049 A 
ATOM     17  C   UNL     1      -1.751 -10.032  11.806  0.00  0.00    +0.134 A 
ATOM     19  C   UNL     1      -2.794 -10.507  13.600  0.00  0.00    +0.196 A 
ATOM     27  H   UNL     1      -4.591 -11.127  12.649  0.00  0.00    +0.167 HD
ENDBRANCH  14  15
ENDBRANCH   4  14
ENDBRANCH   9   4
BRANCH  11  13
ATOM     13  C   UNL     1      -8.128 -10.526  11.724  0.00  0.00    +0.138 C 
BRANCH  13   5
ATOM      3  O   UNL     1      -9.187  -9.393  14.140  0.00  0.00    -0.270 OA
ATOM      5  N   UNL     1      -7.541 -10.594  13.031  0.00  0.00    -0.309 N 
ATOM     16  C   UNL     1      -8.127 -10.013  14.151  0.00  0.00    +0.244 C 
ATOM     26  H   UNL     1      -6.630 -11.036  13.098  0.00  0.00    +0.149 HD
BRANCH  16  18
ATOM      8  N   UNL     1      -5.972 -10.404  17.829  0.00  0.00    -0.263 NA
ATOM     18  C   UNL     1      -7.379 -10.150  15.427  0.00  0.00    +0.040 A 
ATOM     20  C   UNL     1      -8.065 -10.355  16.619  0.00  0.00    +0.033 A 
ATOM     21  C   UNL     1      -5.991 -10.073  15.435  0.00  0.00    +0.033 A 
ATOM     22  C   UNL     1      -7.322 -10.474  17.783  0.00  0.00    +0.111 A 
ATOM     23  C   UNL     1      -5.340 -10.204  16.651  0.00  0.00    +0.111 A 
ENDBRANCH  16  18
ENDBRANCH  13   5
ENDBRANCH  11  13
TORSDOF 7
ENDMDL
MODEL 8
REMARK VINA RESULT:      -3.2     17.980     19.072
REMARK  Name = 86769009
REMARK  7 active torsions:
REMARK  status: ('A' for Active; 'I' for Inactive)
REMARK    1  A    between atoms: O_2  and  C_10
REMARK    2  A    between atoms: N_4  and  C_9
REMARK    3  A    between atoms: N_4  and  C_14
REMARK    4  A    between atoms: N_5  and  C_13
REMARK    5  A    between atoms: C_11  and  C_13
REMARK    6  A    between atoms: C_14  and  C_15
REMARK    7  A    between atoms: C_16  and  C_18
REMARK                            x       y       z     vdW  Elec       q    Type
REMARK                         _______ _______ _______ _____ _____    ______ ____
ROOT
ATOM      1  O   UNL     1      12.897 -10.362  30.270  0.00  0.00    -0.371 OA
ATOM      9  C   UNL     1      15.146 -10.663  29.566  0.00  0.00    +0.111 C 
ATOM     10  C   UNL     1      15.083  -9.501  30.541  0.00  0.00    +0.164 C 
ATOM     11  C   UNL     1      13.770  -9.789  31.257  0.00  0.00    +0.165 C 
ATOM     12  C   UNL     1      13.691 -10.781  29.145  0.00  0.00    +0.181 C 
ENDROOT
BRANCH  10   2
ATOM      2  O   UNL     1      16.177  -9.479  31.436  0.00  0.00    -0.388 OA
ATOM     25  H   UNL     1      16.391 -10.396  31.680  0.00  0.00    +0.210 HD
ENDBRANCH  10   2
BRANCH   9   4
ATOM      4  N   UNL     1      16.043 -10.436  28.446  0.00  0.00    -0.304 NA
ATOM     24  H   UNL     1      16.559 -11.296  28.253  0.00  0.00    +0.123 HD
BRANCH   4  14
ATOM     14  C   UNL     1      15.303 -10.049  27.251  0.00  0.00    +0.136 C 
BRANCH  14  15
ATOM      6  N   UNL     1      15.525  -7.538  27.287  0.00  0.00    -0.347 N 
ATOM      7  N   UNL     1      16.721  -7.069  25.475  0.00  0.00    -0.244 NA
ATOM     15  C   UNL     1      15.786  -8.738  26.690  0.00  0.00    +0.049 A 
ATOM     17  C   UNL     1      16.526  -8.424  25.574  0.00  0.00    +0.134 A 
ATOM     19  C   UNL     1      16.106  -6.565  26.522  0.00  0.00    +0.196 A 
ATOM     27  H   UNL     1      14.999  -7.391  28.138  0.00  0.00    +0.167 HD
ENDBRANCH  14  15
ENDBRANCH   4  14
ENDBRANCH   9   4
BRANCH  11  13
ATOM     13  C   UNL     1      13.127  -8.551  31.854  0.00  0.00    +0.138 C 
BRANCH  13   5
ATOM      3  O   UNL     1      12.461  -6.009  30.699  0.00  0.00    -0.270 OA
ATOM      5  N   UNL     1      13.988  -7.409  31.742  0.00  0.00    -0.309 N 
ATOM     16  C   UNL     1      13.579  -6.212  31.164  0.00  0.00    +0.244 C 
ATOM     26  H   UNL     1      14.947  -7.532  32.047  0.00  0.00    +0.149 HD
BRANCH  16  18
ATOM      8  N   UNL     1      16.518  -3.105  30.980  0.00  0.00    -0.263 NA
ATOM     18  C   UNL     1      14.599  -5.133  31.100  0.00  0.00    +0.040 A 
ATOM     20  C   UNL     1      15.629  -5.202  30.169  0.00  0.00    +0.033 A 
ATOM     21  C   UNL     1      14.527  -4.051  31.970  0.00  0.00    +0.033 A 
ATOM     22  C   UNL     1      16.556  -4.171  30.150  0.00  0.00    +0.111 A 
ATOM     23  C   UNL     1      15.502  -3.073  31.871  0.00  0.00    +0.111 A 
ENDBRANCH  16  18
ENDBRANCH  13   5
ENDBRANCH  11  13
TORSDOF 7
ENDMDL
MODEL 9
REMARK VINA RESULT:      -2.9      2.367      5.643
REMARK  Name = 86769009
REMARK  7 active torsions:
REMARK  status: ('A' for Active; 'I' for Inactive)
REMARK    1  A    between atoms: O_2  and  C_10
REMARK    2  A    between atoms: N_4  and  C_9
REMARK    3  A    between atoms: N_4  and  C_14
REMARK    4  A    between atoms: N_5  and  C_13
REMARK    5  A    between atoms: C_11  and  C_13
REMARK    6  A    between atoms: C_14  and  C_15
REMARK    7  A    between atoms: C_16  and  C_18
REMARK                            x       y       z     vdW  Elec       q    Type
REMARK                         _______ _______ _______ _____ _____    ______ ____
ROOT
ATOM      1  O   UNL     1      -1.104  -0.828  26.353  0.00  0.00    -0.371 OA
ATOM      9  C   UNL     1      -2.767  -2.222  25.388  0.00  0.00    +0.111 C 
ATOM     10  C   UNL     1      -1.735  -1.876  24.329  0.00  0.00    +0.164 C 
ATOM     11  C   UNL     1      -0.548  -1.475  25.196  0.00  0.00    +0.165 C 
ATOM     12  C   UNL     1      -2.505  -1.144  26.426  0.00  0.00    +0.181 C 
ENDROOT
BRANCH  10   2
ATOM      2  O   UNL     1      -1.426  -2.971  23.489  0.00  0.00    -0.388 OA
ATOM     25  H   UNL     1      -1.683  -2.740  22.580  0.00  0.00    +0.210 HD
ENDBRANCH  10   2
BRANCH   9   4
ATOM      4  N   UNL     1      -4.134  -2.213  24.893  0.00  0.00    -0.304 NA
ATOM     24  H   UNL     1      -4.763  -1.977  25.661  0.00  0.00    +0.123 HD
BRANCH   4  14
ATOM     14  C   UNL     1      -4.299  -1.233  23.826  0.00  0.00    +0.136 C 
BRANCH  14  15
ATOM      6  N   UNL     1      -4.251   1.287  23.768  0.00  0.00    -0.347 N 
ATOM      7  N   UNL     1      -5.446   1.897  25.538  0.00  0.00    -0.244 NA
ATOM     15  C   UNL     1      -4.657   0.126  24.363  0.00  0.00    +0.049 A 
ATOM     17  C   UNL     1      -5.393   0.528  25.453  0.00  0.00    +0.134 A 
ATOM     19  C   UNL     1      -4.748   2.323  24.508  0.00  0.00    +0.196 A 
ATOM     27  H   UNL     1      -3.685   1.369  22.934  0.00  0.00    +0.167 HD
ENDBRANCH  14  15
ENDBRANCH   4  14
ENDBRANCH   9   4
BRANCH  11  13
ATOM     13  C   UNL     1       0.417  -0.536  24.497  0.00  0.00    +0.138 C 
BRANCH  13   5
ATOM      3  O   UNL     1      -1.485   1.118  23.121  0.00  0.00    -0.270 OA
ATOM      5  N   UNL     1       0.110   0.836  24.782  0.00  0.00    -0.309 N 
ATOM     16  C   UNL     1      -0.831   1.563  24.060  0.00  0.00    +0.244 C 
ATOM     26  H   UNL     1       0.663   1.285  25.504  0.00  0.00    +0.149 HD
BRANCH  16  18
ATOM      8  N   UNL     1      -1.359   5.650  25.219  0.00  0.00    -0.263 NA
ATOM     18  C   UNL     1      -1.014   2.981  24.463  0.00  0.00    +0.040 A 
ATOM     20  C   UNL     1      -1.986   3.322  25.397  0.00  0.00    +0.033 A 
ATOM     21  C   UNL     1      -0.213   3.974  23.908  0.00  0.00    +0.033 A 
ATOM     22  C   UNL     1      -2.118   4.659  25.738  0.00  0.00    +0.111 A 
ATOM     23  C   UNL     1      -0.424   5.281  24.315  0.00  0.00    +0.111 A 
ENDBRANCH  16  18
ENDBRANCH  13   5
ENDBRANCH  11  13
TORSDOF 7
ENDMDL
MODEL 10
REMARK VINA RESULT:      -2.9      1.672      7.994
REMARK  Name = 86769009
REMARK  7 active torsions:
REMARK  status: ('A' for Active; 'I' for Inactive)
REMARK    1  A    between atoms: O_2  and  C_10
REMARK    2  A    between atoms: N_4  and  C_9
REMARK    3  A    between atoms: N_4  and  C_14
REMARK    4  A    between atoms: N_5  and  C_13
REMARK    5  A    between atoms: C_11  and  C_13
REMARK    6  A    between atoms: C_14  and  C_15
REMARK    7  A    between atoms: C_16  and  C_18
REMARK                            x       y       z     vdW  Elec       q    Type
REMARK                         _______ _______ _______ _____ _____    ______ ____
ROOT
ATOM      1  O   UNL     1      -0.361  -0.524  24.673  0.00  0.00    -0.371 OA
ATOM      9  C   UNL     1      -2.734  -0.492  24.587  0.00  0.00    +0.111 C 
ATOM     10  C   UNL     1      -2.201   0.820  24.038  0.00  0.00    +0.164 C 
ATOM     11  C   UNL     1      -0.774   0.428  23.678  0.00  0.00    +0.165 C 
ATOM     12  C   UNL     1      -1.530  -1.007  25.357  0.00  0.00    +0.181 C 
ENDROOT
BRANCH  10   2
ATOM      2  O   UNL     1      -2.922   1.274  22.910  0.00  0.00    -0.388 OA
ATOM     25  H   UNL     1      -2.366   1.153  22.122  0.00  0.00    +0.210 HD
ENDBRANCH  10   2
BRANCH   9   4
ATOM      4  N   UNL     1      -3.916  -0.337  25.419  0.00  0.00    -0.304 NA
ATOM     24  H   UNL     1      -3.684   0.255  26.218  0.00  0.00    +0.123 HD
BRANCH   4  14
ATOM     14  C   UNL     1      -5.006   0.279  24.673  0.00  0.00    +0.136 C 
BRANCH  14  15
ATOM      6  N   UNL     1      -4.694   2.779  24.558  0.00  0.00    -0.347 N 
ATOM      7  N   UNL     1      -6.000   3.567  26.173  0.00  0.00    -0.244 NA
ATOM     15  C   UNL     1      -5.278   1.686  25.134  0.00  0.00    +0.049 A 
ATOM     17  C   UNL     1      -6.079   2.198  26.128  0.00  0.00    +0.134 A 
ATOM     19  C   UNL     1      -5.157   3.885  25.214  0.00  0.00    +0.196 A 
ATOM     27  H   UNL     1      -4.039   2.774  23.788  0.00  0.00    +0.167 HD
ENDBRANCH  14  15
ENDBRANCH   4  14
ENDBRANCH   9   4
BRANCH  11  13
ATOM     13  C   UNL     1       0.187   1.603  23.664  0.00  0.00    +0.138 C 
BRANCH  13   5
ATOM      3  O   UNL     1       1.658  -0.130  21.911  0.00  0.00    -0.270 OA
ATOM      5  N   UNL     1       1.544   1.171  23.828  0.00  0.00    -0.309 N 
ATOM     16  C   UNL     1       2.180   0.326  22.924  0.00  0.00    +0.244 C 
ATOM     26  H   UNL     1       2.012   1.458  24.681  0.00  0.00    +0.149 HD
BRANCH  16  18
ATOM      8  N   UNL     1       6.212  -0.762  23.865  0.00  0.00    -0.263 NA
ATOM     18  C   UNL     1       3.579  -0.051  23.252  0.00  0.00    +0.040 A 
ATOM     20  C   UNL     1       4.603   0.879  23.115  0.00  0.00    +0.033 A 
ATOM     21  C   UNL     1       3.871  -1.336  23.696  0.00  0.00    +0.033 A 
ATOM     22  C   UNL     1       5.891   0.478  23.431  0.00  0.00    +0.111 A 
ATOM     23  C   UNL     1       5.191  -1.639  23.986  0.00  0.00    +0.111 A 
ENDBRANCH  16  18
ENDBRANCH  13   5
ENDBRANCH  11  13
TORSDOF 7
ENDMDL
