MODEL 1
REMARK VINA RESULT:      -5.9      0.000      0.000
REMARK  Name = 40777976
REMARK  8 active torsions:
REMARK  status: ('A' for Active; 'I' for Inactive)
REMARK    1  A    between atoms: O_2  and  C_9
REMARK    2  A    between atoms: O_3  and  C_10
REMARK    3  A    between atoms: N_6  and  C_15
REMARK    4  A    between atoms: N_7  and  C_21
REMARK    5  A    between atoms: C_8  and  C_15
REMARK    6  A    between atoms: C_11  and  C_18
REMARK    7  A    between atoms: C_12  and  C_19
REMARK    8  A    between atoms: C_18  and  C_20
REMARK                            x       y       z     vdW  Elec       q    Type
REMARK                         _______ _______ _______ _____ _____    ______ ____
ROOT
ATOM      1  O   UNL     1      -0.073   0.816  23.452  0.00  0.00    -0.366 OA
ATOM      8  C   UNL     1       0.399  -0.508  23.112  0.00  0.00    +0.167 C 
ATOM      9  C   UNL     1       1.839  -0.341  22.639  0.00  0.00    +0.176 C 
ATOM     10  C   UNL     1       2.282   0.887  23.405  0.00  0.00    +0.175 C 
ATOM     11  C   UNL     1       1.026   1.740  23.368  0.00  0.00    +0.159 C 
ENDROOT
BRANCH   9   2
ATOM      2  O   UNL     1       1.816  -0.069  21.238  0.00  0.00    -0.387 OA
ATOM     28  H   UNL     1       2.673   0.328  21.005  0.00  0.00    +0.210 HD
ENDBRANCH   9   2
BRANCH  10   3
ATOM      3  O   UNL     1       3.386   1.545  22.818  0.00  0.00    -0.387 OA
ATOM     29  H   UNL     1       3.088   2.430  22.550  0.00  0.00    +0.210 HD
ENDBRANCH  10   3
BRANCH   8  15
ATOM     15  C   UNL     1       0.278  -1.379  24.355  0.00  0.00    +0.138 C 
BRANCH  15   6
ATOM      4  O   UNL     1      -1.339  -0.578  26.628  0.00  0.00    -0.276 OA
ATOM      6  N   UNL     1      -1.089  -1.722  24.614  0.00  0.00    -0.313 N 
ATOM     19  C   UNL     1      -1.790  -1.292  25.736  0.00  0.00    +0.216 C 
ATOM     27  H   UNL     1      -1.567  -2.294  23.924  0.00  0.00    +0.149 HD
BRANCH  19  12
ATOM     12  C   UNL     1      -3.208  -1.774  25.750  0.00  0.00    +0.075 C 
ATOM     13  C   UNL     1      -3.385  -2.938  24.769  0.00  0.00    +0.013 C 
ATOM     14  C   UNL     1      -4.158  -0.671  25.280  0.00  0.00    +0.013 C 
ATOM     16  C   UNL     1      -4.502  -2.517  23.820  0.00  0.00    +0.001 C 
ATOM     17  C   UNL     1      -4.438  -1.000  23.821  0.00  0.00    +0.001 C 
ENDBRANCH  19  12
ENDBRANCH  15   6
ENDBRANCH   8  15
BRANCH  11  18
ATOM     18  C   UNL     1       0.942   2.740  24.507  0.00  0.00    +0.130 C 
BRANCH  18  20
ATOM      5  O   UNL     1      -0.435   2.284  26.429  0.00  0.00    -0.275 OA
ATOM      7  N   UNL     1      -1.430   3.069  24.451  0.00  0.00    -0.285 N 
ATOM     20  C   UNL     1      -0.376   2.661  25.263  0.00  0.00    +0.220 C 
ATOM     30  H   UNL     1      -1.213   3.348  23.496  0.00  0.00    +0.155 HD
BRANCH   7  21
ATOM     21  C   UNL     1      -2.803   3.136  24.788  0.00  0.00    +0.033 A 
ATOM     22  C   UNL     1      -3.209   3.841  25.921  0.00  0.00    +0.023 A 
ATOM     23  C   UNL     1      -3.749   2.497  23.987  0.00  0.00    +0.023 A 
ATOM     24  C   UNL     1      -4.561   3.907  26.253  0.00  0.00    +0.002 A 
ATOM     25  C   UNL     1      -5.102   2.562  24.320  0.00  0.00    +0.002 A 
ATOM     26  C   UNL     1      -5.509   3.268  25.453  0.00  0.00    +0.000 A 
ENDBRANCH   7  21
ENDBRANCH  18  20
ENDBRANCH  11  18
TORSDOF 8
ENDMDL
MODEL 2
REMARK VINA RESULT:      -5.6      2.191      5.570
REMARK  Name = 40777976
REMARK  8 active torsions:
REMARK  status: ('A' for Active; 'I' for Inactive)
REMARK    1  A    between atoms: O_2  and  C_9
REMARK    2  A    between atoms: O_3  and  C_10
REMARK    3  A    between atoms: N_6  and  C_15
REMARK    4  A    between atoms: N_7  and  C_21
REMARK    5  A    between atoms: C_8  and  C_15
REMARK    6  A    between atoms: C_11  and  C_18
REMARK    7  A    between atoms: C_12  and  C_19
REMARK    8  A    between atoms: C_18  and  C_20
REMARK                            x       y       z     vdW  Elec       q    Type
REMARK                         _______ _______ _______ _____ _____    ______ ____
ROOT
ATOM      1  O   UNL     1      -1.883  -0.370  25.735  0.00  0.00    -0.366 OA
ATOM      8  C   UNL     1      -0.855  -1.010  24.945  0.00  0.00    +0.167 C 
ATOM      9  C   UNL     1      -1.504  -2.232  24.304  0.00  0.00    +0.176 C 
ATOM     10  C   UNL     1      -2.951  -1.800  24.195  0.00  0.00    +0.175 C 
ATOM     11  C   UNL     1      -3.138  -1.030  25.491  0.00  0.00    +0.159 C 
ENDROOT
BRANCH   9   2
ATOM      2  O   UNL     1      -1.381  -3.326  25.214  0.00  0.00    -0.387 OA
ATOM     28  H   UNL     1      -1.854  -3.081  26.028  0.00  0.00    +0.210 HD
ENDBRANCH   9   2
BRANCH  10   3
ATOM      3  O   UNL     1      -3.851  -2.883  24.088  0.00  0.00    -0.387 OA
ATOM     29  H   UNL     1      -3.707  -3.296  23.220  0.00  0.00    +0.210 HD
ENDBRANCH  10   3
BRANCH   8  15
ATOM     15  C   UNL     1      -0.356   0.003  23.923  0.00  0.00    +0.138 C 
BRANCH  15   6
ATOM      4  O   UNL     1       1.987   1.673  23.539  0.00  0.00    -0.276 OA
ATOM      6  N   UNL     1       0.912  -0.388  23.384  0.00  0.00    -0.313 N 
ATOM     19  C   UNL     1       1.987   0.483  23.235  0.00  0.00    +0.216 C 
ATOM     27  H   UNL     1       1.028  -1.362  23.119  0.00  0.00    +0.149 HD
BRANCH  19  12
ATOM     12  C   UNL     1       3.201  -0.188  22.670  0.00  0.00    +0.075 C 
ATOM     13  C   UNL     1       3.712  -1.264  23.635  0.00  0.00    +0.013 C 
ATOM     14  C   UNL     1       4.343   0.814  22.503  0.00  0.00    +0.013 C 
ATOM     16  C   UNL     1       5.167  -0.910  23.920  0.00  0.00    +0.001 C 
ATOM     17  C   UNL     1       5.230   0.594  23.720  0.00  0.00    +0.001 C 
ENDBRANCH  19  12
ENDBRANCH  15   6
ENDBRANCH   8  15
BRANCH  11  18
ATOM     18  C   UNL     1      -4.252   0.000  25.425  0.00  0.00    +0.130 C 
BRANCH  18  20
ATOM      5  O   UNL     1      -4.271   1.698  23.718  0.00  0.00    -0.275 OA
ATOM      7  N   UNL     1      -2.849   1.936  25.573  0.00  0.00    -0.285 N 
ATOM     20  C   UNL     1      -3.808   1.307  24.784  0.00  0.00    +0.220 C 
ATOM     30  H   UNL     1      -2.564   1.473  26.433  0.00  0.00    +0.155 HD
BRANCH   7  21
ATOM     21  C   UNL     1      -2.195   3.165  25.319  0.00  0.00    +0.033 A 
ATOM     22  C   UNL     1      -0.904   3.171  24.791  0.00  0.00    +0.023 A 
ATOM     23  C   UNL     1      -2.841   4.370  25.597  0.00  0.00    +0.023 A 
ATOM     24  C   UNL     1      -0.259   4.382  24.541  0.00  0.00    +0.002 A 
ATOM     25  C   UNL     1      -2.196   5.580  25.348  0.00  0.00    +0.002 A 
ATOM     26  C   UNL     1      -0.904   5.587  24.819  0.00  0.00    +0.000 A 
ENDBRANCH   7  21
ENDBRANCH  18  20
ENDBRANCH  11  18
TORSDOF 8
ENDMDL
MODEL 3
REMARK VINA RESULT:      -5.4      2.275      6.174
REMARK  Name = 40777976
REMARK  8 active torsions:
REMARK  status: ('A' for Active; 'I' for Inactive)
REMARK    1  A    between atoms: O_2  and  C_9
REMARK    2  A    between atoms: O_3  and  C_10
REMARK    3  A    between atoms: N_6  and  C_15
REMARK    4  A    between atoms: N_7  and  C_21
REMARK    5  A    between atoms: C_8  and  C_15
REMARK    6  A    between atoms: C_11  and  C_18
REMARK    7  A    between atoms: C_12  and  C_19
REMARK    8  A    between atoms: C_18  and  C_20
REMARK                            x       y       z     vdW  Elec       q    Type
REMARK                         _______ _______ _______ _____ _____    ______ ____
ROOT
ATOM      1  O   UNL     1      -2.992  -0.142  23.420  0.00  0.00    -0.366 OA
ATOM      8  C   UNL     1      -3.711  -0.979  24.354  0.00  0.00    +0.167 C 
ATOM      9  C   UNL     1      -2.654  -1.725  25.163  0.00  0.00    +0.176 C 
ATOM     10  C   UNL     1      -1.492  -0.755  25.131  0.00  0.00    +0.175 C 
ATOM     11  C   UNL     1      -1.586  -0.212  23.716  0.00  0.00    +0.159 C 
ENDROOT
BRANCH   9   2
ATOM      2  O   UNL     1      -2.321  -2.921  24.459  0.00  0.00    -0.387 OA
ATOM     28  H   UNL     1      -2.388  -3.658  25.091  0.00  0.00    +0.210 HD
ENDBRANCH   9   2
BRANCH  10   3
ATOM      3  O   UNL     1      -0.244  -1.370  25.380  0.00  0.00    -0.387 OA
ATOM     29  H   UNL     1       0.444  -0.696  25.247  0.00  0.00    +0.210 HD
ENDBRANCH  10   3
BRANCH   8  15
ATOM     15  C   UNL     1      -4.589  -0.077  25.210  0.00  0.00    +0.138 C 
BRANCH  15   6
ATOM      4  O   UNL     1      -6.018   2.239  26.220  0.00  0.00    -0.276 OA
ATOM      6  N   UNL     1      -4.260   1.304  25.011  0.00  0.00    -0.313 N 
ATOM     19  C   UNL     1      -5.005   2.355  25.536  0.00  0.00    +0.216 C 
ATOM     27  H   UNL     1      -3.423   1.513  24.475  0.00  0.00    +0.149 HD
BRANCH  19  12
ATOM     12  C   UNL     1      -4.428   3.696  25.199  0.00  0.00    +0.075 C 
ATOM     13  C   UNL     1      -3.519   3.590  23.969  0.00  0.00    +0.013 C 
ATOM     14  C   UNL     1      -3.547   4.206  26.339  0.00  0.00    +0.013 C 
ATOM     16  C   UNL     1      -2.164   4.137  24.405  0.00  0.00    +0.001 C 
ATOM     17  C   UNL     1      -2.125   3.884  25.902  0.00  0.00    +0.001 C 
ENDBRANCH  19  12
ENDBRANCH  15   6
ENDBRANCH   8  15
BRANCH  11  18
ATOM     18  C   UNL     1      -0.961   1.163  23.555  0.00  0.00    +0.130 C 
BRANCH  18  20
ATOM      5  O   UNL     1       0.890   1.899  24.908  0.00  0.00    -0.275 OA
ATOM      7  N   UNL     1       1.261   0.351  23.180  0.00  0.00    -0.285 N 
ATOM     20  C   UNL     1       0.500   1.199  23.979  0.00  0.00    +0.220 C 
ATOM     30  H   UNL     1       0.783  -0.159  22.440  0.00  0.00    +0.155 HD
BRANCH   7  21
ATOM     21  C   UNL     1       2.653   0.111  23.260  0.00  0.00    +0.033 A 
ATOM     22  C   UNL     1       3.123  -1.124  23.707  0.00  0.00    +0.023 A 
ATOM     23  C   UNL     1       3.556   1.109  22.891  0.00  0.00    +0.023 A 
ATOM     24  C   UNL     1       4.495  -1.361  23.787  0.00  0.00    +0.002 A 
ATOM     25  C   UNL     1       4.927   0.872  22.971  0.00  0.00    +0.002 A 
ATOM     26  C   UNL     1       5.398  -0.363  23.418  0.00  0.00    +0.000 A 
ENDBRANCH   7  21
ENDBRANCH  18  20
ENDBRANCH  11  18
TORSDOF 8
ENDMDL
MODEL 4
REMARK VINA RESULT:      -5.2      2.041      5.821
REMARK  Name = 40777976
REMARK  8 active torsions:
REMARK  status: ('A' for Active; 'I' for Inactive)
REMARK    1  A    between atoms: O_2  and  C_9
REMARK    2  A    between atoms: O_3  and  C_10
REMARK    3  A    between atoms: N_6  and  C_15
REMARK    4  A    between atoms: N_7  and  C_21
REMARK    5  A    between atoms: C_8  and  C_15
REMARK    6  A    between atoms: C_11  and  C_18
REMARK    7  A    between atoms: C_12  and  C_19
REMARK    8  A    between atoms: C_18  and  C_20
REMARK                            x       y       z     vdW  Elec       q    Type
REMARK                         _______ _______ _______ _____ _____    ______ ____
ROOT
ATOM      1  O   UNL     1      -1.795   3.204  23.271  0.00  0.00    -0.366 OA
ATOM      8  C   UNL     1      -0.585   3.146  24.061  0.00  0.00    +0.167 C 
ATOM      9  C   UNL     1      -0.889   3.878  25.364  0.00  0.00    +0.176 C 
ATOM     10  C   UNL     1      -2.380   3.660  25.507  0.00  0.00    +0.175 C 
ATOM     11  C   UNL     1      -2.846   3.778  24.067  0.00  0.00    +0.159 C 
ENDROOT
BRANCH   9   2
ATOM      2  O   UNL     1      -0.607   5.264  25.169  0.00  0.00    -0.387 OA
ATOM     28  H   UNL     1       0.284   5.432  25.522  0.00  0.00    +0.210 HD
ENDBRANCH   9   2
BRANCH  10   3
ATOM      3  O   UNL     1      -3.006   4.610  26.345  0.00  0.00    -0.387 OA
ATOM     29  H   UNL     1      -2.960   4.270  27.255  0.00  0.00    +0.210 HD
ENDBRANCH  10   3
BRANCH   8  15
ATOM     15  C   UNL     1      -0.235   1.679  24.270  0.00  0.00    +0.138 C 
BRANCH  15   6
ATOM      4  O   UNL     1       0.805  -0.987  23.786  0.00  0.00    -0.276 OA
ATOM      6  N   UNL     1       0.961   1.327  23.564  0.00  0.00    -0.313 N 
ATOM     19  C   UNL     1       1.386   0.015  23.378  0.00  0.00    +0.216 C 
ATOM     27  H   UNL     1       1.508   2.083  23.164  0.00  0.00    +0.149 HD
BRANCH  19  12
ATOM     12  C   UNL     1       2.653  -0.074  22.585  0.00  0.00    +0.075 C 
ATOM     13  C   UNL     1       3.569  -1.158  23.164  0.00  0.00    +0.013 C 
ATOM     14  C   UNL     1       3.436   1.237  22.670  0.00  0.00    +0.013 C 
ATOM     16  C   UNL     1       4.891  -0.465  23.474  0.00  0.00    +0.001 C 
ATOM     17  C   UNL     1       4.502   0.982  23.726  0.00  0.00    +0.001 C 
ENDBRANCH  19  12
ENDBRANCH  15   6
ENDBRANCH   8  15
BRANCH  11  18
ATOM     18  C   UNL     1      -4.150   3.049  23.793  0.00  0.00    +0.130 C 
BRANCH  18  20
ATOM      5  O   UNL     1      -4.882   1.572  25.547  0.00  0.00    -0.275 OA
ATOM      7  N   UNL     1      -3.512   0.741  23.829  0.00  0.00    -0.285 N 
ATOM     20  C   UNL     1      -4.239   1.712  24.512  0.00  0.00    +0.220 C 
ATOM     30  H   UNL     1      -3.024   1.023  22.980  0.00  0.00    +0.155 HD
BRANCH   7  21
ATOM     21  C   UNL     1      -3.351  -0.621  24.178  0.00  0.00    +0.033 A 
ATOM     22  C   UNL     1      -2.259  -1.018  24.950  0.00  0.00    +0.023 A 
ATOM     23  C   UNL     1      -4.284  -1.566  23.749  0.00  0.00    +0.023 A 
ATOM     24  C   UNL     1      -2.100  -2.360  25.293  0.00  0.00    +0.002 A 
ATOM     25  C   UNL     1      -4.124  -2.908  24.092  0.00  0.00    +0.002 A 
ATOM     26  C   UNL     1      -3.032  -3.306  24.865  0.00  0.00    +0.000 A 
ENDBRANCH   7  21
ENDBRANCH  18  20
ENDBRANCH  11  18
TORSDOF 8
ENDMDL
MODEL 5
REMARK VINA RESULT:      -4.9      2.367      5.847
REMARK  Name = 40777976
REMARK  8 active torsions:
REMARK  status: ('A' for Active; 'I' for Inactive)
REMARK    1  A    between atoms: O_2  and  C_9
REMARK    2  A    between atoms: O_3  and  C_10
REMARK    3  A    between atoms: N_6  and  C_15
REMARK    4  A    between atoms: N_7  and  C_21
REMARK    5  A    between atoms: C_8  and  C_15
REMARK    6  A    between atoms: C_11  and  C_18
REMARK    7  A    between atoms: C_12  and  C_19
REMARK    8  A    between atoms: C_18  and  C_20
REMARK                            x       y       z     vdW  Elec       q    Type
REMARK                         _______ _______ _______ _____ _____    ______ ____
ROOT
ATOM      1  O   UNL     1      -2.503   2.094  24.991  0.00  0.00    -0.366 OA
ATOM      8  C   UNL     1      -3.854   2.603  24.902  0.00  0.00    +0.167 C 
ATOM      9  C   UNL     1      -4.039   3.081  23.466  0.00  0.00    +0.176 C 
ATOM     10  C   UNL     1      -3.087   2.179  22.709  0.00  0.00    +0.175 C 
ATOM     11  C   UNL     1      -1.920   2.087  23.676  0.00  0.00    +0.159 C 
ENDROOT
BRANCH   9   2
ATOM      2  O   UNL     1      -3.601   4.437  23.391  0.00  0.00    -0.387 OA
ATOM     28  H   UNL     1      -3.947   4.898  24.176  0.00  0.00    +0.210 HD
ENDBRANCH   9   2
BRANCH  10   3
ATOM      3  O   UNL     1      -2.696   2.704  21.457  0.00  0.00    -0.387 OA
ATOM     29  H   UNL     1      -3.174   3.541  21.331  0.00  0.00    +0.210 HD
ENDBRANCH  10   3
BRANCH   8  15
ATOM     15  C   UNL     1      -4.803   1.474  25.281  0.00  0.00    +0.138 C 
BRANCH  15   6
ATOM      4  O   UNL     1      -4.654  -1.057  23.867  0.00  0.00    -0.276 OA
ATOM      6  N   UNL     1      -4.081   0.300  25.672  0.00  0.00    -0.313 N 
ATOM     19  C   UNL     1      -4.065  -0.877  24.930  0.00  0.00    +0.216 C 
ATOM     27  H   UNL     1      -3.538   0.349  26.530  0.00  0.00    +0.149 HD
BRANCH  19  12
ATOM     12  C   UNL     1      -3.213  -1.940  25.552  0.00  0.00    +0.075 C 
ATOM     13  C   UNL     1      -1.921  -1.330  26.107  0.00  0.00    +0.013 C 
ATOM     14  C   UNL     1      -2.784  -2.969  24.505  0.00  0.00    +0.013 C 
ATOM     16  C   UNL     1      -0.780  -2.092  25.441  0.00  0.00    +0.001 C 
ATOM     17  C   UNL     1      -1.368  -2.562  24.122  0.00  0.00    +0.001 C 
ENDBRANCH  19  12
ENDBRANCH  15   6
ENDBRANCH   8  15
BRANCH  11  18
ATOM     18  C   UNL     1      -1.084   0.832  23.495  0.00  0.00    +0.130 C 
BRANCH  18  20
ATOM      5  O   UNL     1       0.736   1.910  24.645  0.00  0.00    -0.275 OA
ATOM      7  N   UNL     1       1.184   0.131  23.177  0.00  0.00    -0.285 N 
ATOM     20  C   UNL     1       0.379   1.041  23.856  0.00  0.00    +0.220 C 
ATOM     30  H   UNL     1       0.729  -0.527  22.547  0.00  0.00    +0.155 HD
BRANCH   7  21
ATOM     21  C   UNL     1       2.592   0.007  23.245  0.00  0.00    +0.033 A 
ATOM     22  C   UNL     1       3.405   1.068  22.848  0.00  0.00    +0.023 A 
ATOM     23  C   UNL     1       3.166  -1.177  23.708  0.00  0.00    +0.023 A 
ATOM     24  C   UNL     1       4.793   0.946  22.914  0.00  0.00    +0.002 A 
ATOM     25  C   UNL     1       4.554  -1.300  23.774  0.00  0.00    +0.002 A 
ATOM     26  C   UNL     1       5.368  -0.238  23.377  0.00  0.00    +0.000 A 
ENDBRANCH   7  21
ENDBRANCH  18  20
ENDBRANCH  11  18
TORSDOF 8
ENDMDL
MODEL 6
REMARK VINA RESULT:      -3.7      2.142      6.456
REMARK  Name = 40777976
REMARK  8 active torsions:
REMARK  status: ('A' for Active; 'I' for Inactive)
REMARK    1  A    between atoms: O_2  and  C_9
REMARK    2  A    between atoms: O_3  and  C_10
REMARK    3  A    between atoms: N_6  and  C_15
REMARK    4  A    between atoms: N_7  and  C_21
REMARK    5  A    between atoms: C_8  and  C_15
REMARK    6  A    between atoms: C_11  and  C_18
REMARK    7  A    between atoms: C_12  and  C_19
REMARK    8  A    between atoms: C_18  and  C_20
REMARK                            x       y       z     vdW  Elec       q    Type
REMARK                         _______ _______ _______ _____ _____    ______ ____
ROOT
ATOM      1  O   UNL     1      -1.822  -1.309  24.008  0.00  0.00    -0.366 OA
ATOM      8  C   UNL     1      -2.626  -0.978  25.164  0.00  0.00    +0.167 C 
ATOM      9  C   UNL     1      -1.798  -0.008  25.999  0.00  0.00    +0.176 C 
ATOM     10  C   UNL     1      -0.948   0.670  24.945  0.00  0.00    +0.175 C 
ATOM     11  C   UNL     1      -0.641  -0.488  24.011  0.00  0.00    +0.159 C 
ENDROOT
BRANCH   9   2
ATOM      2  O   UNL     1      -0.977  -0.772  26.882  0.00  0.00    -0.387 OA
ATOM     28  H   UNL     1      -1.462  -1.588  27.096  0.00  0.00    +0.210 HD
ENDBRANCH   9   2
BRANCH  10   3
ATOM      3  O   UNL     1       0.227   1.256  25.466  0.00  0.00    -0.387 OA
ATOM     29  H   UNL     1       0.478   1.983  24.871  0.00  0.00    +0.210 HD
ENDBRANCH  10   3
BRANCH   8  15
ATOM     15  C   UNL     1      -3.930  -0.371  24.665  0.00  0.00    +0.138 C 
BRANCH  15   6
ATOM      4  O   UNL     1      -3.285   1.635  22.670  0.00  0.00    -0.276 OA
ATOM      6  N   UNL     1      -3.935   1.052  24.829  0.00  0.00    -0.313 N 
ATOM     19  C   UNL     1      -3.611   1.945  23.813  0.00  0.00    +0.216 C 
ATOM     27  H   UNL     1      -4.214   1.417  25.736  0.00  0.00    +0.149 HD
BRANCH  19  12
ATOM     12  C   UNL     1      -3.720   3.375  24.244  0.00  0.00    +0.075 C 
ATOM     13  C   UNL     1      -2.377   4.090  24.060  0.00  0.00    +0.013 C 
ATOM     14  C   UNL     1      -4.052   3.465  25.734  0.00  0.00    +0.013 C 
ATOM     16  C   UNL     1      -2.018   4.662  25.427  0.00  0.00    +0.001 C 
ATOM     17  C   UNL     1      -2.716   3.738  26.411  0.00  0.00    +0.001 C 
ENDBRANCH  19  12
ENDBRANCH  15   6
ENDBRANCH   8  15
BRANCH  11  18
ATOM     18  C   UNL     1      -0.320  -0.050  22.593  0.00  0.00    +0.130 C 
BRANCH  18  20
ATOM      5  O   UNL     1       1.498  -0.516  21.085  0.00  0.00    -0.275 OA
ATOM      7  N   UNL     1       1.951  -0.100  23.352  0.00  0.00    -0.285 N 
ATOM     20  C   UNL     1       1.143  -0.254  22.229  0.00  0.00    +0.220 C 
ATOM     30  H   UNL     1       1.496   0.112  24.239  0.00  0.00    +0.155 HD
BRANCH   7  21
ATOM     21  C   UNL     1       3.360  -0.212  23.423  0.00  0.00    +0.033 A 
ATOM     22  C   UNL     1       4.164   0.875  23.079  0.00  0.00    +0.023 A 
ATOM     23  C   UNL     1       3.944  -1.409  23.837  0.00  0.00    +0.023 A 
ATOM     24  C   UNL     1       5.552   0.764  23.148  0.00  0.00    +0.002 A 
ATOM     25  C   UNL     1       5.332  -1.520  23.906  0.00  0.00    +0.002 A 
ATOM     26  C   UNL     1       6.137  -0.433  23.562  0.00  0.00    +0.000 A 
ENDBRANCH   7  21
ENDBRANCH  18  20
ENDBRANCH  11  18
TORSDOF 8
ENDMDL
MODEL 7
REMARK VINA RESULT:      -3.2      2.236      5.860
REMARK  Name = 40777976
REMARK  8 active torsions:
REMARK  status: ('A' for Active; 'I' for Inactive)
REMARK    1  A    between atoms: O_2  and  C_9
REMARK    2  A    between atoms: O_3  and  C_10
REMARK    3  A    between atoms: N_6  and  C_15
REMARK    4  A    between atoms: N_7  and  C_21
REMARK    5  A    between atoms: C_8  and  C_15
REMARK    6  A    between atoms: C_11  and  C_18
REMARK    7  A    between atoms: C_12  and  C_19
REMARK    8  A    between atoms: C_18  and  C_20
REMARK                            x       y       z     vdW  Elec       q    Type
REMARK                         _______ _______ _______ _____ _____    ______ ____
ROOT
ATOM      1  O   UNL     1      -1.601   1.997  25.320  0.00  0.00    -0.366 OA
ATOM      8  C   UNL     1      -2.347   3.206  25.587  0.00  0.00    +0.167 C 
ATOM      9  C   UNL     1      -1.672   4.313  24.785  0.00  0.00    +0.176 C 
ATOM     10  C   UNL     1      -1.086   3.544  23.619  0.00  0.00    +0.175 C 
ATOM     11  C   UNL     1      -0.627   2.265  24.296  0.00  0.00    +0.159 C 
ENDROOT
BRANCH   9   2
ATOM      2  O   UNL     1      -0.629   4.868  25.586  0.00  0.00    -0.387 OA
ATOM     28  H   UNL     1      -0.932   5.739  25.895  0.00  0.00    +0.210 HD
ENDBRANCH   9   2
BRANCH  10   3
ATOM      3  O   UNL     1      -0.021   4.219  22.983  0.00  0.00    -0.387 OA
ATOM     29  H   UNL     1      -0.397   4.989  22.524  0.00  0.00    +0.210 HD
ENDBRANCH  10   3
BRANCH   8  15
ATOM     15  C   UNL     1      -3.791   2.964  25.170  0.00  0.00    +0.138 C 
BRANCH  15   6
ATOM      4  O   UNL     1      -3.665   0.824  23.213  0.00  0.00    -0.276 OA
ATOM      6  N   UNL     1      -4.160   1.592  25.355  0.00  0.00    -0.313 N 
ATOM     19  C   UNL     1      -4.067   0.628  24.357  0.00  0.00    +0.216 C 
ATOM     27  H   UNL     1      -4.486   1.316  26.277  0.00  0.00    +0.149 HD
BRANCH  19  12
ATOM     12  C   UNL     1      -4.493  -0.730  24.823  0.00  0.00    +0.075 C 
ATOM     13  C   UNL     1      -3.646  -1.172  26.021  0.00  0.00    +0.013 C 
ATOM     14  C   UNL     1      -4.264  -1.773  23.729  0.00  0.00    +0.013 C 
ATOM     16  C   UNL     1      -3.029  -2.509  25.625  0.00  0.00    +0.001 C 
ATOM     17  C   UNL     1      -2.954  -2.448  24.109  0.00  0.00    +0.001 C 
ENDBRANCH  19  12
ENDBRANCH  15   6
ENDBRANCH   8  15
BRANCH  11  18
ATOM     18  C   UNL     1      -0.539   1.080  23.351  0.00  0.00    +0.130 C 
BRANCH  18  20
ATOM      5  O   UNL     1       0.483  -0.923  24.213  0.00  0.00    -0.275 OA
ATOM      7  N   UNL     1       1.829   0.740  23.241  0.00  0.00    -0.285 N 
ATOM     20  C   UNL     1       0.635   0.164  23.664  0.00  0.00    +0.220 C 
ATOM     30  H   UNL     1       1.785   1.659  22.805  0.00  0.00    +0.155 HD
BRANCH   7  21
ATOM     21  C   UNL     1       3.133   0.201  23.353  0.00  0.00    +0.033 A 
ATOM     22  C   UNL     1       3.307  -1.145  23.673  0.00  0.00    +0.023 A 
ATOM     23  C   UNL     1       4.245   1.018  23.143  0.00  0.00    +0.023 A 
ATOM     24  C   UNL     1       4.591  -1.675  23.784  0.00  0.00    +0.002 A 
ATOM     25  C   UNL     1       5.530   0.487  23.254  0.00  0.00    +0.002 A 
ATOM     26  C   UNL     1       5.704  -0.860  23.575  0.00  0.00    +0.000 A 
ENDBRANCH   7  21
ENDBRANCH  18  20
ENDBRANCH  11  18
TORSDOF 8
ENDMDL
MODEL 8
REMARK VINA RESULT:      -3.1      2.097      5.221
REMARK  Name = 40777976
REMARK  8 active torsions:
REMARK  status: ('A' for Active; 'I' for Inactive)
REMARK    1  A    between atoms: O_2  and  C_9
REMARK    2  A    between atoms: O_3  and  C_10
REMARK    3  A    between atoms: N_6  and  C_15
REMARK    4  A    between atoms: N_7  and  C_21
REMARK    5  A    between atoms: C_8  and  C_15
REMARK    6  A    between atoms: C_11  and  C_18
REMARK    7  A    between atoms: C_12  and  C_19
REMARK    8  A    between atoms: C_18  and  C_20
REMARK                            x       y       z     vdW  Elec       q    Type
REMARK                         _______ _______ _______ _____ _____    ______ ____
ROOT
ATOM      1  O   UNL     1      -3.437   3.612  26.251  0.00  0.00    -0.366 OA
ATOM      8  C   UNL     1      -4.532   3.386  25.334  0.00  0.00    +0.167 C 
ATOM      9  C   UNL     1      -3.935   3.437  23.932  0.00  0.00    +0.176 C 
ATOM     10  C   UNL     1      -2.514   2.975  24.178  0.00  0.00    +0.175 C 
ATOM     11  C   UNL     1      -2.205   3.637  25.510  0.00  0.00    +0.159 C 
ENDROOT
BRANCH   9   2
ATOM      2  O   UNL     1      -3.947   4.795  23.495  0.00  0.00    -0.387 OA
ATOM     28  H   UNL     1      -3.973   5.356  24.290  0.00  0.00    +0.210 HD
ENDBRANCH   9   2
BRANCH  10   3
ATOM      3  O   UNL     1      -1.614   3.376  23.166  0.00  0.00    -0.387 OA
ATOM     29  H   UNL     1      -1.404   2.589  22.636  0.00  0.00    +0.210 HD
ENDBRANCH  10   3
BRANCH   8  15
ATOM     15  C   UNL     1      -5.150   2.035  25.670  0.00  0.00    +0.138 C 
BRANCH  15   6
ATOM      4  O   UNL     1      -3.994  -0.555  26.282  0.00  0.00    -0.276 OA
ATOM      6  N   UNL     1      -4.730   1.029  24.741  0.00  0.00    -0.313 N 
ATOM     19  C   UNL     1      -4.183  -0.192  25.125  0.00  0.00    +0.216 C 
ATOM     27  H   UNL     1      -4.864   1.219  23.752  0.00  0.00    +0.149 HD
BRANCH  19  12
ATOM     12  C   UNL     1      -3.853  -1.069  23.957  0.00  0.00    +0.075 C 
ATOM     13  C   UNL     1      -4.407  -2.481  24.178  0.00  0.00    +0.013 C 
ATOM     14  C   UNL     1      -2.339  -1.223  23.808  0.00  0.00    +0.013 C 
ATOM     16  C   UNL     1      -3.214  -3.422  24.051  0.00  0.00    +0.001 C 
ATOM     17  C   UNL     1      -2.023  -2.567  24.448  0.00  0.00    +0.001 C 
ENDBRANCH  19  12
ENDBRANCH  15   6
ENDBRANCH   8  15
BRANCH  11  18
ATOM     18  C   UNL     1      -1.120   2.926  26.299  0.00  0.00    +0.130 C 
BRANCH  18  20
ATOM      5  O   UNL     1      -0.904   0.585  25.778  0.00  0.00    -0.275 OA
ATOM      7  N   UNL     1       0.423   2.153  24.638  0.00  0.00    -0.285 N 
ATOM     20  C   UNL     1      -0.536   1.734  25.555  0.00  0.00    +0.220 C 
ATOM     30  H   UNL     1       0.620   3.150  24.579  0.00  0.00    +0.155 HD
BRANCH   7  21
ATOM     21  C   UNL     1       1.188   1.348  23.761  0.00  0.00    +0.033 A 
ATOM     22  C   UNL     1       0.589   0.278  23.096  0.00  0.00    +0.023 A 
ATOM     23  C   UNL     1       2.541   1.623  23.563  0.00  0.00    +0.023 A 
ATOM     24  C   UNL     1       1.343  -0.516  22.233  0.00  0.00    +0.002 A 
ATOM     25  C   UNL     1       3.295   0.829  22.700  0.00  0.00    +0.002 A 
ATOM     26  C   UNL     1       2.697  -0.241  22.034  0.00  0.00    +0.000 A 
ENDBRANCH   7  21
ENDBRANCH  18  20
ENDBRANCH  11  18
TORSDOF 8
ENDMDL
