MODEL 1
REMARK VINA RESULT:      -4.7      0.000      0.000
REMARK  Name = 75536789
REMARK  6 active torsions:
REMARK  status: ('A' for Active; 'I' for Inactive)
REMARK    1  A    between atoms: O_2  and  C_9
REMARK    2  A    between atoms: N_5  and  C_8
REMARK    3  A    between atoms: N_5  and  C_11
REMARK    4  A    between atoms: N_6  and  C_15
REMARK    5  A    between atoms: C_10  and  C_15
REMARK    6  A    between atoms: C_18  and  C_19
REMARK                            x       y       z     vdW  Elec       q    Type
REMARK                         _______ _______ _______ _____ _____    ______ ____
ROOT
ATOM      1  O   UNL     1      -1.384  -2.065  23.529  0.00  0.00    -0.371 OA
ATOM      8  C   UNL     1       0.104  -0.615  24.681  0.00  0.00    +0.111 C 
ATOM      9  C   UNL     1      -1.180  -0.745  25.480  0.00  0.00    +0.164 C 
ATOM     10  C   UNL     1      -1.744  -2.042  24.920  0.00  0.00    +0.165 C 
ATOM     12  C   UNL     1      -0.346  -1.093  23.310  0.00  0.00    +0.181 C 
ENDROOT
BRANCH   9   2
ATOM      2  O   UNL     1      -0.948  -0.827  26.874  0.00  0.00    -0.388 OA
ATOM     25  H   UNL     1      -1.016   0.067  27.248  0.00  0.00    +0.210 HD
ENDBRANCH   9   2
BRANCH   8   5
ATOM      5  N   UNL     1       0.645   0.734  24.660  0.00  0.00    -0.306 NA
ATOM     24  H   UNL     1       1.153   0.895  23.792  0.00  0.00    +0.123 HD
BRANCH   5  11
ATOM      3  O   UNL     1      -1.191   4.454  25.311  0.00  0.00    -0.380 OA
ATOM     11  C   UNL     1      -0.417   1.728  24.802  0.00  0.00    +0.058 C 
ATOM     13  C   UNL     1      -0.287   2.829  23.746  0.00  0.00    +0.047 C 
ATOM     14  C   UNL     1      -0.388   2.341  26.205  0.00  0.00    +0.047 C 
ATOM     16  C   UNL     1      -1.318   3.924  23.991  0.00  0.00    +0.161 C 
ATOM     17  C   UNL     1      -1.415   3.463  26.314  0.00  0.00    +0.161 C 
ENDBRANCH   5  11
ENDBRANCH   8   5
BRANCH  10  15
ATOM     15  C   UNL     1      -3.252  -2.151  25.061  0.00  0.00    +0.138 C 
BRANCH  15   6
ATOM      4  O   UNL     1      -3.831  -0.065  23.175  0.00  0.00    -0.270 OA
ATOM      6  N   UNL     1      -3.844  -0.876  25.348  0.00  0.00    -0.309 N 
ATOM     18  C   UNL     1      -4.089   0.079  24.367  0.00  0.00    +0.244 C 
ATOM     26  H   UNL     1      -4.019  -0.666  26.325  0.00  0.00    +0.149 HD
BRANCH  18  19
ATOM      7  N   UNL     1      -5.796   3.768  25.710  0.00  0.00    -0.263 NA
ATOM     19  C   UNL     1      -4.683   1.359  24.831  0.00  0.00    +0.040 A 
ATOM     20  C   UNL     1      -4.229   2.567  24.314  0.00  0.00    +0.033 A 
ATOM     21  C   UNL     1      -5.693   1.354  25.788  0.00  0.00    +0.033 A 
ATOM     22  C   UNL     1      -4.813   3.733  24.781  0.00  0.00    +0.111 A 
ATOM     23  C   UNL     1      -6.211   2.575  26.190  0.00  0.00    +0.111 A 
ENDBRANCH  18  19
ENDBRANCH  15   6
ENDBRANCH  10  15
TORSDOF 6
ENDMDL
MODEL 2
REMARK VINA RESULT:      -4.4      1.799      4.714
REMARK  Name = 75536789
REMARK  6 active torsions:
REMARK  status: ('A' for Active; 'I' for Inactive)
REMARK    1  A    between atoms: O_2  and  C_9
REMARK    2  A    between atoms: N_5  and  C_8
REMARK    3  A    between atoms: N_5  and  C_11
REMARK    4  A    between atoms: N_6  and  C_15
REMARK    5  A    between atoms: C_10  and  C_15
REMARK    6  A    between atoms: C_18  and  C_19
REMARK                            x       y       z     vdW  Elec       q    Type
REMARK                         _______ _______ _______ _____ _____    ______ ____
ROOT
ATOM      1  O   UNL     1       0.338   3.431  23.523  0.00  0.00    -0.371 OA
ATOM      8  C   UNL     1      -0.944   4.141  25.393  0.00  0.00    +0.111 C 
ATOM      9  C   UNL     1      -0.651   2.657  25.527  0.00  0.00    +0.164 C 
ATOM     10  C   UNL     1       0.552   2.511  24.607  0.00  0.00    +0.165 C 
ATOM     12  C   UNL     1      -0.685   4.365  23.912  0.00  0.00    +0.181 C 
ENDROOT
BRANCH   9   2
ATOM      2  O   UNL     1      -0.348   2.279  26.857  0.00  0.00    -0.388 OA
ATOM     25  H   UNL     1       0.606   2.103  26.914  0.00  0.00    +0.210 HD
ENDBRANCH   9   2
BRANCH   8   5
ATOM      5  N   UNL     1      -2.292   4.507  25.793  0.00  0.00    -0.306 NA
ATOM     24  H   UNL     1      -2.585   5.353  25.305  0.00  0.00    +0.123 HD
BRANCH   5  11
ATOM      3  O   UNL     1      -5.869   2.598  24.698  0.00  0.00    -0.380 OA
ATOM     11  C   UNL     1      -3.235   3.425  25.517  0.00  0.00    +0.058 C 
ATOM     13  C   UNL     1      -3.684   3.445  24.053  0.00  0.00    +0.047 C 
ATOM     14  C   UNL     1      -4.453   3.531  26.439  0.00  0.00    +0.047 C 
ATOM     16  C   UNL     1      -4.764   2.397  23.815  0.00  0.00    +0.161 C 
ATOM     17  C   UNL     1      -5.491   2.478  26.069  0.00  0.00    +0.161 C 
ENDBRANCH   5  11
ENDBRANCH   8   5
BRANCH  10  15
ATOM     15  C   UNL     1       0.724   1.105  24.060  0.00  0.00    +0.138 C 
BRANCH  15   6
ATOM      4  O   UNL     1       0.092  -1.432  25.247  0.00  0.00    -0.270 OA
ATOM      6  N   UNL     1      -0.533   0.415  23.990  0.00  0.00    -0.309 N 
ATOM     18  C   UNL     1      -0.750  -0.817  24.599  0.00  0.00    +0.244 C 
ATOM     26  H   UNL     1      -1.251   0.838  23.412  0.00  0.00    +0.149 HD
BRANCH  18  19
ATOM      7  N   UNL     1      -4.634  -2.533  24.050  0.00  0.00    -0.263 NA
ATOM     19  C   UNL     1      -2.099  -1.412  24.410  0.00  0.00    +0.040 A 
ATOM     20  C   UNL     1      -2.268  -2.790  24.473  0.00  0.00    +0.033 A 
ATOM     21  C   UNL     1      -3.196  -0.593  24.169  0.00  0.00    +0.033 A 
ATOM     22  C   UNL     1      -3.544  -3.296  24.288  0.00  0.00    +0.111 A 
ATOM     23  C   UNL     1      -4.431  -1.197  23.997  0.00  0.00    +0.111 A 
ENDBRANCH  18  19
ENDBRANCH  15   6
ENDBRANCH  10  15
TORSDOF 6
ENDMDL
MODEL 3
REMARK VINA RESULT:      -4.0      1.911      4.826
REMARK  Name = 75536789
REMARK  6 active torsions:
REMARK  status: ('A' for Active; 'I' for Inactive)
REMARK    1  A    between atoms: O_2  and  C_9
REMARK    2  A    between atoms: N_5  and  C_8
REMARK    3  A    between atoms: N_5  and  C_11
REMARK    4  A    between atoms: N_6  and  C_15
REMARK    5  A    between atoms: C_10  and  C_15
REMARK    6  A    between atoms: C_18  and  C_19
REMARK                            x       y       z     vdW  Elec       q    Type
REMARK                         _______ _______ _______ _____ _____    ______ ____
ROOT
ATOM      1  O   UNL     1      -3.473   3.968  26.006  0.00  0.00    -0.371 OA
ATOM      8  C   UNL     1      -1.329   3.780  25.000  0.00  0.00    +0.111 C 
ATOM      9  C   UNL     1      -2.355   3.103  24.110  0.00  0.00    +0.164 C 
ATOM     10  C   UNL     1      -3.641   3.758  24.594  0.00  0.00    +0.165 C 
ATOM     12  C   UNL     1      -2.075   3.844  26.323  0.00  0.00    +0.181 C 
ENDROOT
BRANCH   9   2
ATOM      2  O   UNL     1      -2.126   3.344  22.734  0.00  0.00    -0.388 OA
ATOM     25  H   UNL     1      -2.108   4.305  22.591  0.00  0.00    +0.210 HD
ENDBRANCH   9   2
BRANCH   8   5
ATOM      5  N   UNL     1      -0.071   3.058  25.095  0.00  0.00    -0.306 NA
ATOM     24  H   UNL     1       0.152   2.869  26.071  0.00  0.00    +0.123 HD
BRANCH   5  11
ATOM      3  O   UNL     1       0.814  -0.893  23.980  0.00  0.00    -0.380 OA
ATOM     11  C   UNL     1      -0.129   1.803  24.348  0.00  0.00    +0.058 C 
ATOM     13  C   UNL     1      -0.575   0.646  25.248  0.00  0.00    +0.047 C 
ATOM     14  C   UNL     1       1.235   1.488  23.729  0.00  0.00    +0.047 C 
ATOM     16  C   UNL     1      -0.502  -0.674  24.491  0.00  0.00    +0.161 C 
ATOM     17  C   UNL     1       1.209   0.120  23.055  0.00  0.00    +0.161 C 
ENDBRANCH   5  11
ENDBRANCH   8   5
BRANCH  10  15
ATOM     15  C   UNL     1      -4.876   2.911  24.345  0.00  0.00    +0.138 C 
BRANCH  15   6
ATOM      4  O   UNL     1      -5.126   0.886  26.365  0.00  0.00    -0.270 OA
ATOM      6  N   UNL     1      -4.540   1.522  24.212  0.00  0.00    -0.309 N 
ATOM     18  C   UNL     1      -4.694   0.608  25.249  0.00  0.00    +0.244 C 
ATOM     26  H   UNL     1      -4.114   1.239  23.336  0.00  0.00    +0.149 HD
BRANCH  18  19
ATOM      7  N   UNL     1      -3.482  -3.413  24.415  0.00  0.00    -0.263 NA
ATOM     19  C   UNL     1      -4.275  -0.788  24.961  0.00  0.00    +0.040 A 
ATOM     20  C   UNL     1      -3.583  -1.521  25.917  0.00  0.00    +0.033 A 
ATOM     21  C   UNL     1      -4.572  -1.366  23.731  0.00  0.00    +0.033 A 
ATOM     22  C   UNL     1      -3.213  -2.818  25.599  0.00  0.00    +0.111 A 
ATOM     23  C   UNL     1      -4.157  -2.669  23.509  0.00  0.00    +0.111 A 
ENDBRANCH  18  19
ENDBRANCH  15   6
ENDBRANCH  10  15
TORSDOF 6
ENDMDL
MODEL 4
REMARK VINA RESULT:      -3.8      2.090      4.891
REMARK  Name = 75536789
REMARK  6 active torsions:
REMARK  status: ('A' for Active; 'I' for Inactive)
REMARK    1  A    between atoms: O_2  and  C_9
REMARK    2  A    between atoms: N_5  and  C_8
REMARK    3  A    between atoms: N_5  and  C_11
REMARK    4  A    between atoms: N_6  and  C_15
REMARK    5  A    between atoms: C_10  and  C_15
REMARK    6  A    between atoms: C_18  and  C_19
REMARK                            x       y       z     vdW  Elec       q    Type
REMARK                         _______ _______ _______ _____ _____    ______ ____
ROOT
ATOM      1  O   UNL     1      -5.006   3.301  26.729  0.00  0.00    -0.371 OA
ATOM      8  C   UNL     1      -3.322   4.608  25.679  0.00  0.00    +0.111 C 
ATOM      9  C   UNL     1      -4.010   3.751  24.632  0.00  0.00    +0.164 C 
ATOM     10  C   UNL     1      -5.321   3.427  25.332  0.00  0.00    +0.165 C 
ATOM     12  C   UNL     1      -3.712   3.887  26.959  0.00  0.00    +0.181 C 
ENDROOT
BRANCH   9   2
ATOM      2  O   UNL     1      -4.218   4.442  23.414  0.00  0.00    -0.388 OA
ATOM     25  H   UNL     1      -4.806   3.906  22.856  0.00  0.00    +0.210 HD
ENDBRANCH   9   2
BRANCH   8   5
ATOM      5  N   UNL     1      -1.883   4.706  25.500  0.00  0.00    -0.306 NA
ATOM     24  H   UNL     1      -1.453   5.105  26.333  0.00  0.00    +0.123 HD
BRANCH   5  11
ATOM      3  O   UNL     1       1.048   1.782  24.801  0.00  0.00    -0.380 OA
ATOM     11  C   UNL     1      -1.299   3.396  25.220  0.00  0.00    +0.058 C 
ATOM     13  C   UNL     1      -0.403   2.934  26.373  0.00  0.00    +0.047 C 
ATOM     14  C   UNL     1      -0.495   3.439  23.917  0.00  0.00    +0.047 C 
ATOM     16  C   UNL     1       0.302   1.633  26.009  0.00  0.00    +0.161 C 
ATOM     17  C   UNL     1       0.215   2.109  23.689  0.00  0.00    +0.161 C 
ENDBRANCH   5  11
ENDBRANCH   8   5
BRANCH  10  15
ATOM     15  C   UNL     1      -5.967   2.146  24.835  0.00  0.00    +0.138 C 
BRANCH  15   6
ATOM      4  O   UNL     1      -3.782   1.404  23.126  0.00  0.00    -0.270 OA
ATOM      6  N   UNL     1      -5.092   1.021  25.002  0.00  0.00    -0.309 N 
ATOM     18  C   UNL     1      -4.054   0.736  24.120  0.00  0.00    +0.244 C 
ATOM     26  H   UNL     1      -5.305   0.389  25.767  0.00  0.00    +0.149 HD
BRANCH  18  19
ATOM      7  N   UNL     1      -1.751  -2.770  24.973  0.00  0.00    -0.263 NA
ATOM     19  C   UNL     1      -3.255  -0.480  24.418  0.00  0.00    +0.040 A 
ATOM     20  C   UNL     1      -1.906  -0.369  24.733  0.00  0.00    +0.033 A 
ATOM     21  C   UNL     1      -3.854  -1.735  24.381  0.00  0.00    +0.033 A 
ATOM     22  C   UNL     1      -1.204  -1.534  25.000  0.00  0.00    +0.111 A 
ATOM     23  C   UNL     1      -3.065  -2.839  24.664  0.00  0.00    +0.111 A 
ENDBRANCH  18  19
ENDBRANCH  15   6
ENDBRANCH  10  15
TORSDOF 6
ENDMDL
MODEL 5
REMARK VINA RESULT:      -3.7      2.130      6.259
REMARK  Name = 75536789
REMARK  6 active torsions:
REMARK  status: ('A' for Active; 'I' for Inactive)
REMARK    1  A    between atoms: O_2  and  C_9
REMARK    2  A    between atoms: N_5  and  C_8
REMARK    3  A    between atoms: N_5  and  C_11
REMARK    4  A    between atoms: N_6  and  C_15
REMARK    5  A    between atoms: C_10  and  C_15
REMARK    6  A    between atoms: C_18  and  C_19
REMARK                            x       y       z     vdW  Elec       q    Type
REMARK                         _______ _______ _______ _____ _____    ______ ____
ROOT
ATOM      1  O   UNL     1      -2.692   3.476  23.326  0.00  0.00    -0.371 OA
ATOM      8  C   UNL     1      -4.267   2.480  24.801  0.00  0.00    +0.111 C 
ATOM      9  C   UNL     1      -3.091   2.999  25.608  0.00  0.00    +0.164 C 
ATOM     10  C   UNL     1      -2.499   4.017  24.644  0.00  0.00    +0.165 C 
ATOM     12  C   UNL     1      -3.670   2.423  23.404  0.00  0.00    +0.181 C 
ENDROOT
BRANCH   9   2
ATOM      2  O   UNL     1      -3.489   3.597  26.828  0.00  0.00    -0.388 OA
ATOM     25  H   UNL     1      -3.809   4.495  26.638  0.00  0.00    +0.210 HD
ENDBRANCH   9   2
BRANCH   8   5
ATOM      5  N   UNL     1      -4.764   1.193  25.257  0.00  0.00    -0.306 NA
ATOM     24  H   UNL     1      -5.740   1.079  24.987  0.00  0.00    +0.123 HD
BRANCH   5  11
ATOM      3  O   UNL     1      -3.153  -2.661  24.832  0.00  0.00    -0.380 OA
ATOM     11  C   UNL     1      -3.968   0.098  24.708  0.00  0.00    +0.058 C 
ATOM     13  C   UNL     1      -4.864  -1.046  24.223  0.00  0.00    +0.047 C 
ATOM     14  C   UNL     1      -2.980  -0.420  25.757  0.00  0.00    +0.047 C 
ATOM     16  C   UNL     1      -4.016  -2.232  23.778  0.00  0.00    +0.161 C 
ATOM     17  C   UNL     1      -2.236  -1.641  25.227  0.00  0.00    +0.161 C 
ENDBRANCH   5  11
ENDBRANCH   8   5
BRANCH  10  15
ATOM     15  C   UNL     1      -1.022   4.280  24.879  0.00  0.00    +0.138 C 
BRANCH  15   6
ATOM      4  O   UNL     1      -0.115   1.693  25.733  0.00  0.00    -0.270 OA
ATOM      6  N   UNL     1      -0.204   3.368  24.131  0.00  0.00    -0.309 N 
ATOM     18  C   UNL     1       0.189   2.129  24.627  0.00  0.00    +0.244 C 
ATOM     26  H   UNL     1       0.139   3.696  23.235  0.00  0.00    +0.149 HD
BRANCH  18  19
ATOM      7  N   UNL     1       2.690  -0.219  22.065  0.00  0.00    -0.263 NA
ATOM     19  C   UNL     1       1.058   1.313  23.739  0.00  0.00    +0.040 A 
ATOM     20  C   UNL     1       2.386   1.670  23.543  0.00  0.00    +0.033 A 
ATOM     21  C   UNL     1       0.543   0.190  23.099  0.00  0.00    +0.033 A 
ATOM     22  C   UNL     1       3.154   0.878  22.704  0.00  0.00    +0.111 A 
ATOM     23  C   UNL     1       1.393  -0.535  22.280  0.00  0.00    +0.111 A 
ENDBRANCH  18  19
ENDBRANCH  15   6
ENDBRANCH  10  15
TORSDOF 6
ENDMDL
MODEL 6
REMARK VINA RESULT:      -3.0      1.837      4.199
REMARK  Name = 75536789
REMARK  6 active torsions:
REMARK  status: ('A' for Active; 'I' for Inactive)
REMARK    1  A    between atoms: O_2  and  C_9
REMARK    2  A    between atoms: N_5  and  C_8
REMARK    3  A    between atoms: N_5  and  C_11
REMARK    4  A    between atoms: N_6  and  C_15
REMARK    5  A    between atoms: C_10  and  C_15
REMARK    6  A    between atoms: C_18  and  C_19
REMARK                            x       y       z     vdW  Elec       q    Type
REMARK                         _______ _______ _______ _____ _____    ______ ____
ROOT
ATOM      1  O   UNL     1      -0.362   1.381  25.888  0.00  0.00    -0.371 OA
ATOM      8  C   UNL     1       0.090  -0.529  24.549  0.00  0.00    +0.111 C 
ATOM      9  C   UNL     1      -0.010   0.692  23.653  0.00  0.00    +0.164 C 
ATOM     10  C   UNL     1       0.236   1.812  24.654  0.00  0.00    +0.165 C 
ATOM     12  C   UNL     1      -0.604  -0.036  25.808  0.00  0.00    +0.181 C 
ENDROOT
BRANCH   9   2
ATOM      2  O   UNL     1       0.954   0.689  22.617  0.00  0.00    -0.388 OA
ATOM     25  H   UNL     1       1.834   0.599  23.019  0.00  0.00    +0.210 HD
ENDBRANCH   9   2
BRANCH   8   5
ATOM      5  N   UNL     1      -0.533  -1.716  23.988  0.00  0.00    -0.306 NA
ATOM     24  H   UNL     1      -0.003  -2.547  24.249  0.00  0.00    +0.123 HD
BRANCH   5  11
ATOM      3  O   UNL     1      -4.674  -2.390  23.818  0.00  0.00    -0.380 OA
ATOM     11  C   UNL     1      -1.916  -1.849  24.441  0.00  0.00    +0.058 C 
ATOM     13  C   UNL     1      -2.441  -3.267  24.204  0.00  0.00    +0.047 C 
ATOM     14  C   UNL     1      -2.810  -0.832  23.726  0.00  0.00    +0.047 C 
ATOM     16  C   UNL     1      -3.921  -3.352  24.557  0.00  0.00    +0.161 C 
ATOM     17  C   UNL     1      -4.270  -1.051  24.107  0.00  0.00    +0.161 C 
ENDBRANCH   5  11
ENDBRANCH   8   5
BRANCH  10  15
ATOM     15  C   UNL     1      -0.364   3.140  24.230  0.00  0.00    +0.138 C 
BRANCH  15   6
ATOM      4  O   UNL     1      -2.782   2.306  22.925  0.00  0.00    -0.270 OA
ATOM      6  N   UNL     1      -1.702   3.291  24.727  0.00  0.00    -0.309 N 
ATOM     18  C   UNL     1      -2.820   2.855  24.023  0.00  0.00    +0.244 C 
ATOM     26  H   UNL     1      -1.809   3.798  25.599  0.00  0.00    +0.149 HD
BRANCH  18  19
ATOM      7  N   UNL     1      -6.613   3.585  25.869  0.00  0.00    -0.263 NA
ATOM     19  C   UNL     1      -4.138   3.108  24.662  0.00  0.00    +0.040 A 
ATOM     20  C   UNL     1      -4.503   4.401  25.017  0.00  0.00    +0.033 A 
ATOM     21  C   UNL     1      -5.009   2.052  24.909  0.00  0.00    +0.033 A 
ATOM     22  C   UNL     1      -5.741   4.585  25.613  0.00  0.00    +0.111 A 
ATOM     23  C   UNL     1      -6.224   2.341  25.509  0.00  0.00    +0.111 A 
ENDBRANCH  18  19
ENDBRANCH  15   6
ENDBRANCH  10  15
TORSDOF 6
ENDMDL
MODEL 7
REMARK VINA RESULT:      -2.8      2.961      6.425
REMARK  Name = 75536789
REMARK  6 active torsions:
REMARK  status: ('A' for Active; 'I' for Inactive)
REMARK    1  A    between atoms: O_2  and  C_9
REMARK    2  A    between atoms: N_5  and  C_8
REMARK    3  A    between atoms: N_5  and  C_11
REMARK    4  A    between atoms: N_6  and  C_15
REMARK    5  A    between atoms: C_10  and  C_15
REMARK    6  A    between atoms: C_18  and  C_19
REMARK                            x       y       z     vdW  Elec       q    Type
REMARK                         _______ _______ _______ _____ _____    ______ ____
ROOT
ATOM      1  O   UNL     1      -0.419   0.592  25.251  0.00  0.00    -0.371 OA
ATOM      8  C   UNL     1      -2.534   1.429  24.564  0.00  0.00    +0.111 C 
ATOM      9  C   UNL     1      -2.352   0.027  24.012  0.00  0.00    +0.164 C 
ATOM     10  C   UNL     1      -1.278  -0.518  24.942  0.00  0.00    +0.165 C 
ATOM     12  C   UNL     1      -1.100   1.809  24.896  0.00  0.00    +0.181 C 
ENDROOT
BRANCH   9   2
ATOM      2  O   UNL     1      -3.540  -0.740  24.071  0.00  0.00    -0.388 OA
ATOM     25  H   UNL     1      -3.589  -1.289  23.270  0.00  0.00    +0.210 HD
ENDBRANCH   9   2
BRANCH   8   5
ATOM      5  N   UNL     1      -3.161   2.348  23.628  0.00  0.00    -0.306 NA
ATOM     24  H   UNL     1      -3.262   1.904  22.717  0.00  0.00    +0.123 HD
BRANCH   5  11
ATOM      3  O   UNL     1      -6.283   3.143  26.322  0.00  0.00    -0.380 OA
ATOM     11  C   UNL     1      -4.468   2.783  24.115  0.00  0.00    +0.058 C 
ATOM     13  C   UNL     1      -4.329   3.936  25.114  0.00  0.00    +0.047 C 
ATOM     14  C   UNL     1      -5.210   1.613  24.767  0.00  0.00    +0.047 C 
ATOM     16  C   UNL     1      -5.686   4.288  25.711  0.00  0.00    +0.161 C 
ATOM     17  C   UNL     1      -6.519   2.093  25.384  0.00  0.00    +0.161 C 
ENDBRANCH   5  11
ENDBRANCH   8   5
BRANCH  10  15
ATOM     15  C   UNL     1      -0.462  -1.640  24.325  0.00  0.00    +0.138 C 
BRANCH  15   6
ATOM      4  O   UNL     1       0.846  -0.224  22.197  0.00  0.00    -0.270 OA
ATOM      6  N   UNL     1       0.929  -1.296  24.253  0.00  0.00    -0.309 N 
ATOM     18  C   UNL     1       1.479  -0.605  23.178  0.00  0.00    +0.244 C 
ATOM     26  H   UNL     1       1.522  -1.642  25.000  0.00  0.00    +0.149 HD
BRANCH  18  19
ATOM      7  N   UNL     1       5.691   0.137  23.367  0.00  0.00    -0.263 NA
ATOM     19  C   UNL     1       2.941  -0.349  23.241  0.00  0.00    +0.040 A 
ATOM     20  C   UNL     1       3.795  -1.307  23.773  0.00  0.00    +0.033 A 
ATOM     21  C   UNL     1       3.460   0.853  22.771  0.00  0.00    +0.033 A 
ATOM     22  C   UNL     1       5.150  -1.019  23.813  0.00  0.00    +0.111 A 
ATOM     23  C   UNL     1       4.830   1.045  22.856  0.00  0.00    +0.111 A 
ENDBRANCH  18  19
ENDBRANCH  15   6
ENDBRANCH  10  15
TORSDOF 6
ENDMDL
MODEL 8
REMARK VINA RESULT:      -2.7      2.293      3.349
REMARK  Name = 75536789
REMARK  6 active torsions:
REMARK  status: ('A' for Active; 'I' for Inactive)
REMARK    1  A    between atoms: O_2  and  C_9
REMARK    2  A    between atoms: N_5  and  C_8
REMARK    3  A    between atoms: N_5  and  C_11
REMARK    4  A    between atoms: N_6  and  C_15
REMARK    5  A    between atoms: C_10  and  C_15
REMARK    6  A    between atoms: C_18  and  C_19
REMARK                            x       y       z     vdW  Elec       q    Type
REMARK                         _______ _______ _______ _____ _____    ______ ____
ROOT
ATOM      1  O   UNL     1      -1.602  -2.672  23.906  0.00  0.00    -0.371 OA
ATOM      8  C   UNL     1       0.085  -1.013  24.120  0.00  0.00    +0.111 C 
ATOM      9  C   UNL     1      -1.050  -0.691  25.074  0.00  0.00    +0.164 C 
ATOM     10  C   UNL     1      -1.725  -2.050  25.195  0.00  0.00    +0.165 C 
ATOM     12  C   UNL     1      -0.596  -1.969  23.154  0.00  0.00    +0.181 C 
ENDROOT
BRANCH   9   2
ATOM      2  O   UNL     1      -0.592  -0.215  26.325  0.00  0.00    -0.388 OA
ATOM     25  H   UNL     1      -0.571  -0.962  26.947  0.00  0.00    +0.210 HD
ENDBRANCH   9   2
BRANCH   8   5
ATOM      5  N   UNL     1       0.641   0.157  23.459  0.00  0.00    -0.306 NA
ATOM     24  H   UNL     1       0.639   0.952  24.096  0.00  0.00    +0.123 HD
BRANCH   5  11
ATOM      3  O   UNL     1       4.837   0.006  23.482  0.00  0.00    -0.380 OA
ATOM     11  C   UNL     1       2.002  -0.101  22.993  0.00  0.00    +0.058 C 
ATOM     13  C   UNL     1       2.717  -1.104  23.903  0.00  0.00    +0.047 C 
ATOM     14  C   UNL     1       2.798   1.206  22.927  0.00  0.00    +0.047 C 
ATOM     16  C   UNL     1       4.173  -1.258  23.482  0.00  0.00    +0.161 C 
ATOM     17  C   UNL     1       4.251   0.924  22.559  0.00  0.00    +0.161 C 
ENDBRANCH   5  11
ENDBRANCH   8   5
BRANCH  10  15
ATOM     15  C   UNL     1      -3.191  -1.960  25.583  0.00  0.00    +0.138 C 
BRANCH  15   6
ATOM      4  O   UNL     1      -4.023  -0.280  23.408  0.00  0.00    -0.270 OA
ATOM      6  N   UNL     1      -3.625  -0.595  25.672  0.00  0.00    -0.309 N 
ATOM     18  C   UNL     1      -4.012   0.146  24.559  0.00  0.00    +0.244 C 
ATOM     26  H   UNL     1      -3.575  -0.161  26.587  0.00  0.00    +0.149 HD
BRANCH  18  19
ATOM      7  N   UNL     1      -5.162   4.204  25.292  0.00  0.00    -0.263 NA
ATOM     19  C   UNL     1      -4.410   1.554  24.815  0.00  0.00    +0.040 A 
ATOM     20  C   UNL     1      -5.574   1.832  25.522  0.00  0.00    +0.033 A 
ATOM     21  C   UNL     1      -3.621   2.599  24.347  0.00  0.00    +0.033 A 
ATOM     22  C   UNL     1      -5.903   3.162  25.732  0.00  0.00    +0.111 A 
ATOM     23  C   UNL     1      -4.037   3.894  24.609  0.00  0.00    +0.111 A 
ENDBRANCH  18  19
ENDBRANCH  15   6
ENDBRANCH  10  15
TORSDOF 6
ENDMDL
MODEL 9
REMARK VINA RESULT:      -2.0      1.881      4.157
REMARK  Name = 75536789
REMARK  6 active torsions:
REMARK  status: ('A' for Active; 'I' for Inactive)
REMARK    1  A    between atoms: O_2  and  C_9
REMARK    2  A    between atoms: N_5  and  C_8
REMARK    3  A    between atoms: N_5  and  C_11
REMARK    4  A    between atoms: N_6  and  C_15
REMARK    5  A    between atoms: C_10  and  C_15
REMARK    6  A    between atoms: C_18  and  C_19
REMARK                            x       y       z     vdW  Elec       q    Type
REMARK                         _______ _______ _______ _____ _____    ______ ____
ROOT
ATOM      1  O   UNL     1      -0.091   1.815  25.670  0.00  0.00    -0.371 OA
ATOM      8  C   UNL     1       0.382  -0.292  24.678  0.00  0.00    +0.111 C 
ATOM      9  C   UNL     1       0.067   0.712  23.584  0.00  0.00    +0.164 C 
ATOM     10  C   UNL     1       0.320   2.026  24.309  0.00  0.00    +0.165 C 
ATOM     12  C   UNL     1      -0.207   0.398  25.897  0.00  0.00    +0.181 C 
ENDROOT
BRANCH   9   2
ATOM      2  O   UNL     1       0.903   0.564  22.452  0.00  0.00    -0.388 OA
ATOM     25  H   UNL     1       1.472   1.350  22.388  0.00  0.00    +0.210 HD
ENDBRANCH   9   2
BRANCH   8   5
ATOM      5  N   UNL     1      -0.186  -1.609  24.443  0.00  0.00    -0.306 NA
ATOM     24  H   UNL     1       0.082  -2.245  25.192  0.00  0.00    +0.123 HD
BRANCH   5  11
ATOM      3  O   UNL     1      -4.217  -2.406  25.308  0.00  0.00    -0.380 OA
ATOM     11  C   UNL     1      -1.643  -1.542  24.349  0.00  0.00    +0.058 C 
ATOM     13  C   UNL     1      -2.256  -1.012  25.649  0.00  0.00    +0.047 C 
ATOM     14  C   UNL     1      -2.219  -2.924  24.025  0.00  0.00    +0.047 C 
ATOM     16  C   UNL     1      -3.777  -1.075  25.583  0.00  0.00    +0.161 C 
ATOM     17  C   UNL     1      -3.743  -2.882  24.048  0.00  0.00    +0.161 C 
ENDBRANCH   5  11
ENDBRANCH   8   5
BRANCH  10  15
ATOM     15  C   UNL     1      -0.446   3.195  23.717  0.00  0.00    +0.138 C 
BRANCH  15   6
ATOM      4  O   UNL     1      -2.787   1.710  22.971  0.00  0.00    -0.270 OA
ATOM      6  N   UNL     1      -1.754   3.309  24.296  0.00  0.00    -0.309 N 
ATOM     18  C   UNL     1      -2.836   2.545  23.869  0.00  0.00    +0.244 C 
ATOM     26  H   UNL     1      -1.879   4.030  24.999  0.00  0.00    +0.149 HD
BRANCH  18  19
ATOM      7  N   UNL     1      -6.567   3.283  25.834  0.00  0.00    -0.263 NA
ATOM     19  C   UNL     1      -4.130   2.800  24.553  0.00  0.00    +0.040 A 
ATOM     20  C   UNL     1      -5.059   1.776  24.693  0.00  0.00    +0.033 A 
ATOM     21  C   UNL     1      -4.418   4.066  25.053  0.00  0.00    +0.033 A 
ATOM     22  C   UNL     1      -6.252   2.066  25.336  0.00  0.00    +0.111 A 
ATOM     23  C   UNL     1      -5.639   4.254  25.680  0.00  0.00    +0.111 A 
ENDBRANCH  18  19
ENDBRANCH  15   6
ENDBRANCH  10  15
TORSDOF 6
ENDMDL
MODEL 10
REMARK VINA RESULT:      -1.3      1.556      5.130
REMARK  Name = 75536789
REMARK  6 active torsions:
REMARK  status: ('A' for Active; 'I' for Inactive)
REMARK    1  A    between atoms: O_2  and  C_9
REMARK    2  A    between atoms: N_5  and  C_8
REMARK    3  A    between atoms: N_5  and  C_11
REMARK    4  A    between atoms: N_6  and  C_15
REMARK    5  A    between atoms: C_10  and  C_15
REMARK    6  A    between atoms: C_18  and  C_19
REMARK                            x       y       z     vdW  Elec       q    Type
REMARK                         _______ _______ _______ _____ _____    ______ ____
ROOT
ATOM      1  O   UNL     1      -0.350   4.217  24.437  0.00  0.00    -0.371 OA
ATOM      8  C   UNL     1      -2.329   4.624  25.687  0.00  0.00    +0.111 C 
ATOM      9  C   UNL     1      -1.720   3.309  26.138  0.00  0.00    +0.164 C 
ATOM     10  C   UNL     1      -0.282   3.475  25.667  0.00  0.00    +0.165 C 
ATOM     12  C   UNL     1      -1.652   4.822  24.341  0.00  0.00    +0.181 C 
ENDROOT
BRANCH   9   2
ATOM      2  O   UNL     1      -1.798   3.125  27.539  0.00  0.00    -0.388 OA
ATOM     25  H   UNL     1      -1.484   2.229  27.747  0.00  0.00    +0.210 HD
ENDBRANCH   9   2
BRANCH   8   5
ATOM      5  N   UNL     1      -3.779   4.592  25.591  0.00  0.00    -0.306 NA
ATOM     24  H   UNL     1      -4.125   5.474  25.214  0.00  0.00    +0.123 HD
BRANCH   5  11
ATOM      3  O   UNL     1      -4.016   0.710  24.007  0.00  0.00    -0.380 OA
ATOM     11  C   UNL     1      -4.226   3.485  24.749  0.00  0.00    +0.058 C 
ATOM     13  C   UNL     1      -4.835   2.361  25.592  0.00  0.00    +0.047 C 
ATOM     14  C   UNL     1      -3.058   2.943  23.919  0.00  0.00    +0.047 C 
ATOM     16  C   UNL     1      -5.172   1.161  24.714  0.00  0.00    +0.161 C 
ATOM     17  C   UNL     1      -3.494   1.711  23.133  0.00  0.00    +0.161 C 
ENDBRANCH   5  11
ENDBRANCH   8   5
BRANCH  10  15
ATOM     15  C   UNL     1       0.428   2.154  25.430  0.00  0.00    +0.138 C 
BRANCH  15   6
ATOM      4  O   UNL     1       0.246  -0.055  23.605  0.00  0.00    -0.270 OA
ATOM      6  N   UNL     1      -0.483   1.049  25.510  0.00  0.00    -0.309 N 
ATOM     18  C   UNL     1      -0.501   0.017  24.577  0.00  0.00    +0.244 C 
ATOM     26  H   UNL     1      -1.174   1.083  26.253  0.00  0.00    +0.149 HD
BRANCH  18  19
ATOM      7  N   UNL     1      -3.450  -3.027  25.179  0.00  0.00    -0.263 NA
ATOM     19  C   UNL     1      -1.523  -1.040  24.787  0.00  0.00    +0.040 A 
ATOM     20  C   UNL     1      -1.581  -2.134  23.931  0.00  0.00    +0.033 A 
ATOM     21  C   UNL     1      -2.426  -0.938  25.839  0.00  0.00    +0.033 A 
ATOM     22  C   UNL     1      -2.555  -3.091  24.167  0.00  0.00    +0.111 A 
ATOM     23  C   UNL     1      -3.362  -1.949  25.990  0.00  0.00    +0.111 A 
ENDBRANCH  18  19
ENDBRANCH  15   6
ENDBRANCH  10  15
TORSDOF 6
ENDMDL
