MODEL 1
REMARK VINA RESULT:      11.2      0.000      0.000
REMARK  Name = 7143918
REMARK  6 active torsions:
REMARK  status: ('A' for Active; 'I' for Inactive)
REMARK    1  A    between atoms: S_2  and  N_7
REMARK    2  A    between atoms: S_2  and  C_21
REMARK    3  A    between atoms: N_9  and  C_27
REMARK    4  A    between atoms: C_19  and  C_24
REMARK    5  A    between atoms: C_28  and  C_29
REMARK    6  A    between atoms: C_32  and  C_35
REMARK                            x       y       z     vdW  Elec       q    Type
REMARK                         _______ _______ _______ _____ _____    ______ ____
ROOT
ATOM      5  O   UNL     1      -0.394   2.951  26.360  0.00  0.00    -0.267 OA
ATOM      7  N   UNL     1      -5.206   2.563  25.155  0.00  0.00    -0.176 NA
ATOM      8  N   UNL     1      -2.212   3.570  25.038  0.00  0.00    -0.311 N 
ATOM     10  C   UNL     1      -4.286   4.724  26.004  0.00  0.00    +0.025 C 
ATOM     11  C   UNL     1      -4.180   4.213  23.604  0.00  0.00    +0.052 C 
ATOM     12  C   UNL     1      -4.421   5.331  24.615  0.00  0.00    +0.017 C 
ATOM     13  C   UNL     1      -5.327   3.610  26.209  0.00  0.00    +0.114 C 
ATOM     14  C   UNL     1      -5.258   3.126  23.773  0.00  0.00    +0.119 C 
ATOM     15  C   UNL     1      -2.848   4.222  26.191  0.00  0.00    +0.130 C 
ATOM     16  C   UNL     1      -2.796   3.615  23.770  0.00  0.00    +0.026 A 
ATOM     17  C   UNL     1      -2.143   3.113  22.711  0.00  0.00    +0.022 A 
ATOM     18  C   UNL     1      -0.946   2.991  25.258  0.00  0.00    +0.259 A 
ATOM     19  C   UNL     1      -0.249   2.412  24.056  0.00  0.00    +0.040 A 
ATOM     20  C   UNL     1      -0.853   2.502  22.863  0.00  0.00    +0.015 A 
ENDROOT
BRANCH   7   2
ATOM      2  S   UNL     1      -6.131   1.146  25.412  0.00  0.00    +0.061 S 
ATOM      3  O   UNL     1      -7.030   0.957  24.293  0.00  0.00    -0.153 OA
ATOM      4  O   UNL     1      -6.625   1.147  26.773  0.00  0.00    -0.153 OA
BRANCH   2  21
ATOM     21  C   UNL     1      -4.863  -0.077  25.296  0.00  0.00    +0.106 A 
ATOM     22  C   UNL     1      -4.780  -0.862  24.158  0.00  0.00    +0.030 A 
ATOM     23  C   UNL     1      -3.973  -0.231  26.346  0.00  0.00    +0.030 A 
ATOM     25  C   UNL     1      -3.778  -1.829  24.067  0.00  0.00    +0.025 A 
ATOM     26  C   UNL     1      -2.972  -1.197  26.255  0.00  0.00    +0.025 A 
ATOM     27  C   UNL     1      -2.874  -1.996  25.115  0.00  0.00    +0.033 A 
BRANCH  27   9
ATOM      6  O   UNL     1       0.104  -1.764  25.498  0.00  0.00    -0.276 OA
ATOM      9  N   UNL     1      -1.872  -2.962  25.025  0.00  0.00    -0.286 N 
ATOM     32  C   UNL     1      -0.493  -2.798  25.213  0.00  0.00    +0.214 C 
ATOM     35  C   UNL     1       0.255  -4.094  25.026  0.00  0.00    +0.109 C 
ATOM     37  H   UNL     1      -2.192  -3.899  24.794  0.00  0.00    +0.155 HD
ENDBRANCH  27   9
ENDBRANCH   2  21
ENDBRANCH   7   2
BRANCH  19  24
ATOM     24  C   UNL     1       1.041   1.787  24.203  0.00  0.00    +0.014 C 
ATOM     28  C   UNL     1       1.665   1.160  23.198  0.00  0.00    +0.008 C 
BRANCH  28  29
ATOM      1 CL   UNL     1       6.983  -1.508  23.619  0.00  0.00    -0.084 Cl
ATOM     29  C   UNL     1       2.979   0.501  23.302  0.00  0.00    -0.025 A 
ATOM     30  C   UNL     1       3.038  -0.850  23.607  0.00  0.00    +0.009 A 
ATOM     31  C   UNL     1       4.129   1.244  23.092  0.00  0.00    +0.009 A 
ATOM     33  C   UNL     1       4.281  -1.474  23.705  0.00  0.00    +0.020 A 
ATOM     34  C   UNL     1       5.373   0.620  23.191  0.00  0.00    +0.020 A 
ATOM     36  C   UNL     1       5.449  -0.739  23.498  0.00  0.00    +0.041 A 
ENDBRANCH  28  29
ENDBRANCH  19  24
TORSDOF 5
ENDMDL
