MODEL 1
REMARK VINA RESULT:      -4.9      0.000      0.000
REMARK  Name = 75536343
REMARK  9 active torsions:
REMARK  status: ('A' for Active; 'I' for Inactive)
REMARK    1  A    between atoms: O_2  and  C_9
REMARK    2  A    between atoms: O_5  and  C_23
REMARK    3  A    between atoms: O_5  and  C_24
REMARK    4  A    between atoms: N_6  and  C_13
REMARK    5  A    between atoms: N_6  and  C_14
REMARK    6  A    between atoms: C_8  and  C_13
REMARK    7  A    between atoms: C_10  and  C_15
REMARK    8  A    between atoms: C_15  and  C_20
REMARK    9  A    between atoms: C_22  and  C_23
REMARK                            x       y       z     vdW  Elec       q    Type
REMARK                         _______ _______ _______ _____ _____    ______ ____
ROOT
ATOM      1  O   UNL     1      -1.897   0.024  24.156  0.00  0.00    -0.369 OA
ATOM      8  C   UNL     1      -0.522  -0.232  24.472  0.00  0.00    +0.161 C 
ATOM      9  C   UNL     1      -0.387  -1.334  25.531  0.00  0.00    +0.145 C 
ATOM     10  C   UNL     1      -2.646  -1.119  23.732  0.00  0.00    +0.125 C 
ATOM     11  C   UNL     1      -1.204  -2.575  25.185  0.00  0.00    +0.036 C 
ATOM     12  C   UNL     1      -2.636  -2.200  24.813  0.00  0.00    +0.034 C 
ENDROOT
BRANCH   9   2
ATOM      2  O   UNL     1      -0.865  -0.831  26.782  0.00  0.00    -0.389 OA
ATOM     31  H   UNL     1      -0.588   0.098  26.850  0.00  0.00    +0.210 HD
ENDBRANCH   9   2
BRANCH   8  13
ATOM     13  C   UNL     1       0.289  -0.516  23.209  0.00  0.00    +0.115 C 
BRANCH  13   6
ATOM      6  N   UNL     1       1.246   0.548  22.956  0.00  0.00    -0.311 NA
ATOM     30  H   UNL     1       1.232   1.199  23.741  0.00  0.00    +0.122 HD
BRANCH   6  14
ATOM      3  O   UNL     1       5.206  -0.489  23.891  0.00  0.00    -0.380 OA
ATOM     14  C   UNL     1       2.595   0.012  22.787  0.00  0.00    +0.058 C 
ATOM     16  C   UNL     1       2.863  -1.127  23.775  0.00  0.00    +0.047 C 
ATOM     17  C   UNL     1       3.635   1.120  22.969  0.00  0.00    +0.047 C 
ATOM     18  C   UNL     1       4.315  -1.584  23.675  0.00  0.00    +0.161 C 
ATOM     19  C   UNL     1       5.043   0.540  22.915  0.00  0.00    +0.161 C 
ENDBRANCH   6  14
ENDBRANCH  13   6
ENDBRANCH   8  13
BRANCH  10  15
ATOM     15  C   UNL     1      -4.067  -0.654  23.444  0.00  0.00    +0.090 C 
BRANCH  15  20
ATOM      4  O   UNL     1      -5.314   1.659  25.910  0.00  0.00    -0.356 OA
ATOM      7  N   UNL     1      -5.147   0.378  25.399  0.00  0.00    -0.083 NA
ATOM     20  C   UNL     1      -4.442   0.543  24.277  0.00  0.00    +0.086 A 
ATOM     21  C   UNL     1      -4.138   1.894  24.031  0.00  0.00    +0.074 A 
ATOM     22  C   UNL     1      -4.709   2.553  25.087  0.00  0.00    +0.175 A 
BRANCH  22  23
ATOM     23  C   UNL     1      -4.788   3.965  25.481  0.00  0.00    +0.306 C 
BRANCH  23   5
ATOM      5  O   UNL     1      -3.732   4.286  26.390  0.00  0.00    -0.484 OA
BRANCH   5  24
ATOM     24  C   UNL     1      -2.457   4.126  25.923  0.00  0.00    +0.121 A 
ATOM     25  C   UNL     1      -1.895   5.089  25.085  0.00  0.00    +0.045 A 
ATOM     26  C   UNL     1      -1.718   3.000  26.286  0.00  0.00    +0.045 A 
ATOM     27  C   UNL     1      -0.595   4.925  24.609  0.00  0.00    +0.004 A 
ATOM     28  C   UNL     1      -0.417   2.838  25.810  0.00  0.00    +0.004 A 
ATOM     29  C   UNL     1       0.145   3.800  24.971  0.00  0.00    +0.000 A 
ENDBRANCH   5  24
ENDBRANCH  23   5
ENDBRANCH  22  23
ENDBRANCH  15  20
ENDBRANCH  10  15
TORSDOF 9
ENDMDL
MODEL 2
REMARK VINA RESULT:      -4.4      1.649      6.415
REMARK  Name = 75536343
REMARK  9 active torsions:
REMARK  status: ('A' for Active; 'I' for Inactive)
REMARK    1  A    between atoms: O_2  and  C_9
REMARK    2  A    between atoms: O_5  and  C_23
REMARK    3  A    between atoms: O_5  and  C_24
REMARK    4  A    between atoms: N_6  and  C_13
REMARK    5  A    between atoms: N_6  and  C_14
REMARK    6  A    between atoms: C_8  and  C_13
REMARK    7  A    between atoms: C_10  and  C_15
REMARK    8  A    between atoms: C_15  and  C_20
REMARK    9  A    between atoms: C_22  and  C_23
REMARK                            x       y       z     vdW  Elec       q    Type
REMARK                         _______ _______ _______ _____ _____    ______ ____
ROOT
ATOM      1  O   UNL     1      -3.452   2.019  25.610  0.00  0.00    -0.369 OA
ATOM      8  C   UNL     1      -4.755   1.427  25.506  0.00  0.00    +0.161 C 
ATOM      9  C   UNL     1      -5.859   2.491  25.572  0.00  0.00    +0.145 C 
ATOM     10  C   UNL     1      -3.170   3.040  24.648  0.00  0.00    +0.125 C 
ATOM     11  C   UNL     1      -5.606   3.651  24.614  0.00  0.00    +0.036 C 
ATOM     12  C   UNL     1      -4.182   4.180  24.760  0.00  0.00    +0.034 C 
ENDROOT
BRANCH   9   2
ATOM      2  O   UNL     1      -5.907   3.023  26.899  0.00  0.00    -0.389 OA
ATOM     31  H   UNL     1      -6.396   2.390  27.452  0.00  0.00    +0.210 HD
ENDBRANCH   9   2
BRANCH   8  13
ATOM     13  C   UNL     1      -4.857   0.537  24.269  0.00  0.00    +0.115 C 
BRANCH  13   6
ATOM      6  N   UNL     1      -4.566  -0.848  24.600  0.00  0.00    -0.311 NA
ATOM     30  H   UNL     1      -5.072  -1.455  23.955  0.00  0.00    +0.122 HD
BRANCH   6  14
ATOM      3  O   UNL     1      -0.847  -2.619  25.410  0.00  0.00    -0.380 OA
ATOM     14  C   UNL     1      -3.134  -1.120  24.509  0.00  0.00    +0.058 C 
ATOM     16  C   UNL     1      -2.874  -2.564  24.069  0.00  0.00    +0.047 C 
ATOM     17  C   UNL     1      -2.454  -0.852  25.855  0.00  0.00    +0.047 C 
ATOM     18  C   UNL     1      -1.380  -2.868  24.109  0.00  0.00    +0.161 C 
ATOM     19  C   UNL     1      -0.985  -1.251  25.796  0.00  0.00    +0.161 C 
ENDBRANCH   6  14
ENDBRANCH  13   6
ENDBRANCH   8  13
BRANCH  10  15
ATOM     15  C   UNL     1      -1.757   3.541  24.914  0.00  0.00    +0.090 C 
BRANCH  15  20
ATOM      4  O   UNL     1       1.181   1.502  24.469  0.00  0.00    -0.356 OA
ATOM      7  N   UNL     1       0.488   2.545  25.070  0.00  0.00    -0.083 NA
ATOM     20  C   UNL     1      -0.719   2.532  24.499  0.00  0.00    +0.086 A 
ATOM     21  C   UNL     1      -0.845   1.512  23.539  0.00  0.00    +0.074 A 
ATOM     22  C   UNL     1       0.377   0.895  23.558  0.00  0.00    +0.175 A 
BRANCH  22  23
ATOM     23  C   UNL     1       0.956  -0.237  22.825  0.00  0.00    +0.306 C 
BRANCH  23   5
ATOM      5  O   UNL     1       2.147   0.169  22.145  0.00  0.00    -0.484 OA
BRANCH   5  24
ATOM     24  C   UNL     1       3.327  -0.047  22.802  0.00  0.00    +0.121 A 
ATOM     25  C   UNL     1       3.589  -1.293  23.371  0.00  0.00    +0.045 A 
ATOM     26  C   UNL     1       4.267   0.977  22.901  0.00  0.00    +0.045 A 
ATOM     27  C   UNL     1       4.792  -1.514  24.041  0.00  0.00    +0.004 A 
ATOM     28  C   UNL     1       5.471   0.756  23.570  0.00  0.00    +0.004 A 
ATOM     29  C   UNL     1       5.733  -0.489  24.141  0.00  0.00    +0.000 A 
ENDBRANCH   5  24
ENDBRANCH  23   5
ENDBRANCH  22  23
ENDBRANCH  15  20
ENDBRANCH  10  15
TORSDOF 9
ENDMDL
MODEL 3
REMARK VINA RESULT:      -3.4      1.460      2.522
REMARK  Name = 75536343
REMARK  9 active torsions:
REMARK  status: ('A' for Active; 'I' for Inactive)
REMARK    1  A    between atoms: O_2  and  C_9
REMARK    2  A    between atoms: O_5  and  C_23
REMARK    3  A    between atoms: O_5  and  C_24
REMARK    4  A    between atoms: N_6  and  C_13
REMARK    5  A    between atoms: N_6  and  C_14
REMARK    6  A    between atoms: C_8  and  C_13
REMARK    7  A    between atoms: C_10  and  C_15
REMARK    8  A    between atoms: C_15  and  C_20
REMARK    9  A    between atoms: C_22  and  C_23
REMARK                            x       y       z     vdW  Elec       q    Type
REMARK                         _______ _______ _______ _____ _____    ______ ____
ROOT
ATOM      1  O   UNL     1      -1.012  -0.334  23.596  0.00  0.00    -0.369 OA
ATOM      8  C   UNL     1       0.048   0.462  23.049  0.00  0.00    +0.161 C 
ATOM      9  C   UNL     1       0.206   1.783  23.814  0.00  0.00    +0.145 C 
ATOM     10  C   UNL     1      -0.900  -0.619  24.993  0.00  0.00    +0.125 C 
ATOM     11  C   UNL     1       0.276   1.575  25.323  0.00  0.00    +0.036 C 
ATOM     12  C   UNL     1      -0.858   0.675  25.805  0.00  0.00    +0.034 C 
ENDROOT
BRANCH   9   2
ATOM      2  O   UNL     1      -0.927   2.612  23.539  0.00  0.00    -0.389 OA
ATOM     31  H   UNL     1      -0.816   2.974  22.644  0.00  0.00    +0.210 HD
ENDBRANCH   9   2
BRANCH   8  13
ATOM     13  C   UNL     1       1.347  -0.337  22.963  0.00  0.00    +0.115 C 
BRANCH  13   6
ATOM      6  N   UNL     1       2.368   0.407  22.243  0.00  0.00    -0.311 NA
ATOM     30  H   UNL     1       2.289   1.395  22.486  0.00  0.00    +0.122 HD
BRANCH   6  14
ATOM      3  O   UNL     1       5.724  -0.559  24.573  0.00  0.00    -0.380 OA
ATOM     14  C   UNL     1       3.705  -0.076  22.578  0.00  0.00    +0.058 C 
ATOM     16  C   UNL     1       3.636  -1.262  23.546  0.00  0.00    +0.047 C 
ATOM     17  C   UNL     1       4.541   1.051  23.190  0.00  0.00    +0.047 C 
ATOM     18  C   UNL     1       5.038  -1.667  23.987  0.00  0.00    +0.161 C 
ATOM     19  C   UNL     1       5.892   0.519  23.652  0.00  0.00    +0.161 C 
ENDBRANCH   6  14
ENDBRANCH  13   6
ENDBRANCH   8  13
BRANCH  10  15
ATOM     15  C   UNL     1      -2.103  -1.467  25.386  0.00  0.00    +0.090 C 
BRANCH  15  20
ATOM      4  O   UNL     1      -5.338  -0.463  24.155  0.00  0.00    -0.356 OA
ATOM      7  N   UNL     1      -4.271  -1.349  24.227  0.00  0.00    -0.083 NA
ATOM     20  C   UNL     1      -3.401  -0.776  25.063  0.00  0.00    +0.086 A 
ATOM     21  C   UNL     1      -3.861   0.462  25.546  0.00  0.00    +0.074 A 
ATOM     22  C   UNL     1      -5.082   0.612  24.945  0.00  0.00    +0.175 A 
BRANCH  22  23
ATOM     23  C   UNL     1      -6.115   1.655  24.987  0.00  0.00    +0.306 C 
BRANCH  23   5
ATOM      5  O   UNL     1      -5.739   2.689  25.902  0.00  0.00    -0.484 OA
BRANCH   5  24
ATOM     24  C   UNL     1      -4.610   3.395  25.591  0.00  0.00    +0.121 A 
ATOM     25  C   UNL     1      -3.660   3.659  26.577  0.00  0.00    +0.045 A 
ATOM     26  C   UNL     1      -4.410   3.851  24.289  0.00  0.00    +0.045 A 
ATOM     27  C   UNL     1      -2.509   4.380  26.260  0.00  0.00    +0.004 A 
ATOM     28  C   UNL     1      -3.259   4.572  23.972  0.00  0.00    +0.004 A 
ATOM     29  C   UNL     1      -2.308   4.837  24.957  0.00  0.00    +0.000 A 
ENDBRANCH   5  24
ENDBRANCH  23   5
ENDBRANCH  22  23
ENDBRANCH  15  20
ENDBRANCH  10  15
TORSDOF 9
ENDMDL
MODEL 4
REMARK VINA RESULT:      -3.0      1.766      6.683
REMARK  Name = 75536343
REMARK  9 active torsions:
REMARK  status: ('A' for Active; 'I' for Inactive)
REMARK    1  A    between atoms: O_2  and  C_9
REMARK    2  A    between atoms: O_5  and  C_23
REMARK    3  A    between atoms: O_5  and  C_24
REMARK    4  A    between atoms: N_6  and  C_13
REMARK    5  A    between atoms: N_6  and  C_14
REMARK    6  A    between atoms: C_8  and  C_13
REMARK    7  A    between atoms: C_10  and  C_15
REMARK    8  A    between atoms: C_15  and  C_20
REMARK    9  A    between atoms: C_22  and  C_23
REMARK                            x       y       z     vdW  Elec       q    Type
REMARK                         _______ _______ _______ _____ _____    ______ ____
ROOT
ATOM      1  O   UNL     1      -2.637   0.474  24.461  0.00  0.00    -0.369 OA
ATOM      8  C   UNL     1      -3.974   0.156  24.052  0.00  0.00    +0.161 C 
ATOM      9  C   UNL     1      -4.304  -1.318  24.320  0.00  0.00    +0.145 C 
ATOM     10  C   UNL     1      -2.329   0.171  25.825  0.00  0.00    +0.125 C 
ATOM     11  C   UNL     1      -3.952  -1.744  25.742  0.00  0.00    +0.036 C 
ATOM     12  C   UNL     1      -2.532  -1.318  26.104  0.00  0.00    +0.034 C 
ENDROOT
BRANCH   9   2
ATOM      2  O   UNL     1      -3.544  -2.130  23.420  0.00  0.00    -0.389 OA
ATOM     31  H   UNL     1      -4.056  -2.939  23.251  0.00  0.00    +0.210 HD
ENDBRANCH   9   2
BRANCH   8  13
ATOM     13  C   UNL     1      -4.983   1.117  24.679  0.00  0.00    +0.115 C 
BRANCH  13   6
ATOM      6  N   UNL     1      -5.055   2.358  23.926  0.00  0.00    -0.311 NA
ATOM     30  H   UNL     1      -6.028   2.661  23.882  0.00  0.00    +0.122 HD
BRANCH   6  14
ATOM      3  O   UNL     1      -1.971   4.119  26.165  0.00  0.00    -0.380 OA
ATOM     14  C   UNL     1      -4.245   3.399  24.553  0.00  0.00    +0.058 C 
ATOM     16  C   UNL     1      -2.814   3.389  24.005  0.00  0.00    +0.047 C 
ATOM     17  C   UNL     1      -4.226   3.217  26.073  0.00  0.00    +0.047 C 
ATOM     18  C   UNL     1      -1.950   4.391  24.764  0.00  0.00    +0.161 C 
ATOM     19  C   UNL     1      -3.283   4.227  26.716  0.00  0.00    +0.161 C 
ENDBRANCH   6  14
ENDBRANCH  13   6
ENDBRANCH   8  13
BRANCH  10  15
ATOM     15  C   UNL     1      -0.881   0.576  26.069  0.00  0.00    +0.090 C 
BRANCH  15  20
ATOM      4  O   UNL     1       1.128   1.423  23.200  0.00  0.00    -0.356 OA
ATOM      7  N   UNL     1       0.489   1.743  24.391  0.00  0.00    -0.083 NA
ATOM     20  C   UNL     1      -0.088   0.606  24.790  0.00  0.00    +0.086 A 
ATOM     21  C   UNL     1       0.152  -0.456  23.899  0.00  0.00    +0.074 A 
ATOM     22  C   UNL     1       0.920   0.111  22.917  0.00  0.00    +0.175 A 
BRANCH  22  23
ATOM     23  C   UNL     1       1.531  -0.399  21.683  0.00  0.00    +0.306 C 
BRANCH  23   5
ATOM      5  O   UNL     1       2.823   0.186  21.492  0.00  0.00    -0.484 OA
BRANCH   5  24
ATOM     24  C   UNL     1       3.749  -0.049  22.471  0.00  0.00    +0.121 A 
ATOM     25  C   UNL     1       3.829  -1.308  23.067  0.00  0.00    +0.045 A 
ATOM     26  C   UNL     1       4.612   0.969  22.872  0.00  0.00    +0.045 A 
ATOM     27  C   UNL     1       4.773  -1.547  24.065  0.00  0.00    +0.004 A 
ATOM     28  C   UNL     1       5.557   0.729  23.870  0.00  0.00    +0.004 A 
ATOM     29  C   UNL     1       5.637  -0.529  24.467  0.00  0.00    +0.000 A 
ENDBRANCH   5  24
ENDBRANCH  23   5
ENDBRANCH  22  23
ENDBRANCH  15  20
ENDBRANCH  10  15
TORSDOF 9
ENDMDL
MODEL 5
REMARK VINA RESULT:      -2.9      1.899      5.918
REMARK  Name = 75536343
REMARK  9 active torsions:
REMARK  status: ('A' for Active; 'I' for Inactive)
REMARK    1  A    between atoms: O_2  and  C_9
REMARK    2  A    between atoms: O_5  and  C_23
REMARK    3  A    between atoms: O_5  and  C_24
REMARK    4  A    between atoms: N_6  and  C_13
REMARK    5  A    between atoms: N_6  and  C_14
REMARK    6  A    between atoms: C_8  and  C_13
REMARK    7  A    between atoms: C_10  and  C_15
REMARK    8  A    between atoms: C_15  and  C_20
REMARK    9  A    between atoms: C_22  and  C_23
REMARK                            x       y       z     vdW  Elec       q    Type
REMARK                         _______ _______ _______ _____ _____    ______ ____
ROOT
ATOM      1  O   UNL     1      -4.353   2.304  24.237  0.00  0.00    -0.369 OA
ATOM      8  C   UNL     1      -4.557   3.492  25.015  0.00  0.00    +0.161 C 
ATOM      9  C   UNL     1      -5.894   3.446  25.765  0.00  0.00    +0.145 C 
ATOM     10  C   UNL     1      -4.432   1.077  24.969  0.00  0.00    +0.125 C 
ATOM     11  C   UNL     1      -6.087   2.140  26.530  0.00  0.00    +0.036 C 
ATOM     12  C   UNL     1      -5.799   0.936  25.638  0.00  0.00    +0.034 C 
ENDROOT
BRANCH   9   2
ATOM      2  O   UNL     1      -6.958   3.557  24.816  0.00  0.00    -0.389 OA
ATOM     31  H   UNL     1      -7.604   2.858  25.014  0.00  0.00    +0.210 HD
ENDBRANCH   9   2
BRANCH   8  13
ATOM     13  C   UNL     1      -3.366   3.757  25.935  0.00  0.00    +0.115 C 
BRANCH  13   6
ATOM      6  N   UNL     1      -2.430   4.683  25.318  0.00  0.00    -0.311 NA
ATOM     30  H   UNL     1      -2.448   5.563  25.835  0.00  0.00    +0.122 HD
BRANCH   6  14
ATOM      3  O   UNL     1       0.665   1.851  25.169  0.00  0.00    -0.380 OA
ATOM     14  C   UNL     1      -1.074   4.140  25.321  0.00  0.00    +0.058 C 
ATOM     16  C   UNL     1      -0.760   3.434  23.998  0.00  0.00    +0.047 C 
ATOM     17  C   UNL     1      -0.893   3.167  26.490  0.00  0.00    +0.047 C 
ATOM     18  C   UNL     1       0.606   2.760  24.070  0.00  0.00    +0.161 C 
ATOM     19  C   UNL     1       0.479   2.507  26.423  0.00  0.00    +0.161 C 
ENDBRANCH   6  14
ENDBRANCH  13   6
ENDBRANCH   8  13
BRANCH  10  15
ATOM     15  C   UNL     1      -4.191  -0.059  23.983  0.00  0.00    +0.090 C 
BRANCH  15  20
ATOM      4  O   UNL     1      -1.423  -2.234  24.758  0.00  0.00    -0.356 OA
ATOM      7  N   UNL     1      -2.781  -1.948  24.690  0.00  0.00    -0.083 NA
ATOM     20  C   UNL     1      -2.849  -0.708  24.198  0.00  0.00    +0.086 A 
ATOM     21  C   UNL     1      -1.578  -0.166  23.938  0.00  0.00    +0.074 A 
ATOM     22  C   UNL     1      -0.717  -1.165  24.308  0.00  0.00    +0.175 A 
BRANCH  22  23
ATOM     23  C   UNL     1       0.745  -1.297  24.310  0.00  0.00    +0.306 C 
BRANCH  23   5
ATOM      5  O   UNL     1       1.305  -0.625  23.178  0.00  0.00    -0.484 OA
BRANCH   5  24
ATOM     24  C   UNL     1       2.652  -0.392  23.213  0.00  0.00    +0.121 A 
ATOM     25  C   UNL     1       3.170   0.784  22.672  0.00  0.00    +0.045 A 
ATOM     26  C   UNL     1       3.506  -1.331  23.790  0.00  0.00    +0.045 A 
ATOM     27  C   UNL     1       4.544   1.021  22.708  0.00  0.00    +0.004 A 
ATOM     28  C   UNL     1       4.880  -1.093  23.827  0.00  0.00    +0.004 A 
ATOM     29  C   UNL     1       5.400   0.083  23.285  0.00  0.00    +0.000 A 
ENDBRANCH   5  24
ENDBRANCH  23   5
ENDBRANCH  22  23
ENDBRANCH  15  20
ENDBRANCH  10  15
TORSDOF 9
ENDMDL
