MODEL 1
REMARK VINA RESULT:       7.2      0.000      0.000
REMARK  Name = 40777229
REMARK  6 active torsions:
REMARK  status: ('A' for Active; 'I' for Inactive)
REMARK    1  A    between atoms: N_5  and  C_16
REMARK    2  A    between atoms: N_8  and  C_26
REMARK    3  A    between atoms: C_10  and  C_17
REMARK    4  A    between atoms: C_11  and  C_16
REMARK    5  A    between atoms: C_19  and  C_22
REMARK    6  A    between atoms: C_20  and  C_23
REMARK                            x       y       z     vdW  Elec       q    Type
REMARK                         _______ _______ _______ _____ _____    ______ ____
ROOT
ATOM      4  N   UNL     1      -2.715  -2.157  23.400  0.00  0.00    -0.297 NA
ATOM      9  C   UNL     1      -3.365  -1.564  25.851  0.00  0.00    +0.002 C 
ATOM     10  C   UNL     1      -4.178  -0.700  24.848  0.00  0.00    +0.055 C 
ATOM     11  C   UNL     1      -1.489  -1.907  24.205  0.00  0.00    +0.074 C 
ATOM     12  C   UNL     1      -1.857  -1.355  25.598  0.00  0.00    +0.024 C 
ATOM     13  C   UNL     1      -3.678  -3.040  25.523  0.00  0.00    +0.019 C 
ATOM     14  C   UNL     1      -3.596  -0.964  23.430  0.00  0.00    +0.094 C 
ATOM     15  C   UNL     1      -3.444  -3.287  24.023  0.00  0.00    +0.085 C 
ENDROOT
BRANCH  10  17
ATOM      6  N   UNL     1      -5.544   1.190  25.586  0.00  0.00    -0.237 NA
ATOM      7  N   UNL     1      -4.680   3.437  25.683  0.00  0.00    -0.232 NA
ATOM     17  C   UNL     1      -4.336   0.784  25.142  0.00  0.00    +0.050 A 
ATOM     18  C   UNL     1      -3.267   1.634  24.946  0.00  0.00    +0.052 A 
ATOM     19  C   UNL     1      -3.499   2.963  25.237  0.00  0.00    +0.076 A 
ATOM     20  C   UNL     1      -5.644   2.510  25.834  0.00  0.00    +0.127 A 
ATOM     23  C   UNL     1      -6.966   2.995  26.325  0.00  0.00    +0.088 C 
BRANCH  19  22
ATOM      1 BR   UNL     1      -0.520   1.903  25.713  0.00  0.00    -0.050 Br
ATOM     22  C   UNL     1      -2.463   3.954  25.072  0.00  0.00    +0.014 A 
ATOM     24  C   UNL     1      -1.113   3.648  25.245  0.00  0.00    +0.027 A 
ATOM     25  C   UNL     1      -2.845   5.251  24.729  0.00  0.00    +0.011 A 
ATOM     27  C   UNL     1      -0.146   4.638  25.076  0.00  0.00    +0.016 A 
ATOM     28  C   UNL     1      -1.878   6.241  24.560  0.00  0.00    +0.001 A 
ATOM     29  C   UNL     1      -0.528   5.935  24.733  0.00  0.00    +0.001 A 
ENDBRANCH  19  22
ENDBRANCH  10  17
BRANCH  11  16
ATOM     16  C   UNL     1      -0.490  -1.004  23.479  0.00  0.00    +0.124 C 
BRANCH  16   5
ATOM      3  O   UNL     1       1.982  -0.227  22.258  0.00  0.00    -0.253 OA
ATOM      5  N   UNL     1       0.841  -1.146  24.046  0.00  0.00    -0.298 N 
ATOM      8  N   UNL     1       3.119  -0.998  24.163  0.00  0.00    -0.269 N 
ATOM     21  C   UNL     1       1.993  -0.738  23.376  0.00  0.00    +0.304 C 
ATOM     35  H   UNL     1       0.929  -1.566  24.966  0.00  0.00    +0.150 HD
ATOM     36  H   UNL     1       2.954  -1.429  25.069  0.00  0.00    +0.156 HD
BRANCH   8  26
ATOM      2 CL   UNL     1       8.797   0.093  22.865  0.00  0.00    -0.084 Cl
ATOM     26  C   UNL     1       4.475  -0.737  23.852  0.00  0.00    +0.035 A 
ATOM     30  C   UNL     1       4.974   0.562  23.945  0.00  0.00    +0.025 A 
ATOM     31  C   UNL     1       5.312  -1.779  23.454  0.00  0.00    +0.025 A 
ATOM     32  C   UNL     1       6.310   0.819  23.639  0.00  0.00    +0.022 A 
ATOM     33  C   UNL     1       6.649  -1.522  23.148  0.00  0.00    +0.022 A 
ATOM     34  C   UNL     1       7.147  -0.223  23.241  0.00  0.00    +0.041 A 
ENDBRANCH   8  26
ENDBRANCH  16   5
ENDBRANCH  11  16
TORSDOF 5
ENDMDL
MODEL 2
REMARK VINA RESULT:       9.7      1.191      1.527
REMARK  Name = 40777229
REMARK  6 active torsions:
REMARK  status: ('A' for Active; 'I' for Inactive)
REMARK    1  A    between atoms: N_5  and  C_16
REMARK    2  A    between atoms: N_8  and  C_26
REMARK    3  A    between atoms: C_10  and  C_17
REMARK    4  A    between atoms: C_11  and  C_16
REMARK    5  A    between atoms: C_19  and  C_22
REMARK    6  A    between atoms: C_20  and  C_23
REMARK                            x       y       z     vdW  Elec       q    Type
REMARK                         _______ _______ _______ _____ _____    ______ ____
ROOT
ATOM      4  N   UNL     1      -2.693  -2.359  23.419  0.00  0.00    -0.297 NA
ATOM      9  C   UNL     1      -4.970  -1.738  24.520  0.00  0.00    +0.002 C 
ATOM     10  C   UNL     1      -4.367  -0.509  23.786  0.00  0.00    +0.055 C 
ATOM     11  C   UNL     1      -2.706  -2.796  24.841  0.00  0.00    +0.074 C 
ATOM     12  C   UNL     1      -3.958  -2.255  25.564  0.00  0.00    +0.024 C 
ATOM     13  C   UNL     1      -5.137  -2.850  23.462  0.00  0.00    +0.019 C 
ATOM     14  C   UNL     1      -2.930  -0.897  23.333  0.00  0.00    +0.094 C 
ATOM     15  C   UNL     1      -3.803  -3.050  22.722  0.00  0.00    +0.085 C 
ENDROOT
BRANCH  10  17
ATOM      6  N   UNL     1      -5.509   1.110  25.220  0.00  0.00    -0.237 NA
ATOM      7  N   UNL     1      -4.535   3.243  25.777  0.00  0.00    -0.232 NA
ATOM     17  C   UNL     1      -4.406   0.839  24.491  0.00  0.00    +0.050 A 
ATOM     18  C   UNL     1      -3.342   1.707  24.359  0.00  0.00    +0.052 A 
ATOM     19  C   UNL     1      -3.462   2.907  25.032  0.00  0.00    +0.076 A 
ATOM     20  C   UNL     1      -5.506   2.312  25.827  0.00  0.00    +0.127 A 
ATOM     23  C   UNL     1      -6.710   2.648  26.642  0.00  0.00    +0.088 C 
BRANCH  19  22
ATOM      1 BR   UNL     1      -0.497   1.793  25.471  0.00  0.00    -0.050 Br
ATOM     22  C   UNL     1      -2.420   3.902  24.972  0.00  0.00    +0.014 A 
ATOM     24  C   UNL     1      -1.074   3.575  25.144  0.00  0.00    +0.027 A 
ATOM     25  C   UNL     1      -2.790   5.225  24.735  0.00  0.00    +0.011 A 
ATOM     27  C   UNL     1      -0.100   4.571  25.079  0.00  0.00    +0.016 A 
ATOM     28  C   UNL     1      -1.816   6.222  24.670  0.00  0.00    +0.001 A 
ATOM     29  C   UNL     1      -0.471   5.894  24.842  0.00  0.00    +0.001 A 
ENDBRANCH  19  22
ENDBRANCH  10  17
BRANCH  11  16
ATOM     16  C   UNL     1      -1.418  -2.423  25.577  0.00  0.00    +0.124 C 
BRANCH  16   5
ATOM      3  O   UNL     1       1.446  -2.460  25.543  0.00  0.00    -0.253 OA
ATOM      5  N   UNL     1      -0.549  -1.627  24.726  0.00  0.00    -0.298 N 
ATOM      8  N   UNL     1       1.408  -0.833  23.850  0.00  0.00    -0.269 N 
ATOM     21  C   UNL     1       0.842  -1.711  24.778  0.00  0.00    +0.304 C 
ATOM     35  H   UNL     1      -0.978  -0.979  24.072  0.00  0.00    +0.150 HD
ATOM     36  H   UNL     1       0.763  -0.279  23.292  0.00  0.00    +0.156 HD
BRANCH   8  26
ATOM      2 CL   UNL     1       7.158   0.084  22.754  0.00  0.00    -0.084 Cl
ATOM     26  C   UNL     1       2.781  -0.613  23.588  0.00  0.00    +0.035 A 
ATOM     30  C   UNL     1       3.191   0.558  22.952  0.00  0.00    +0.025 A 
ATOM     31  C   UNL     1       3.724  -1.569  23.966  0.00  0.00    +0.025 A 
ATOM     32  C   UNL     1       4.545   0.774  22.694  0.00  0.00    +0.022 A 
ATOM     33  C   UNL     1       5.078  -1.354  23.707  0.00  0.00    +0.022 A 
ATOM     34  C   UNL     1       5.488  -0.182  23.072  0.00  0.00    +0.041 A 
ENDBRANCH   8  26
ENDBRANCH  16   5
ENDBRANCH  11  16
TORSDOF 5
ENDMDL
MODEL 3
REMARK VINA RESULT:      10.9      3.276      7.483
REMARK  Name = 40777229
REMARK  6 active torsions:
REMARK  status: ('A' for Active; 'I' for Inactive)
REMARK    1  A    between atoms: N_5  and  C_16
REMARK    2  A    between atoms: N_8  and  C_26
REMARK    3  A    between atoms: C_10  and  C_17
REMARK    4  A    between atoms: C_11  and  C_16
REMARK    5  A    between atoms: C_19  and  C_22
REMARK    6  A    between atoms: C_20  and  C_23
REMARK                            x       y       z     vdW  Elec       q    Type
REMARK                         _______ _______ _______ _____ _____    ______ ____
ROOT
ATOM      4  N   UNL     1      -4.406   4.698  23.886  0.00  0.00    -0.297 NA
ATOM      9  C   UNL     1      -2.208   5.716  24.844  0.00  0.00    +0.002 C 
ATOM     10  C   UNL     1      -1.896   4.459  23.985  0.00  0.00    +0.055 C 
ATOM     11  C   UNL     1      -4.547   4.927  25.348  0.00  0.00    +0.074 C 
ATOM     12  C   UNL     1      -3.192   5.333  25.969  0.00  0.00    +0.024 C 
ATOM     13  C   UNL     1      -2.939   6.715  23.922  0.00  0.00    +0.019 C 
ATOM     14  C   UNL     1      -3.257   3.798  23.620  0.00  0.00    +0.094 C 
ATOM     15  C   UNL     1      -4.126   6.006  23.246  0.00  0.00    +0.085 C 
ENDROOT
BRANCH  10  17
ATOM      6  N   UNL     1      -0.892   3.247  25.856  0.00  0.00    -0.237 NA
ATOM      7  N   UNL     1       0.893   1.658  25.547  0.00  0.00    -0.232 NA
ATOM     17  C   UNL     1      -0.891   3.452  24.522  0.00  0.00    +0.050 A 
ATOM     18  C   UNL     1      -0.040   2.807  23.649  0.00  0.00    +0.052 A 
ATOM     19  C   UNL     1       0.839   1.911  24.223  0.00  0.00    +0.076 A 
ATOM     20  C   UNL     1       0.012   2.350  26.294  0.00  0.00    +0.127 A 
ATOM     23  C   UNL     1       0.041   2.098  27.764  0.00  0.00    +0.088 C 
BRANCH  19  22
ATOM      1 BR   UNL     1      -0.376  -0.610  22.675  0.00  0.00    -0.050 Br
ATOM     22  C   UNL     1       1.783   1.173  23.419  0.00  0.00    +0.014 A 
ATOM     24  C   UNL     1       1.408   0.049  22.683  0.00  0.00    +0.027 A 
ATOM     25  C   UNL     1       3.105   1.615  23.390  0.00  0.00    +0.011 A 
ATOM     27  C   UNL     1       2.354  -0.633  21.919  0.00  0.00    +0.016 A 
ATOM     28  C   UNL     1       4.053   0.933  22.627  0.00  0.00    +0.001 A 
ATOM     29  C   UNL     1       3.677  -0.191  21.891  0.00  0.00    +0.001 A 
ENDBRANCH  19  22
ENDBRANCH  10  17
BRANCH  11  16
ATOM     16  C   UNL     1      -5.167   3.728  26.068  0.00  0.00    +0.124 C 
BRANCH  16   5
ATOM      3  O   UNL     1      -5.545   1.270  24.647  0.00  0.00    -0.253 OA
ATOM      5  N   UNL     1      -4.264   2.589  26.047  0.00  0.00    -0.298 N 
ATOM      8  N   UNL     1      -3.490   0.511  25.492  0.00  0.00    -0.269 N 
ATOM     21  C   UNL     1      -4.531   1.428  25.323  0.00  0.00    +0.304 C 
ATOM     35  H   UNL     1      -3.407   2.645  26.589  0.00  0.00    +0.150 HD
ATOM     36  H   UNL     1      -2.719   0.799  26.089  0.00  0.00    +0.156 HD
BRANCH   8  26
ATOM      2 CL   UNL     1      -3.004  -4.907  23.143  0.00  0.00    -0.084 Cl
ATOM     26  C   UNL     1      -3.373  -0.783  24.931  0.00  0.00    +0.035 A 
ATOM     30  C   UNL     1      -2.272  -1.580  25.241  0.00  0.00    +0.025 A 
ATOM     31  C   UNL     1      -4.360  -1.260  24.068  0.00  0.00    +0.025 A 
ATOM     32  C   UNL     1      -2.157  -2.856  24.688  0.00  0.00    +0.022 A 
ATOM     33  C   UNL     1      -4.245  -2.535  23.514  0.00  0.00    +0.022 A 
ATOM     34  C   UNL     1      -3.144  -3.333  23.825  0.00  0.00    +0.041 A 
ENDBRANCH   8  26
ENDBRANCH  16   5
ENDBRANCH  11  16
TORSDOF 5
ENDMDL
