MODEL 1
REMARK VINA RESULT:      14.3      0.000      0.000
REMARK  Name = 56776145
REMARK  10 active torsions:
REMARK  status: ('A' for Active; 'I' for Inactive)
REMARK    1  A    between atoms: O_3  and  C_19
REMARK    2  A    between atoms: N_7  and  C_26
REMARK    3  A    between atoms: N_7  and  C_28
REMARK    4  A    between atoms: N_7  and  C_30
REMARK    5  A    between atoms: N_8  and  C_29
REMARK    6  A    between atoms: N_8  and  C_31
REMARK    7  A    between atoms: N_8  and  C_32
REMARK    8  A    between atoms: C_10  and  C_15
REMARK    9  A    between atoms: C_15  and  C_19
REMARK   10  A    between atoms: C_28  and  C_29
REMARK                            x       y       z     vdW  Elec       q    Type
REMARK                         _______ _______ _______ _____ _____    ______ ____
ROOT
ATOM      1  O   UNL     1      -1.723   0.405  25.874  0.00  0.00    -0.492 OA
ATOM      2  O   UNL     1      -2.837   3.434  27.532  0.00  0.00    -0.274 OA
ATOM      5  N   UNL     1      -4.442   3.561  25.867  0.00  0.00    -0.300 N 
ATOM      6  N   UNL     1      -1.507   3.474  24.706  0.00  0.00    -0.304 NA
ATOM      9  C   UNL     1      -5.826   1.518  25.709  0.00  0.00    +0.010 C 
ATOM     10  C   UNL     1      -6.557   2.135  24.483  0.00  0.00    +0.006 C 
ATOM     11  C   UNL     1      -5.633   3.103  23.721  0.00  0.00    +0.023 C 
ATOM     12  C   UNL     1      -5.365   2.689  26.601  0.00  0.00    +0.111 C 
ATOM     13  C   UNL     1      -4.652   0.601  25.294  0.00  0.00    +0.008 C 
ATOM     14  C   UNL     1      -5.005   4.150  24.643  0.00  0.00    +0.108 C 
ATOM     16  C   UNL     1      -3.969  -0.152  26.447  0.00  0.00    +0.041 C 
ATOM     17  C   UNL     1      -3.176   3.806  26.402  0.00  0.00    +0.229 C 
ATOM     18  C   UNL     1      -2.617  -0.706  25.985  0.00  0.00    +0.229 C 
ATOM     20  C   UNL     1      -2.147   4.501  25.530  0.00  0.00    +0.178 C 
ATOM     21  C   UNL     1      -0.394   2.825  25.408  0.00  0.00    +0.120 C 
ATOM     22  C   UNL     1      -0.661   0.316  25.016  0.00  0.00    +0.125 A 
ATOM     23  C   UNL     1       0.018   1.525  24.749  0.00  0.00    +0.010 A 
ATOM     24  C   UNL     1       1.098   1.523  23.853  0.00  0.00    +0.031 A 
ATOM     25  C   UNL     1      -0.217  -0.872  24.426  0.00  0.00    +0.048 A 
ATOM     26  C   UNL     1       1.517   0.338  23.253  0.00  0.00    +0.030 A 
ATOM     27  C   UNL     1       0.867  -0.857  23.546  0.00  0.00    +0.027 A 
ATOM     33  H   UNL     1      -1.144   3.904  23.855  0.00  0.00    +0.123 HD
ENDROOT
BRANCH  26   7
ATOM      7  N   UNL     1       2.595   0.350  22.345  0.00  0.00    -0.332 N 
ATOM     30  C   UNL     1       2.486  -0.327  21.068  0.00  0.00    +0.129 C 
BRANCH   7  28
ATOM     28  C   UNL     1       3.824   1.045  22.673  0.00  0.00    +0.120 C 
BRANCH  28  29
ATOM     29  C   UNL     1       5.017   0.153  22.355  0.00  0.00    +0.102 C 
BRANCH  29   8
ATOM      8  N   UNL     1       5.528  -0.462  23.573  0.00  0.00    -0.307 NA
ATOM     31  C   UNL     1       5.538   0.503  24.675  0.00  0.00    +0.104 C 
ATOM     32  C   UNL     1       4.729  -1.634  23.934  0.00  0.00    +0.104 C 
ENDBRANCH  29   8
ENDBRANCH  28  29
ENDBRANCH   7  28
ENDBRANCH  26   7
BRANCH  10  15
ATOM     15  C   UNL     1      -7.146   1.091  23.536  0.00  0.00    +0.124 C 
BRANCH  15  19
ATOM      4  O   UNL     1      -8.803   1.331  21.765  0.00  0.00    -0.251 OA
ATOM     19  C   UNL     1      -8.419   1.576  22.897  0.00  0.00    +0.305 C 
BRANCH  19   3
ATOM      3  O   UNL     1      -9.107   2.348  23.778  0.00  0.00    -0.481 OA
ATOM     34  H   UNL     1      -8.530   2.693  24.491  0.00  0.00    +0.295 HD
ENDBRANCH  19   3
ENDBRANCH  15  19
ENDBRANCH  10  15
TORSDOF 7
ENDMDL
MODEL 2
REMARK VINA RESULT:      14.6      2.511      4.326
REMARK  Name = 56776145
REMARK  10 active torsions:
REMARK  status: ('A' for Active; 'I' for Inactive)
REMARK    1  A    between atoms: O_3  and  C_19
REMARK    2  A    between atoms: N_7  and  C_26
REMARK    3  A    between atoms: N_7  and  C_28
REMARK    4  A    between atoms: N_7  and  C_30
REMARK    5  A    between atoms: N_8  and  C_29
REMARK    6  A    between atoms: N_8  and  C_31
REMARK    7  A    between atoms: N_8  and  C_32
REMARK    8  A    between atoms: C_10  and  C_15
REMARK    9  A    between atoms: C_15  and  C_19
REMARK   10  A    between atoms: C_28  and  C_29
REMARK                            x       y       z     vdW  Elec       q    Type
REMARK                         _______ _______ _______ _____ _____    ______ ____
ROOT
ATOM      1  O   UNL     1      -1.036   0.179  22.341  0.00  0.00    -0.492 OA
ATOM      2  O   UNL     1      -3.791  -1.094  24.330  0.00  0.00    -0.274 OA
ATOM      5  N   UNL     1      -3.816   0.993  25.335  0.00  0.00    -0.300 N 
ATOM      6  N   UNL     1      -1.006  -0.424  25.576  0.00  0.00    -0.304 NA
ATOM      9  C   UNL     1      -4.062   2.839  23.707  0.00  0.00    +0.010 C 
ATOM     10  C   UNL     1      -3.925   3.856  24.876  0.00  0.00    +0.006 C 
ATOM     11  C   UNL     1      -3.066   3.275  26.013  0.00  0.00    +0.023 C 
ATOM     12  C   UNL     1      -4.684   1.555  24.294  0.00  0.00    +0.111 C 
ATOM     13  C   UNL     1      -2.712   2.567  23.002  0.00  0.00    +0.008 C 
ATOM     14  C   UNL     1      -3.557   1.898  26.464  0.00  0.00    +0.108 C 
ATOM     16  C   UNL     1      -2.794   1.677  21.751  0.00  0.00    +0.041 C 
ATOM     17  C   UNL     1      -3.377  -0.326  25.208  0.00  0.00    +0.229 C 
ATOM     18  C   UNL     1      -1.398   1.171  21.376  0.00  0.00    +0.229 C 
ATOM     20  C   UNL     1      -2.294  -0.819  26.148  0.00  0.00    +0.178 C 
ATOM     21  C   UNL     1      -0.522  -1.402  24.594  0.00  0.00    +0.120 C 
ATOM     22  C   UNL     1       0.291  -0.058  22.581  0.00  0.00    +0.125 A 
ATOM     23  C   UNL     1       0.580  -0.839  23.721  0.00  0.00    +0.010 A 
ATOM     24  C   UNL     1       1.918  -1.098  24.054  0.00  0.00    +0.031 A 
ATOM     25  C   UNL     1       1.336   0.401  21.772  0.00  0.00    +0.048 A 
ATOM     26  C   UNL     1       2.952  -0.617  23.254  0.00  0.00    +0.030 A 
ATOM     27  C   UNL     1       2.661   0.123  22.112  0.00  0.00    +0.027 A 
ATOM     33  H   UNL     1      -0.315  -0.350  26.323  0.00  0.00    +0.123 HD
ENDROOT
BRANCH  26   7
ATOM      7  N   UNL     1       4.293  -0.873  23.605  0.00  0.00    -0.332 N 
ATOM     30  C   UNL     1       4.693  -2.187  24.069  0.00  0.00    +0.129 C 
BRANCH   7  28
ATOM     28  C   UNL     1       5.292   0.172  23.500  0.00  0.00    +0.120 C 
BRANCH  28  29
ATOM     29  C   UNL     1       6.649  -0.372  23.926  0.00  0.00    +0.102 C 
BRANCH  29   8
ATOM      8  N   UNL     1       7.598  -0.291  22.822  0.00  0.00    -0.307 NA
ATOM     31  C   UNL     1       8.921   0.111  23.306  0.00  0.00    +0.104 C 
ATOM     32  C   UNL     1       7.683  -1.574  22.121  0.00  0.00    +0.104 C 
ENDBRANCH  29   8
ENDBRANCH  28  29
ENDBRANCH   7  28
ENDBRANCH  26   7
BRANCH  10  15
ATOM     15  C   UNL     1      -3.391   5.220  24.437  0.00  0.00    +0.124 C 
BRANCH  15  19
ATOM      4  O   UNL     1      -1.068   4.541  24.729  0.00  0.00    -0.251 OA
ATOM     19  C   UNL     1      -1.942   5.391  24.801  0.00  0.00    +0.305 C 
BRANCH  19   3
ATOM      3  O   UNL     1      -1.726   6.661  25.233  0.00  0.00    -0.481 OA
ATOM     34  H   UNL     1      -0.916   7.048  24.839  0.00  0.00    +0.295 HD
ENDBRANCH  19   3
ENDBRANCH  15  19
ENDBRANCH  10  15
TORSDOF 7
ENDMDL
MODEL 3
REMARK VINA RESULT:      18.1      2.061      2.413
REMARK  Name = 56776145
REMARK  10 active torsions:
REMARK  status: ('A' for Active; 'I' for Inactive)
REMARK    1  A    between atoms: O_3  and  C_19
REMARK    2  A    between atoms: N_7  and  C_26
REMARK    3  A    between atoms: N_7  and  C_28
REMARK    4  A    between atoms: N_7  and  C_30
REMARK    5  A    between atoms: N_8  and  C_29
REMARK    6  A    between atoms: N_8  and  C_31
REMARK    7  A    between atoms: N_8  and  C_32
REMARK    8  A    between atoms: C_10  and  C_15
REMARK    9  A    between atoms: C_15  and  C_19
REMARK   10  A    between atoms: C_28  and  C_29
REMARK                            x       y       z     vdW  Elec       q    Type
REMARK                         _______ _______ _______ _____ _____    ______ ____
ROOT
ATOM      1  O   UNL     1      -1.171   0.499  24.683  0.00  0.00    -0.492 OA
ATOM      2  O   UNL     1      -2.213   2.884  27.211  0.00  0.00    -0.274 OA
ATOM      5  N   UNL     1      -3.235   4.030  25.477  0.00  0.00    -0.300 N 
ATOM      6  N   UNL     1      -0.145   3.611  24.986  0.00  0.00    -0.304 NA
ATOM      9  C   UNL     1      -4.825   2.626  24.205  0.00  0.00    +0.010 C 
ATOM     10  C   UNL     1      -5.068   3.819  23.237  0.00  0.00    +0.006 C 
ATOM     11  C   UNL     1      -3.823   4.720  23.152  0.00  0.00    +0.023 C 
ATOM     12  C   UNL     1      -4.456   3.223  25.579  0.00  0.00    +0.111 C 
ATOM     13  C   UNL     1      -3.743   1.653  23.680  0.00  0.00    +0.008 C 
ATOM     14  C   UNL     1      -3.325   5.152  24.532  0.00  0.00    +0.108 C 
ATOM     16  C   UNL     1      -3.546   0.378  24.516  0.00  0.00    +0.041 C 
ATOM     17  C   UNL     1      -2.152   3.720  26.302  0.00  0.00    +0.229 C 
ATOM     18  C   UNL     1      -2.225  -0.299  24.137  0.00  0.00    +0.229 C 
ATOM     20  C   UNL     1      -0.820   4.392  26.024  0.00  0.00    +0.178 C 
ATOM     21  C   UNL     1       0.604   2.483  25.552  0.00  0.00    +0.120 C 
ATOM     22  C   UNL     1       0.063   0.458  24.093  0.00  0.00    +0.125 A 
ATOM     23  C   UNL     1       0.974   1.458  24.500  0.00  0.00    +0.010 A 
ATOM     24  C   UNL     1       2.249   1.503  23.917  0.00  0.00    +0.031 A 
ATOM     25  C   UNL     1       0.462  -0.501  23.156  0.00  0.00    +0.048 A 
ATOM     26  C   UNL     1       2.628   0.556  22.968  0.00  0.00    +0.030 A 
ATOM     27  C   UNL     1       1.739  -0.448  22.595  0.00  0.00    +0.027 A 
ATOM     33  H   UNL     1       0.510   4.213  24.486  0.00  0.00    +0.123 HD
ENDROOT
BRANCH  26   7
ATOM      7  N   UNL     1       3.907   0.619  22.379  0.00  0.00    -0.332 N 
ATOM     30  C   UNL     1       4.099   0.227  20.997  0.00  0.00    +0.129 C 
BRANCH   7  28
ATOM     28  C   UNL     1       5.046   1.083  23.146  0.00  0.00    +0.120 C 
BRANCH  28  29
ATOM     29  C   UNL     1       5.141   0.299  24.448  0.00  0.00    +0.102 C 
BRANCH  29   8
ATOM      8  N   UNL     1       5.811  -0.976  24.224  0.00  0.00    -0.307 NA
ATOM     31  C   UNL     1       4.836  -2.025  23.917  0.00  0.00    +0.104 C 
ATOM     32  C   UNL     1       6.789  -0.862  23.141  0.00  0.00    +0.104 C 
ENDBRANCH  29   8
ENDBRANCH  28  29
ENDBRANCH   7  28
ENDBRANCH  26   7
BRANCH  10  15
ATOM     15  C   UNL     1      -5.522   3.390  21.843  0.00  0.00    +0.124 C 
BRANCH  15  19
ATOM      4  O   UNL     1      -3.312   2.928  20.924  0.00  0.00    -0.251 OA
ATOM     19  C   UNL     1      -4.401   3.475  20.843  0.00  0.00    +0.305 C 
BRANCH  19   3
ATOM      3  O   UNL     1      -4.773   4.266  19.804  0.00  0.00    -0.481 OA
ATOM     34  H   UNL     1      -5.437   4.935  20.074  0.00  0.00    +0.295 HD
ENDBRANCH  19   3
ENDBRANCH  15  19
ENDBRANCH  10  15
TORSDOF 7
ENDMDL
