MODEL 1
REMARK VINA RESULT:       4.7      0.000      0.000
REMARK  Name = 11911959
REMARK  2 active torsions:
REMARK  status: ('A' for Active; 'I' for Inactive)
REMARK    1  A    between atoms: C_16  and  C_19
REMARK    2  A    between atoms: C_17  and  C_20
REMARK                            x       y       z     vdW  Elec       q    Type
REMARK                         _______ _______ _______ _____ _____    ______ ____
ROOT
ATOM      3  O   UNL     1       0.101   2.287  25.575  0.00  0.00    -0.267 OA
ATOM      4  O   UNL     1      -4.093  -0.041  27.064  0.00  0.00    -0.269 OA
ATOM      5  N   UNL     1      -4.750   1.334  25.317  0.00  0.00    -0.296 N 
ATOM      6  N   UNL     1      -1.951   2.529  24.491  0.00  0.00    -0.311 N 
ATOM      7  C   UNL     1      -3.962   3.677  25.591  0.00  0.00    +0.027 C 
ATOM      8  C   UNL     1      -4.181   2.715  23.336  0.00  0.00    +0.054 C 
ATOM      9  C   UNL     1      -4.391   3.983  24.160  0.00  0.00    +0.018 C 
ATOM     10  C   UNL     1      -2.462   3.353  25.598  0.00  0.00    +0.130 C 
ATOM     11  C   UNL     1      -4.806   2.524  26.167  0.00  0.00    +0.113 C 
ATOM     12  C   UNL     1      -5.062   1.580  23.899  0.00  0.00    +0.117 C 
ATOM     13  C   UNL     1      -2.727   2.284  23.354  0.00  0.00    +0.027 A 
ATOM     14  C   UNL     1      -2.203   1.628  22.307  0.00  0.00    +0.022 A 
ATOM     15  C   UNL     1      -0.618   2.085  24.595  0.00  0.00    +0.260 A 
ATOM     16  C   UNL     1      -4.339   0.104  25.866  0.00  0.00    +0.253 C 
ATOM     17  C   UNL     1      -0.074   1.326  23.418  0.00  0.00    +0.053 A 
ATOM     18  C   UNL     1      -0.852   1.142  22.342  0.00  0.00    +0.016 A 
ENDROOT
BRANCH  17  20
ATOM      1  S   UNL     1       1.527  -0.836  23.790  0.00  0.00    -0.088 S 
ATOM     20  C   UNL     1       1.259   0.812  23.435  0.00  0.00    +0.026 A 
ATOM     21  C   UNL     1       2.443   1.478  23.196  0.00  0.00    +0.024 A 
ATOM     23  C   UNL     1       3.597   0.632  23.302  0.00  0.00    -0.010 A 
ATOM     24  C   UNL     1       3.236  -0.679  23.627  0.00  0.00    +0.020 A 
ATOM     27  C   UNL     1       4.972   0.925  23.132  0.00  0.00    +0.009 A 
ATOM     28  C   UNL     1       4.202  -1.691  23.784  0.00  0.00    +0.015 A 
ATOM     29  C   UNL     1       5.933  -0.076  23.288  0.00  0.00    +0.001 A 
ATOM     30  C   UNL     1       5.550  -1.370  23.611  0.00  0.00    +0.001 A 
ENDBRANCH  17  20
BRANCH  16  19
ATOM      2  S   UNL     1      -3.133  -2.295  25.374  0.00  0.00    -0.092 S 
ATOM     19  C   UNL     1      -4.181  -1.014  24.947  0.00  0.00    +0.074 A 
ATOM     22  C   UNL     1      -4.776  -1.210  23.725  0.00  0.00    +0.021 A 
ATOM     25  C   UNL     1      -4.365  -2.436  23.125  0.00  0.00    +0.008 A 
ATOM     26  C   UNL     1      -3.472  -3.124  23.915  0.00  0.00    +0.046 A 
ENDBRANCH  16  19
TORSDOF 2
ENDMDL
