MODEL 1
REMARK VINA RESULT:      -5.7      0.000      0.000
REMARK  Name = 11943156
REMARK  6 active torsions:
REMARK  status: ('A' for Active; 'I' for Inactive)
REMARK    1  A    between atoms: N_4  and  C_15
REMARK    2  A    between atoms: N_7  and  C_23
REMARK    3  A    between atoms: N_7  and  C_24
REMARK    4  A    between atoms: C_9  and  C_16
REMARK    5  A    between atoms: C_10  and  C_15
REMARK    6  A    between atoms: C_22  and  C_23
REMARK                            x       y       z     vdW  Elec       q    Type
REMARK                         _______ _______ _______ _____ _____    ______ ____
ROOT
ATOM      2  N   UNL     1      -0.669   1.807  25.327  0.00  0.00    -0.297 NA
ATOM      8  C   UNL     1      -2.777   3.014  24.394  0.00  0.00    +0.005 C 
ATOM      9  C   UNL     1      -3.166   1.896  25.380  0.00  0.00    +0.092 C 
ATOM     10  C   UNL     1      -0.621   1.836  23.840  0.00  0.00    +0.078 C 
ATOM     11  C   UNL     1      -1.931   2.410  23.256  0.00  0.00    +0.025 C 
ATOM     12  C   UNL     1      -1.875   3.994  25.166  0.00  0.00    +0.020 C 
ATOM     13  C   UNL     1      -1.900   1.121  25.789  0.00  0.00    +0.097 C 
ATOM     14  C   UNL     1      -0.714   3.211  25.808  0.00  0.00    +0.085 C 
ENDROOT
BRANCH   9  16
ATOM      1  O   UNL     1      -5.294   1.441  24.412  0.00  0.00    -0.275 OA
ATOM      3  N   UNL     1      -3.869  -0.351  24.717  0.00  0.00    -0.301 N 
ATOM     16  C   UNL     1      -4.213   0.986  24.789  0.00  0.00    +0.220 C 
ATOM     17  C   UNL     1      -4.772  -1.358  24.178  0.00  0.00    +0.108 C 
ATOM     18  C   UNL     1      -2.608  -0.952  25.142  0.00  0.00    +0.108 C 
ATOM     19  C   UNL     1      -3.899  -2.588  23.986  0.00  0.00    +0.020 C 
ATOM     20  C   UNL     1      -2.870  -2.451  25.101  0.00  0.00    +0.020 C 
ENDBRANCH   9  16
BRANCH  10  15
ATOM     15  C   UNL     1      -0.282   0.470  23.242  0.00  0.00    +0.164 C 
BRANCH  15   4
ATOM      4  N   UNL     1       1.111   0.388  22.837  0.00  0.00    -0.250 N 
ATOM      5  N   UNL     1       1.450  -0.283  21.732  0.00  0.00    -0.065 NA
ATOM      6  N   UNL     1       2.771  -0.192  21.618  0.00  0.00    -0.133 NA
ATOM     21  C   UNL     1       2.181   0.928  23.466  0.00  0.00    +0.135 A 
ATOM     22  C   UNL     1       3.234   0.547  22.673  0.00  0.00    +0.097 A 
BRANCH  22  23
ATOM     23  C   UNL     1       4.665   0.830  22.834  0.00  0.00    +0.139 C 
BRANCH  23   7
ATOM      7  N   UNL     1       5.109   0.451  24.182  0.00  0.00    -0.314 NA
ATOM     24  C   UNL     1       5.409  -0.969  24.238  0.00  0.00    +0.101 C 
ATOM     25  H   UNL     1       4.369   0.659  24.852  0.00  0.00    +0.122 HD
ENDBRANCH  23   7
ENDBRANCH  22  23
ENDBRANCH  15   4
ENDBRANCH  10  15
TORSDOF 5
ENDMDL
MODEL 2
REMARK VINA RESULT:      -5.3      1.473      3.526
REMARK  Name = 11943156
REMARK  6 active torsions:
REMARK  status: ('A' for Active; 'I' for Inactive)
REMARK    1  A    between atoms: N_4  and  C_15
REMARK    2  A    between atoms: N_7  and  C_23
REMARK    3  A    between atoms: N_7  and  C_24
REMARK    4  A    between atoms: C_9  and  C_16
REMARK    5  A    between atoms: C_10  and  C_15
REMARK    6  A    between atoms: C_22  and  C_23
REMARK                            x       y       z     vdW  Elec       q    Type
REMARK                         _______ _______ _______ _____ _____    ______ ____
ROOT
ATOM      2  N   UNL     1      -2.221  -1.140  23.710  0.00  0.00    -0.297 NA
ATOM      8  C   UNL     1      -3.550  -1.187  25.946  0.00  0.00    +0.005 C 
ATOM      9  C   UNL     1      -4.347  -0.472  24.839  0.00  0.00    +0.092 C 
ATOM     10  C   UNL     1      -1.376  -0.610  24.814  0.00  0.00    +0.078 C 
ATOM     11  C   UNL     1      -2.190  -0.484  26.121  0.00  0.00    +0.025 C 
ATOM     12  C   UNL     1      -3.267  -2.613  25.440  0.00  0.00    +0.020 C 
ATOM     13  C   UNL     1      -3.465  -0.342  23.585  0.00  0.00    +0.097 C 
ATOM     14  C   UNL     1      -2.599  -2.534  24.055  0.00  0.00    +0.085 C 
ENDROOT
BRANCH   9  16
ATOM      1  O   UNL     1      -5.646   0.941  26.250  0.00  0.00    -0.275 OA
ATOM      3  N   UNL     1      -4.374   1.964  24.616  0.00  0.00    -0.301 N 
ATOM     16  C   UNL     1      -4.853   0.868  25.309  0.00  0.00    +0.220 C 
ATOM     17  C   UNL     1      -4.771   3.325  24.942  0.00  0.00    +0.108 C 
ATOM     18  C   UNL     1      -3.435   1.946  23.498  0.00  0.00    +0.108 C 
ATOM     19  C   UNL     1      -3.788   4.201  24.180  0.00  0.00    +0.020 C 
ATOM     20  C   UNL     1      -3.474   3.364  22.947  0.00  0.00    +0.020 C 
ENDBRANCH   9  16
BRANCH  10  15
ATOM     15  C   UNL     1      -0.690   0.706  24.442  0.00  0.00    +0.164 C 
BRANCH  15   4
ATOM      4  N   UNL     1       0.511   0.486  23.654  0.00  0.00    -0.250 N 
ATOM      5  N   UNL     1       0.506  -0.404  22.657  0.00  0.00    -0.065 NA
ATOM      6  N   UNL     1       1.725  -0.393  22.128  0.00  0.00    -0.133 NA
ATOM     21  C   UNL     1       1.712   1.092  23.803  0.00  0.00    +0.135 A 
ATOM     22  C   UNL     1       2.476   0.518  22.819  0.00  0.00    +0.097 A 
BRANCH  22  23
ATOM     23  C   UNL     1       3.881   0.765  22.474  0.00  0.00    +0.139 C 
BRANCH  23   7
ATOM      7  N   UNL     1       4.707   0.778  23.688  0.00  0.00    -0.314 NA
ATOM     24  C   UNL     1       5.377  -0.498  23.860  0.00  0.00    +0.101 C 
ATOM     25  H   UNL     1       4.114   0.953  24.499  0.00  0.00    +0.122 HD
ENDBRANCH  23   7
ENDBRANCH  22  23
ENDBRANCH  15   4
ENDBRANCH  10  15
TORSDOF 5
ENDMDL
MODEL 3
REMARK VINA RESULT:      -5.1      1.511      3.969
REMARK  Name = 11943156
REMARK  6 active torsions:
REMARK  status: ('A' for Active; 'I' for Inactive)
REMARK    1  A    between atoms: N_4  and  C_15
REMARK    2  A    between atoms: N_7  and  C_23
REMARK    3  A    between atoms: N_7  and  C_24
REMARK    4  A    between atoms: C_9  and  C_16
REMARK    5  A    between atoms: C_10  and  C_15
REMARK    6  A    between atoms: C_22  and  C_23
REMARK                            x       y       z     vdW  Elec       q    Type
REMARK                         _______ _______ _______ _____ _____    ______ ____
ROOT
ATOM      2  N   UNL     1      -2.467  -0.496  23.791  0.00  0.00    -0.297 NA
ATOM      8  C   UNL     1      -4.695  -0.724  25.115  0.00  0.00    +0.005 C 
ATOM      9  C   UNL     1      -4.629   0.619  24.362  0.00  0.00    +0.092 C 
ATOM     10  C   UNL     1      -2.182  -0.844  25.209  0.00  0.00    +0.078 C 
ATOM     11  C   UNL     1      -3.476  -0.835  26.051  0.00  0.00    +0.025 C 
ATOM     12  C   UNL     1      -4.564  -1.834  24.057  0.00  0.00    +0.020 C 
ATOM     13  C   UNL     1      -3.240   0.768  23.717  0.00  0.00    +0.097 C 
ATOM     14  C   UNL     1      -3.300  -1.581  23.214  0.00  0.00    +0.085 C 
ENDROOT
BRANCH   9  16
ATOM      1  O   UNL     1      -5.997   1.784  25.925  0.00  0.00    -0.275 OA
ATOM      3  N   UNL     1      -4.006   2.783  25.315  0.00  0.00    -0.301 N 
ATOM     16  C   UNL     1      -4.950   1.774  25.276  0.00  0.00    +0.220 C 
ATOM     17  C   UNL     1      -4.170   3.970  26.142  0.00  0.00    +0.108 C 
ATOM     18  C   UNL     1      -2.748   2.831  24.575  0.00  0.00    +0.108 C 
ATOM     19  C   UNL     1      -2.800   4.630  26.137  0.00  0.00    +0.020 C 
ATOM     20  C   UNL     1      -2.249   4.256  24.767  0.00  0.00    +0.020 C 
ENDBRANCH   9  16
BRANCH  10  15
ATOM     15  C   UNL     1      -1.099   0.046  25.821  0.00  0.00    +0.164 C 
BRANCH  15   4
ATOM      4  N   UNL     1      -0.067   0.385  24.855  0.00  0.00    -0.250 N 
ATOM      5  N   UNL     1       0.353   1.648  24.736  0.00  0.00    -0.065 NA
ATOM      6  N   UNL     1       1.282   1.655  23.787  0.00  0.00    -0.133 NA
ATOM     21  C   UNL     1       0.564  -0.455  24.001  0.00  0.00    +0.135 A 
ATOM     22  C   UNL     1       1.424   0.374  23.326  0.00  0.00    +0.097 A 
BRANCH  22  23
ATOM     23  C   UNL     1       2.383   0.048  22.264  0.00  0.00    +0.139 C 
BRANCH  23   7
ATOM      7  N   UNL     1       3.541   0.949  22.331  0.00  0.00    -0.314 NA
ATOM     24  C   UNL     1       4.627   0.326  23.067  0.00  0.00    +0.101 C 
ATOM     25  H   UNL     1       3.271   1.811  22.805  0.00  0.00    +0.122 HD
ENDBRANCH  23   7
ENDBRANCH  22  23
ENDBRANCH  15   4
ENDBRANCH  10  15
TORSDOF 5
ENDMDL
MODEL 4
REMARK VINA RESULT:      -4.6      2.643      4.875
REMARK  Name = 11943156
REMARK  6 active torsions:
REMARK  status: ('A' for Active; 'I' for Inactive)
REMARK    1  A    between atoms: N_4  and  C_15
REMARK    2  A    between atoms: N_7  and  C_23
REMARK    3  A    between atoms: N_7  and  C_24
REMARK    4  A    between atoms: C_9  and  C_16
REMARK    5  A    between atoms: C_10  and  C_15
REMARK    6  A    between atoms: C_22  and  C_23
REMARK                            x       y       z     vdW  Elec       q    Type
REMARK                         _______ _______ _______ _____ _____    ______ ____
ROOT
ATOM      2  N   UNL     1      -2.130  -2.259  23.971  0.00  0.00    -0.297 NA
ATOM      8  C   UNL     1      -3.579  -0.766  25.534  0.00  0.00    +0.005 C 
ATOM      9  C   UNL     1      -3.759  -0.366  24.056  0.00  0.00    +0.092 C 
ATOM     10  C   UNL     1      -1.284  -1.684  25.051  0.00  0.00    +0.078 C 
ATOM     11  C   UNL     1      -2.085  -0.673  25.902  0.00  0.00    +0.025 C 
ATOM     12  C   UNL     1      -3.988  -2.246  25.646  0.00  0.00    +0.020 C 
ATOM     13  C   UNL     1      -2.776  -1.176  23.191  0.00  0.00    +0.097 C 
ATOM     14  C   UNL     1      -3.197  -3.068  24.611  0.00  0.00    +0.085 C 
ENDROOT
BRANCH   9  16
ATOM      1  O   UNL     1      -2.741   1.550  23.074  0.00  0.00    -0.275 OA
ATOM      3  N   UNL     1      -4.400   1.921  24.637  0.00  0.00    -0.301 N 
ATOM     16  C   UNL     1      -3.579   1.118  23.868  0.00  0.00    +0.220 C 
ATOM     17  C   UNL     1      -4.345   3.375  24.577  0.00  0.00    +0.108 C 
ATOM     18  C   UNL     1      -5.412   1.475  25.591  0.00  0.00    +0.108 C 
ATOM     19  C   UNL     1      -5.598   3.834  25.307  0.00  0.00    +0.020 C 
ATOM     20  C   UNL     1      -5.806   2.738  26.344  0.00  0.00    +0.020 C 
ENDBRANCH   9  16
BRANCH  10  15
ATOM     15  C   UNL     1       0.011  -1.073  24.513  0.00  0.00    +0.164 C 
BRANCH  15   4
ATOM      4  N   UNL     1      -0.003   0.378  24.587  0.00  0.00    -0.250 N 
ATOM      5  N   UNL     1       0.527   1.106  23.600  0.00  0.00    -0.065 NA
ATOM      6  N   UNL     1       0.375   2.382  23.940  0.00  0.00    -0.133 NA
ATOM     21  C   UNL     1      -0.508   1.143  25.584  0.00  0.00    +0.135 A 
ATOM     22  C   UNL     1      -0.257   2.422  25.153  0.00  0.00    +0.097 A 
BRANCH  22  23
ATOM     23  C   UNL     1      -0.573   3.698  25.806  0.00  0.00    +0.139 C 
BRANCH  23   7
ATOM      7  N   UNL     1      -0.581   4.785  24.819  0.00  0.00    -0.314 NA
ATOM     24  C   UNL     1      -1.712   5.668  25.044  0.00  0.00    +0.101 C 
ATOM     25  H   UNL     1      -0.651   4.390  23.882  0.00  0.00    +0.122 HD
ENDBRANCH  23   7
ENDBRANCH  22  23
ENDBRANCH  15   4
ENDBRANCH  10  15
TORSDOF 5
ENDMDL
MODEL 5
REMARK VINA RESULT:      -4.4      1.572      2.805
REMARK  Name = 11943156
REMARK  6 active torsions:
REMARK  status: ('A' for Active; 'I' for Inactive)
REMARK    1  A    between atoms: N_4  and  C_15
REMARK    2  A    between atoms: N_7  and  C_23
REMARK    3  A    between atoms: N_7  and  C_24
REMARK    4  A    between atoms: C_9  and  C_16
REMARK    5  A    between atoms: C_10  and  C_15
REMARK    6  A    between atoms: C_22  and  C_23
REMARK                            x       y       z     vdW  Elec       q    Type
REMARK                         _______ _______ _______ _____ _____    ______ ____
ROOT
ATOM      2  N   UNL     1      -3.431   3.222  26.128  0.00  0.00    -0.297 NA
ATOM      8  C   UNL     1      -3.596   3.195  23.531  0.00  0.00    +0.005 C 
ATOM      9  C   UNL     1      -3.992   1.831  24.129  0.00  0.00    +0.092 C 
ATOM     10  C   UNL     1      -2.155   3.703  25.533  0.00  0.00    +0.078 C 
ATOM     11  C   UNL     1      -2.171   3.553  23.995  0.00  0.00    +0.025 C 
ATOM     12  C   UNL     1      -4.552   4.240  24.136  0.00  0.00    +0.020 C 
ATOM     13  C   UNL     1      -3.739   1.853  25.647  0.00  0.00    +0.097 C 
ATOM     14  C   UNL     1      -4.516   4.127  25.671  0.00  0.00    +0.085 C 
ENDROOT
BRANCH   9  16
ATOM      1  O   UNL     1      -2.732   0.873  22.350  0.00  0.00    -0.275 OA
ATOM      3  N   UNL     1      -3.218  -0.489  24.151  0.00  0.00    -0.301 N 
ATOM     16  C   UNL     1      -3.253   0.705  23.454  0.00  0.00    +0.220 C 
ATOM     17  C   UNL     1      -2.551  -1.673  23.632  0.00  0.00    +0.108 C 
ATOM     18  C   UNL     1      -3.811  -0.752  25.459  0.00  0.00    +0.108 C 
ATOM     19  C   UNL     1      -2.473  -2.618  24.822  0.00  0.00    +0.020 C 
ATOM     20  C   UNL     1      -3.722  -2.263  25.618  0.00  0.00    +0.020 C 
ENDBRANCH   9  16
BRANCH  10  15
ATOM     15  C   UNL     1      -0.931   3.031  26.157  0.00  0.00    +0.164 C 
BRANCH  15   4
ATOM      4  N   UNL     1      -0.439   1.937  25.338  0.00  0.00    -0.250 N 
ATOM      5  N   UNL     1      -0.633   0.671  25.721  0.00  0.00    -0.065 NA
ATOM      6  N   UNL     1      -0.079  -0.100  24.792  0.00  0.00    -0.133 NA
ATOM     21  C   UNL     1       0.237   2.028  24.168  0.00  0.00    +0.135 A 
ATOM     22  C   UNL     1       0.459   0.715  23.834  0.00  0.00    +0.097 A 
BRANCH  22  23
ATOM     23  C   UNL     1       1.150   0.162  22.662  0.00  0.00    +0.139 C 
BRANCH  23   7
ATOM      7  N   UNL     1       2.518  -0.232  23.019  0.00  0.00    -0.314 NA
ATOM     24  C   UNL     1       3.465   0.790  22.610  0.00  0.00    +0.101 C 
ATOM     25  H   UNL     1       2.752  -1.106  22.550  0.00  0.00    +0.122 HD
ENDBRANCH  23   7
ENDBRANCH  22  23
ENDBRANCH  15   4
ENDBRANCH  10  15
TORSDOF 5
ENDMDL
MODEL 6
REMARK VINA RESULT:      -4.2      2.258      5.922
REMARK  Name = 11943156
REMARK  6 active torsions:
REMARK  status: ('A' for Active; 'I' for Inactive)
REMARK    1  A    between atoms: N_4  and  C_15
REMARK    2  A    between atoms: N_7  and  C_23
REMARK    3  A    between atoms: N_7  and  C_24
REMARK    4  A    between atoms: C_9  and  C_16
REMARK    5  A    between atoms: C_10  and  C_15
REMARK    6  A    between atoms: C_22  and  C_23
REMARK                            x       y       z     vdW  Elec       q    Type
REMARK                         _______ _______ _______ _____ _____    ______ ____
ROOT
ATOM      2  N   UNL     1      -3.736  -1.490  25.917  0.00  0.00    -0.297 NA
ATOM      8  C   UNL     1      -2.125  -1.305  23.882  0.00  0.00    +0.005 C 
ATOM      9  C   UNL     1      -1.419  -0.900  25.191  0.00  0.00    +0.092 C 
ATOM     10  C   UNL     1      -4.365  -0.673  24.844  0.00  0.00    +0.078 C 
ATOM     11  C   UNL     1      -3.371  -0.419  23.689  0.00  0.00    +0.025 C 
ATOM     12  C   UNL     1      -2.615  -2.752  24.070  0.00  0.00    +0.020 C 
ATOM     13  C   UNL     1      -2.448  -0.886  26.335  0.00  0.00    +0.097 C 
ATOM     14  C   UNL     1      -3.456  -2.836  25.358  0.00  0.00    +0.085 C 
ENDROOT
BRANCH   9  16
ATOM      1  O   UNL     1      -1.099   1.404  25.698  0.00  0.00    -0.275 OA
ATOM      3  N   UNL     1       0.329   0.457  24.150  0.00  0.00    -0.301 N 
ATOM     16  C   UNL     1      -0.723   0.429  25.047  0.00  0.00    +0.220 C 
ATOM     17  C   UNL     1       1.099   1.665  23.892  0.00  0.00    +0.108 C 
ATOM     18  C   UNL     1       0.825  -0.660  23.351  0.00  0.00    +0.108 C 
ATOM     19  C   UNL     1       2.319   1.183  23.123  0.00  0.00    +0.020 C 
ATOM     20  C   UNL     1       1.782  -0.019  22.356  0.00  0.00    +0.020 C 
ENDBRANCH   9  16
BRANCH  10  15
ATOM     15  C   UNL     1      -4.960   0.631  25.379  0.00  0.00    +0.164 C 
BRANCH  15   4
ATOM      4  N   UNL     1      -4.302   1.797  24.815  0.00  0.00    -0.250 N 
ATOM      5  N   UNL     1      -3.916   1.798  23.536  0.00  0.00    -0.065 NA
ATOM      6  N   UNL     1      -3.348   2.977  23.307  0.00  0.00    -0.133 NA
ATOM     21  C   UNL     1      -4.003   2.956  25.448  0.00  0.00    +0.135 A 
ATOM     22  C   UNL     1      -3.393   3.698  24.468  0.00  0.00    +0.097 A 
BRANCH  22  23
ATOM     23  C   UNL     1      -2.841   5.057  24.544  0.00  0.00    +0.139 C 
BRANCH  23   7
ATOM      7  N   UNL     1      -1.673   5.081  25.433  0.00  0.00    -0.314 NA
ATOM     24  C   UNL     1      -0.467   4.748  24.697  0.00  0.00    +0.101 C 
ATOM     25  H   UNL     1      -1.803   4.400  26.181  0.00  0.00    +0.122 HD
ENDBRANCH  23   7
ENDBRANCH  22  23
ENDBRANCH  15   4
ENDBRANCH  10  15
TORSDOF 5
ENDMDL
MODEL 7
REMARK VINA RESULT:      -4.0      1.847      3.766
REMARK  Name = 11943156
REMARK  6 active torsions:
REMARK  status: ('A' for Active; 'I' for Inactive)
REMARK    1  A    between atoms: N_4  and  C_15
REMARK    2  A    between atoms: N_7  and  C_23
REMARK    3  A    between atoms: N_7  and  C_24
REMARK    4  A    between atoms: C_9  and  C_16
REMARK    5  A    between atoms: C_10  and  C_15
REMARK    6  A    between atoms: C_22  and  C_23
REMARK                            x       y       z     vdW  Elec       q    Type
REMARK                         _______ _______ _______ _____ _____    ______ ____
ROOT
ATOM      2  N   UNL     1      -2.737  -2.159  24.092  0.00  0.00    -0.297 NA
ATOM      8  C   UNL     1      -2.839  -0.161  25.755  0.00  0.00    +0.005 C 
ATOM      9  C   UNL     1      -3.818   0.040  24.582  0.00  0.00    +0.092 C 
ATOM     10  C   UNL     1      -1.368  -1.628  24.333  0.00  0.00    +0.078 C 
ATOM     11  C   UNL     1      -1.415  -0.348  25.196  0.00  0.00    +0.025 C 
ATOM     12  C   UNL     1      -3.237  -1.478  26.446  0.00  0.00    +0.020 C 
ATOM     13  C   UNL     1      -3.616  -1.090  23.557  0.00  0.00    +0.097 C 
ATOM     14  C   UNL     1      -3.289  -2.603  25.396  0.00  0.00    +0.085 C 
ENDROOT
BRANCH   9  16
ATOM      1  O   UNL     1      -2.960   1.541  22.945  0.00  0.00    -0.275 OA
ATOM      3  N   UNL     1      -4.303   2.437  24.597  0.00  0.00    -0.301 N 
ATOM     16  C   UNL     1      -3.649   1.401  23.957  0.00  0.00    +0.220 C 
ATOM     17  C   UNL     1      -4.233   3.811  24.123  0.00  0.00    +0.108 C 
ATOM     18  C   UNL     1      -5.134   2.337  25.793  0.00  0.00    +0.108 C 
ATOM     19  C   UNL     1      -5.325   4.536  24.894  0.00  0.00    +0.020 C 
ATOM     20  C   UNL     1      -5.363   3.782  26.217  0.00  0.00    +0.020 C 
ENDBRANCH   9  16
BRANCH  10  15
ATOM     15  C   UNL     1      -0.590  -1.410  23.034  0.00  0.00    +0.164 C 
BRANCH  15   4
ATOM      4  N   UNL     1       0.465  -0.424  23.194  0.00  0.00    -0.250 N 
ATOM      5  N   UNL     1       0.230   0.708  23.864  0.00  0.00    -0.065 NA
ATOM      6  N   UNL     1       1.359   1.407  23.844  0.00  0.00    -0.133 NA
ATOM     21  C   UNL     1       1.732  -0.496  22.724  0.00  0.00    +0.135 A 
ATOM     22  C   UNL     1       2.290   0.684  23.150  0.00  0.00    +0.097 A 
BRANCH  22  23
ATOM     23  C   UNL     1       3.653   1.189  22.949  0.00  0.00    +0.139 C 
BRANCH  23   7
ATOM      7  N   UNL     1       4.620   0.087  23.031  0.00  0.00    -0.314 NA
ATOM     24  C   UNL     1       5.517   0.280  24.156  0.00  0.00    +0.101 C 
ATOM     25  H   UNL     1       5.169   0.055  22.172  0.00  0.00    +0.122 HD
ENDBRANCH  23   7
ENDBRANCH  22  23
ENDBRANCH  15   4
ENDBRANCH  10  15
TORSDOF 5
ENDMDL
MODEL 8
REMARK VINA RESULT:      -3.4     14.131     17.277
REMARK  Name = 11943156
REMARK  6 active torsions:
REMARK  status: ('A' for Active; 'I' for Inactive)
REMARK    1  A    between atoms: N_4  and  C_15
REMARK    2  A    between atoms: N_7  and  C_23
REMARK    3  A    between atoms: N_7  and  C_24
REMARK    4  A    between atoms: C_9  and  C_16
REMARK    5  A    between atoms: C_10  and  C_15
REMARK    6  A    between atoms: C_22  and  C_23
REMARK                            x       y       z     vdW  Elec       q    Type
REMARK                         _______ _______ _______ _____ _____    ______ ____
ROOT
ATOM      2  N   UNL     1      15.632   6.750  19.174  0.00  0.00    -0.297 NA
ATOM      8  C   UNL     1      16.277   7.489  21.584  0.00  0.00    +0.005 C 
ATOM      9  C   UNL     1      14.800   7.057  21.510  0.00  0.00    +0.092 C 
ATOM     10  C   UNL     1      16.267   8.095  19.140  0.00  0.00    +0.078 C 
ATOM     11  C   UNL     1      16.521   8.623  20.569  0.00  0.00    +0.025 C 
ATOM     12  C   UNL     1      17.117   6.280  21.132  0.00  0.00    +0.020 C 
ATOM     13  C   UNL     1      14.430   6.771  20.043  0.00  0.00    +0.097 C 
ATOM     14  C   UNL     1      16.610   5.799  19.759  0.00  0.00    +0.085 C 
ENDROOT
BRANCH   9  16
ATOM      1  O   UNL     1      14.372   9.093  22.668  0.00  0.00    -0.275 OA
ATOM      3  N   UNL     1      12.541   7.840  22.027  0.00  0.00    -0.301 N 
ATOM     16  C   UNL     1      13.896   8.097  22.122  0.00  0.00    +0.220 C 
ATOM     17  C   UNL     1      11.538   8.742  22.574  0.00  0.00    +0.108 C 
ATOM     18  C   UNL     1      11.915   6.684  21.392  0.00  0.00    +0.108 C 
ATOM     19  C   UNL     1      10.226   8.261  21.974  0.00  0.00    +0.020 C 
ATOM     20  C   UNL     1      10.455   6.764  21.816  0.00  0.00    +0.020 C 
ENDBRANCH   9  16
BRANCH  10  15
ATOM     15  C   UNL     1      15.472   9.094  18.297  0.00  0.00    +0.164 C 
BRANCH  15   4
ATOM      4  N   UNL     1      14.169   8.571  17.925  0.00  0.00    -0.250 N 
ATOM      5  N   UNL     1      14.069   7.618  16.993  0.00  0.00    -0.065 NA
ATOM      6  N   UNL     1      12.775   7.345  16.861  0.00  0.00    -0.133 NA
ATOM     21  C   UNL     1      12.965   8.942  18.420  0.00  0.00    +0.135 A 
ATOM     22  C   UNL     1      12.085   8.148  17.728  0.00  0.00    +0.097 A 
BRANCH  22  23
ATOM     23  C   UNL     1      10.621   8.086  17.822  0.00  0.00    +0.139 C 
BRANCH  23   7
ATOM      7  N   UNL     1      10.013   8.484  16.546  0.00  0.00    -0.314 NA
ATOM     24  C   UNL     1      11.005   9.093  15.678  0.00  0.00    +0.101 C 
ATOM     25  H   UNL     1       9.268   9.158  16.722  0.00  0.00    +0.122 HD
ENDBRANCH  23   7
ENDBRANCH  22  23
ENDBRANCH  15   4
ENDBRANCH  10  15
TORSDOF 5
ENDMDL
MODEL 9
REMARK VINA RESULT:      -3.2      1.767      3.141
REMARK  Name = 11943156
REMARK  6 active torsions:
REMARK  status: ('A' for Active; 'I' for Inactive)
REMARK    1  A    between atoms: N_4  and  C_15
REMARK    2  A    between atoms: N_7  and  C_23
REMARK    3  A    between atoms: N_7  and  C_24
REMARK    4  A    between atoms: C_9  and  C_16
REMARK    5  A    between atoms: C_10  and  C_15
REMARK    6  A    between atoms: C_22  and  C_23
REMARK                            x       y       z     vdW  Elec       q    Type
REMARK                         _______ _______ _______ _____ _____    ______ ____
ROOT
ATOM      2  N   UNL     1      -3.378   2.977  25.206  0.00  0.00    -0.297 NA
ATOM      8  C   UNL     1      -5.469   1.434  25.073  0.00  0.00    +0.005 C 
ATOM      9  C   UNL     1      -4.240   0.664  25.592  0.00  0.00    +0.092 C 
ATOM     10  C   UNL     1      -3.987   3.063  23.852  0.00  0.00    +0.078 C 
ATOM     11  C   UNL     1      -5.137   2.044  23.697  0.00  0.00    +0.025 C 
ATOM     12  C   UNL     1      -5.705   2.603  26.047  0.00  0.00    +0.020 C 
ATOM     13  C   UNL     1      -3.003   1.576  25.514  0.00  0.00    +0.097 C 
ATOM     14  C   UNL     1      -4.400   3.409  26.193  0.00  0.00    +0.085 C 
ENDROOT
BRANCH   9  16
ATOM      1  O   UNL     1      -4.955  -1.098  24.157  0.00  0.00    -0.275 OA
ATOM      3  N   UNL     1      -2.787  -1.195  24.946  0.00  0.00    -0.301 N 
ATOM     16  C   UNL     1      -4.038  -0.620  24.827  0.00  0.00    +0.220 C 
ATOM     17  C   UNL     1      -2.435  -2.438  24.276  0.00  0.00    +0.108 C 
ATOM     18  C   UNL     1      -1.660  -0.680  25.719  0.00  0.00    +0.108 C 
ATOM     19  C   UNL     1      -0.922  -2.525  24.404  0.00  0.00    +0.020 C 
ATOM     20  C   UNL     1      -0.653  -1.822  25.728  0.00  0.00    +0.020 C 
ENDBRANCH   9  16
BRANCH  10  15
ATOM     15  C   UNL     1      -2.949   2.923  22.737  0.00  0.00    +0.164 C 
BRANCH  15   4
ATOM      4  N   UNL     1      -1.649   2.533  23.254  0.00  0.00    -0.250 N 
ATOM      5  N   UNL     1      -0.988   3.340  24.089  0.00  0.00    -0.065 NA
ATOM      6  N   UNL     1       0.155   2.732  24.387  0.00  0.00    -0.133 NA
ATOM     21  C   UNL     1      -0.968   1.393  22.987  0.00  0.00    +0.135 A 
ATOM     22  C   UNL     1       0.183   1.538  23.720  0.00  0.00    +0.097 A 
BRANCH  22  23
ATOM     23  C   UNL     1       1.324   0.623  23.842  0.00  0.00    +0.139 C 
BRANCH  23   7
ATOM      7  N   UNL     1       2.535   1.247  23.292  0.00  0.00    -0.314 NA
ATOM     24  C   UNL     1       3.237   0.317  22.425  0.00  0.00    +0.101 C 
ATOM     25  H   UNL     1       3.153   1.517  24.057  0.00  0.00    +0.122 HD
ENDBRANCH  23   7
ENDBRANCH  22  23
ENDBRANCH  15   4
ENDBRANCH  10  15
TORSDOF 5
ENDMDL
MODEL 10
REMARK VINA RESULT:      -2.7      2.816      4.939
REMARK  Name = 11943156
REMARK  6 active torsions:
REMARK  status: ('A' for Active; 'I' for Inactive)
REMARK    1  A    between atoms: N_4  and  C_15
REMARK    2  A    between atoms: N_7  and  C_23
REMARK    3  A    between atoms: N_7  and  C_24
REMARK    4  A    between atoms: C_9  and  C_16
REMARK    5  A    between atoms: C_10  and  C_15
REMARK    6  A    between atoms: C_22  and  C_23
REMARK                            x       y       z     vdW  Elec       q    Type
REMARK                         _______ _______ _______ _____ _____    ______ ____
ROOT
ATOM      2  N   UNL     1      -1.729  -1.393  24.276  0.00  0.00    -0.297 NA
ATOM      8  C   UNL     1      -4.143  -1.784  25.164  0.00  0.00    +0.005 C 
ATOM      9  C   UNL     1      -4.065  -0.507  24.305  0.00  0.00    +0.092 C 
ATOM     10  C   UNL     1      -1.702  -1.590  25.750  0.00  0.00    +0.078 C 
ATOM     11  C   UNL     1      -3.134  -1.672  26.324  0.00  0.00    +0.025 C 
ATOM     12  C   UNL     1      -3.687  -2.951  24.270  0.00  0.00    +0.020 C 
ATOM     13  C   UNL     1      -2.597  -0.243  23.927  0.00  0.00    +0.097 C 
ATOM     14  C   UNL     1      -2.311  -2.614  23.664  0.00  0.00    +0.085 C 
ENDROOT
BRANCH   9  16
ATOM      1  O   UNL     1      -5.393   0.496  26.008  0.00  0.00    -0.275 OA
ATOM      3  N   UNL     1      -4.394   1.910  24.480  0.00  0.00    -0.301 N 
ATOM     16  C   UNL     1      -4.681   0.669  25.018  0.00  0.00    +0.220 C 
ATOM     17  C   UNL     1      -4.917   3.144  25.047  0.00  0.00    +0.108 C 
ATOM     18  C   UNL     1      -3.558   2.183  23.314  0.00  0.00    +0.108 C 
ATOM     19  C   UNL     1      -4.113   4.244  24.374  0.00  0.00    +0.020 C 
ATOM     20  C   UNL     1      -3.810   3.652  23.004  0.00  0.00    +0.020 C 
ENDBRANCH   9  16
BRANCH  10  15
ATOM     15  C   UNL     1      -0.863  -0.529  26.464  0.00  0.00    +0.164 C 
BRANCH  15   4
ATOM      4  N   UNL     1      -0.506   0.565  25.577  0.00  0.00    -0.250 N 
ATOM      5  N   UNL     1       0.261   0.339  24.507  0.00  0.00    -0.065 NA
ATOM      6  N   UNL     1       0.423   1.508  23.896  0.00  0.00    -0.133 NA
ATOM     21  C   UNL     1      -0.861   1.866  25.696  0.00  0.00    +0.135 A 
ATOM     22  C   UNL     1      -0.259   2.454  24.612  0.00  0.00    +0.097 A 
BRANCH  22  23
ATOM     23  C   UNL     1      -0.276   3.861  24.193  0.00  0.00    +0.139 C 
BRANCH  23   7
ATOM      7  N   UNL     1      -0.871   4.696  25.244  0.00  0.00    -0.314 NA
ATOM     24  C   UNL     1      -1.225   6.002  24.716  0.00  0.00    +0.101 C 
ATOM     25  H   UNL     1      -0.200   4.816  26.001  0.00  0.00    +0.122 HD
ENDBRANCH  23   7
ENDBRANCH  22  23
ENDBRANCH  15   4
ENDBRANCH  10  15
TORSDOF 5
ENDMDL
