MODEL 1
REMARK VINA RESULT:      -5.1      0.000      0.000
REMARK  Name = 75536946
REMARK  5 active torsions:
REMARK  status: ('A' for Active; 'I' for Inactive)
REMARK    1  A    between atoms: O_2  and  C_6
REMARK    2  A    between atoms: O_2  and  C_12
REMARK    3  A    between atoms: O_4  and  C_18
REMARK    4  A    between atoms: O_4  and  C_19
REMARK    5  A    between atoms: C_11  and  C_13
REMARK                            x       y       z     vdW  Elec       q    Type
REMARK                         _______ _______ _______ _____ _____    ______ ____
ROOT
ATOM      1  O   UNL     1       0.555  -0.971  23.727  0.00  0.00    -0.375 OA
ATOM      3  O   UNL     1      -4.590  -0.577  24.315  0.00  0.00    -0.276 OA
ATOM      5  N   UNL     1      -2.349  -1.139  24.646  0.00  0.00    -0.296 N 
ATOM      6  C   UNL     1      -1.116   0.839  23.785  0.00  0.00    +0.216 C 
ATOM      7  C   UNL     1      -1.963   0.250  24.911  0.00  0.00    +0.154 C 
ATOM      8  C   UNL     1      -1.317  -2.184  24.677  0.00  0.00    +0.136 C 
ATOM      9  C   UNL     1       0.353   0.430  23.860  0.00  0.00    +0.206 C 
ATOM     10  C   UNL     1       0.122  -1.719  24.858  0.00  0.00    +0.179 C 
ATOM     11  C   UNL     1      -3.691  -1.421  24.352  0.00  0.00    +0.213 C 
ATOM     13  C   UNL     1      -4.022  -2.867  24.059  0.00  0.00    +0.109 C 
ENDROOT
BRANCH   6   2
ATOM      2  O   UNL     1      -1.195   2.261  23.875  0.00  0.00    -0.485 OA
BRANCH   2  12
ATOM     12  C   UNL     1      -2.349   2.777  24.396  0.00  0.00    +0.121 A 
ATOM     14  C   UNL     1      -2.314   3.506  25.584  0.00  0.00    +0.049 A 
ATOM     15  C   UNL     1      -3.564   2.572  23.739  0.00  0.00    +0.049 A 
ATOM     16  C   UNL     1      -3.492   4.032  26.116  0.00  0.00    +0.049 A 
ATOM     17  C   UNL     1      -4.741   3.098  24.270  0.00  0.00    +0.049 A 
ATOM     18  C   UNL     1      -4.705   3.827  25.458  0.00  0.00    +0.120 A 
BRANCH  18   4
ATOM      4  O   UNL     1      -5.854   4.341  25.976  0.00  0.00    -0.495 OA
ATOM     19  C   UNL     1      -6.417   5.472  25.314  0.00  0.00    +0.277 C 
ENDBRANCH  18   4
ENDBRANCH   2  12
ENDBRANCH   6   2
TORSDOF 3
ENDMDL
MODEL 2
REMARK VINA RESULT:      -4.6     14.304     16.926
REMARK  Name = 75536946
REMARK  5 active torsions:
REMARK  status: ('A' for Active; 'I' for Inactive)
REMARK    1  A    between atoms: O_2  and  C_6
REMARK    2  A    between atoms: O_2  and  C_12
REMARK    3  A    between atoms: O_4  and  C_18
REMARK    4  A    between atoms: O_4  and  C_19
REMARK    5  A    between atoms: C_11  and  C_13
REMARK                            x       y       z     vdW  Elec       q    Type
REMARK                         _______ _______ _______ _____ _____    ______ ____
ROOT
ATOM      1  O   UNL     1      -3.736  -8.901  10.178  0.00  0.00    -0.375 OA
ATOM      3  O   UNL     1      -8.879  -9.300  10.775  0.00  0.00    -0.276 OA
ATOM      5  N   UNL     1      -6.732  -9.382   9.865  0.00  0.00    -0.296 N 
ATOM      6  C   UNL     1      -5.285  -9.888  11.821  0.00  0.00    +0.216 C 
ATOM      7  C   UNL     1      -6.293 -10.419  10.803  0.00  0.00    +0.154 C 
ATOM      8  C   UNL     1      -5.778  -8.868   8.872  0.00  0.00    +0.136 C 
ATOM      9  C   UNL     1      -3.864  -9.802  11.270  0.00  0.00    +0.206 C 
ATOM     10  C   UNL     1      -4.344  -9.369   8.979  0.00  0.00    +0.179 C 
ATOM     11  C   UNL     1      -8.045  -8.899   9.959  0.00  0.00    +0.213 C 
ATOM     13  C   UNL     1      -8.430  -7.811   8.984  0.00  0.00    +0.109 C 
ENDROOT
BRANCH   6   2
ATOM      2  O   UNL     1      -5.285 -10.774  12.940  0.00  0.00    -0.485 OA
BRANCH   2  12
ATOM     12  C   UNL     1      -5.946 -10.346  14.057  0.00  0.00    +0.121 A 
ATOM     14  C   UNL     1      -5.238 -10.087  15.231  0.00  0.00    +0.049 A 
ATOM     15  C   UNL     1      -7.330 -10.168  14.024  0.00  0.00    +0.049 A 
ATOM     16  C   UNL     1      -5.913  -9.651  16.371  0.00  0.00    +0.049 A 
ATOM     17  C   UNL     1      -8.004  -9.731  15.163  0.00  0.00    +0.049 A 
ATOM     18  C   UNL     1      -7.296  -9.473  16.337  0.00  0.00    +0.120 A 
BRANCH  18   4
ATOM      4  O   UNL     1      -7.955  -9.046  17.449  0.00  0.00    -0.495 OA
ATOM     19  C   UNL     1      -9.283  -8.560  17.271  0.00  0.00    +0.277 C 
ENDBRANCH  18   4
ENDBRANCH   2  12
ENDBRANCH   6   2
TORSDOF 3
ENDMDL
MODEL 3
REMARK VINA RESULT:      -4.4      1.990      5.458
REMARK  Name = 75536946
REMARK  5 active torsions:
REMARK  status: ('A' for Active; 'I' for Inactive)
REMARK    1  A    between atoms: O_2  and  C_6
REMARK    2  A    between atoms: O_2  and  C_12
REMARK    3  A    between atoms: O_4  and  C_18
REMARK    4  A    between atoms: O_4  and  C_19
REMARK    5  A    between atoms: C_11  and  C_13
REMARK                            x       y       z     vdW  Elec       q    Type
REMARK                         _______ _______ _______ _____ _____    ______ ____
ROOT
ATOM      1  O   UNL     1      -0.557   4.398  25.756  0.00  0.00    -0.375 OA
ATOM      3  O   UNL     1      -4.852   1.515  25.307  0.00  0.00    -0.276 OA
ATOM      5  N   UNL     1      -3.175   3.085  24.902  0.00  0.00    -0.296 N 
ATOM      6  C   UNL     1      -1.128   2.001  25.803  0.00  0.00    +0.216 C 
ATOM      7  C   UNL     1      -2.159   2.053  24.677  0.00  0.00    +0.154 C 
ATOM      8  C   UNL     1      -2.786   4.500  24.809  0.00  0.00    +0.136 C 
ATOM      9  C   UNL     1      -0.048   3.073  25.678  0.00  0.00    +0.206 C 
ATOM     10  C   UNL     1      -1.305   4.790  24.610  0.00  0.00    +0.179 C 
ATOM     11  C   UNL     1      -4.482   2.688  25.218  0.00  0.00    +0.213 C 
ATOM     13  C   UNL     1      -5.477   3.798  25.467  0.00  0.00    +0.109 C 
ENDROOT
BRANCH   6   2
ATOM      2  O   UNL     1      -0.501   0.720  25.765  0.00  0.00    -0.485 OA
BRANCH   2  12
ATOM     12  C   UNL     1      -1.293  -0.337  25.411  0.00  0.00    +0.121 A 
ATOM     14  C   UNL     1      -0.865  -1.234  24.434  0.00  0.00    +0.049 A 
ATOM     15  C   UNL     1      -2.532  -0.517  26.029  0.00  0.00    +0.049 A 
ATOM     16  C   UNL     1      -1.674  -2.312  24.073  0.00  0.00    +0.049 A 
ATOM     17  C   UNL     1      -3.340  -1.596  25.670  0.00  0.00    +0.049 A 
ATOM     18  C   UNL     1      -2.911  -2.492  24.692  0.00  0.00    +0.120 A 
BRANCH  18   4
ATOM      4  O   UNL     1      -3.700  -3.545  24.340  0.00  0.00    -0.495 OA
ATOM     19  C   UNL     1      -4.722  -3.297  23.377  0.00  0.00    +0.277 C 
ENDBRANCH  18   4
ENDBRANCH   2  12
ENDBRANCH   6   2
TORSDOF 3
ENDMDL
MODEL 4
REMARK VINA RESULT:      -4.1     14.164     16.945
REMARK  Name = 75536946
REMARK  5 active torsions:
REMARK  status: ('A' for Active; 'I' for Inactive)
REMARK    1  A    between atoms: O_2  and  C_6
REMARK    2  A    between atoms: O_2  and  C_12
REMARK    3  A    between atoms: O_4  and  C_18
REMARK    4  A    between atoms: O_4  and  C_19
REMARK    5  A    between atoms: C_11  and  C_13
REMARK                            x       y       z     vdW  Elec       q    Type
REMARK                         _______ _______ _______ _____ _____    ______ ____
ROOT
ATOM      1  O   UNL     1      -9.305  -8.554  16.585  0.00  0.00    -0.375 OA
ATOM      3  O   UNL     1      -4.918 -10.778  14.922  0.00  0.00    -0.276 OA
ATOM      5  N   UNL     1      -6.852 -10.312  16.140  0.00  0.00    -0.296 N 
ATOM      6  C   UNL     1      -8.401  -9.367  14.442  0.00  0.00    +0.216 C 
ATOM      7  C   UNL     1      -7.729 -10.618  15.007  0.00  0.00    +0.154 C 
ATOM      8  C   UNL     1      -7.453  -9.881  17.411  0.00  0.00    +0.136 C 
ATOM      9  C   UNL     1      -9.619  -8.923  15.248  0.00  0.00    +0.206 C 
ATOM     10  C   UNL     1      -8.959  -9.658  17.414  0.00  0.00    +0.179 C 
ATOM     11  C   UNL     1      -5.465 -10.422  15.968  0.00  0.00    +0.213 C 
ATOM     13  C   UNL     1      -4.612 -10.065  17.164  0.00  0.00    +0.109 C 
ENDROOT
BRANCH   6   2
ATOM      2  O   UNL     1      -8.822  -9.660  13.110  0.00  0.00    -0.485 OA
BRANCH   2  12
ATOM     12  C   UNL     1      -7.848  -9.666  12.150  0.00  0.00    +0.121 A 
ATOM     14  C   UNL     1      -8.012 -10.432  10.996  0.00  0.00    +0.049 A 
ATOM     15  C   UNL     1      -6.691  -8.907  12.325  0.00  0.00    +0.049 A 
ATOM     16  C   UNL     1      -7.018 -10.438  10.016  0.00  0.00    +0.049 A 
ATOM     17  C   UNL     1      -5.698  -8.913  11.346  0.00  0.00    +0.049 A 
ATOM     18  C   UNL     1      -5.862  -9.679  10.192  0.00  0.00    +0.120 A 
BRANCH  18   4
ATOM      4  O   UNL     1      -4.893  -9.685   9.236  0.00  0.00    -0.495 OA
ATOM     19  C   UNL     1      -3.594  -9.240   9.624  0.00  0.00    +0.277 C 
ENDBRANCH  18   4
ENDBRANCH   2  12
ENDBRANCH   6   2
TORSDOF 3
ENDMDL
MODEL 5
REMARK VINA RESULT:      -4.1      2.017      6.431
REMARK  Name = 75536946
REMARK  5 active torsions:
REMARK  status: ('A' for Active; 'I' for Inactive)
REMARK    1  A    between atoms: O_2  and  C_6
REMARK    2  A    between atoms: O_2  and  C_12
REMARK    3  A    between atoms: O_4  and  C_18
REMARK    4  A    between atoms: O_4  and  C_19
REMARK    5  A    between atoms: C_11  and  C_13
REMARK                            x       y       z     vdW  Elec       q    Type
REMARK                         _______ _______ _______ _____ _____    ______ ____
ROOT
ATOM      1  O   UNL     1      -5.600   2.513  24.658  0.00  0.00    -0.375 OA
ATOM      3  O   UNL     1      -0.589   3.754  25.218  0.00  0.00    -0.276 OA
ATOM      5  N   UNL     1      -2.886   3.559  25.578  0.00  0.00    -0.296 N 
ATOM      6  C   UNL     1      -3.440   1.328  24.634  0.00  0.00    +0.216 C 
ATOM      7  C   UNL     1      -2.807   2.110  25.783  0.00  0.00    +0.154 C 
ATOM      8  C   UNL     1      -4.197   4.219  25.657  0.00  0.00    +0.136 C 
ATOM      9  C   UNL     1      -4.961   1.246  24.729  0.00  0.00    +0.206 C 
ATOM     10  C   UNL     1      -5.410   3.313  25.820  0.00  0.00    +0.179 C 
ATOM     11  C   UNL     1      -1.709   4.266  25.294  0.00  0.00    +0.213 C 
ATOM     13  C   UNL     1      -1.860   5.752  25.065  0.00  0.00    +0.109 C 
ENDROOT
BRANCH   6   2
ATOM      2  O   UNL     1      -2.911   0.003  24.661  0.00  0.00    -0.485 OA
BRANCH   2  12
ATOM     12  C   UNL     1      -1.607  -0.142  24.278  0.00  0.00    +0.121 A 
ATOM     14  C   UNL     1      -0.988   0.851  23.519  0.00  0.00    +0.049 A 
ATOM     15  C   UNL     1      -0.895  -1.284  24.647  0.00  0.00    +0.049 A 
ATOM     16  C   UNL     1       0.343   0.702  23.128  0.00  0.00    +0.049 A 
ATOM     17  C   UNL     1       0.436  -1.432  24.256  0.00  0.00    +0.049 A 
ATOM     18  C   UNL     1       1.054  -0.439  23.497  0.00  0.00    +0.120 A 
BRANCH  18   4
ATOM      4  O   UNL     1       2.353  -0.584  23.116  0.00  0.00    -0.495 OA
ATOM     19  C   UNL     1       3.021   0.580  22.633  0.00  0.00    +0.277 C 
ENDBRANCH  18   4
ENDBRANCH   2  12
ENDBRANCH   6   2
TORSDOF 3
ENDMDL
MODEL 6
REMARK VINA RESULT:      -3.9      2.357      6.567
REMARK  Name = 75536946
REMARK  5 active torsions:
REMARK  status: ('A' for Active; 'I' for Inactive)
REMARK    1  A    between atoms: O_2  and  C_6
REMARK    2  A    between atoms: O_2  and  C_12
REMARK    3  A    between atoms: O_4  and  C_18
REMARK    4  A    between atoms: O_4  and  C_19
REMARK    5  A    between atoms: C_11  and  C_13
REMARK                            x       y       z     vdW  Elec       q    Type
REMARK                         _______ _______ _______ _____ _____    ______ ____
ROOT
ATOM      1  O   UNL     1      -4.748   1.840  24.203  0.00  0.00    -0.375 OA
ATOM      3  O   UNL     1      -0.243   4.223  25.201  0.00  0.00    -0.276 OA
ATOM      5  N   UNL     1      -2.438   3.451  25.376  0.00  0.00    -0.296 N 
ATOM      6  C   UNL     1      -2.364   1.221  24.282  0.00  0.00    +0.216 C 
ATOM      7  C   UNL     1      -2.015   2.055  25.514  0.00  0.00    +0.154 C 
ATOM      8  C   UNL     1      -3.874   3.765  25.389  0.00  0.00    +0.136 C 
ATOM      9  C   UNL     1      -3.821   0.764  24.259  0.00  0.00    +0.206 C 
ATOM     10  C   UNL     1      -4.832   2.582  25.415  0.00  0.00    +0.179 C 
ATOM     11  C   UNL     1      -1.457   4.441  25.218  0.00  0.00    +0.213 C 
ATOM     13  C   UNL     1      -1.957   5.857  25.052  0.00  0.00    +0.109 C 
ENDROOT
BRANCH   6   2
ATOM      2  O   UNL     1      -1.527   0.066  24.283  0.00  0.00    -0.485 OA
BRANCH   2  12
ATOM     12  C   UNL     1      -0.266   0.225  23.778  0.00  0.00    +0.121 A 
ATOM     14  C   UNL     1       0.545   1.261  24.239  0.00  0.00    +0.049 A 
ATOM     15  C   UNL     1       0.208  -0.650  22.799  0.00  0.00    +0.049 A 
ATOM     16  C   UNL     1       1.831   1.423  23.723  0.00  0.00    +0.049 A 
ATOM     17  C   UNL     1       1.494  -0.488  22.283  0.00  0.00    +0.049 A 
ATOM     18  C   UNL     1       2.305   0.548  22.745  0.00  0.00    +0.120 A 
BRANCH  18   4
ATOM      4  O   UNL     1       3.560   0.706  22.242  0.00  0.00    -0.495 OA
ATOM     19  C   UNL     1       4.649   0.514  23.142  0.00  0.00    +0.277 C 
ENDBRANCH  18   4
ENDBRANCH   2  12
ENDBRANCH   6   2
TORSDOF 3
ENDMDL
MODEL 7
REMARK VINA RESULT:      -3.5     14.778     17.472
REMARK  Name = 75536946
REMARK  5 active torsions:
REMARK  status: ('A' for Active; 'I' for Inactive)
REMARK    1  A    between atoms: O_2  and  C_6
REMARK    2  A    between atoms: O_2  and  C_12
REMARK    3  A    between atoms: O_4  and  C_18
REMARK    4  A    between atoms: O_4  and  C_19
REMARK    5  A    between atoms: C_11  and  C_13
REMARK                            x       y       z     vdW  Elec       q    Type
REMARK                         _______ _______ _______ _____ _____    ______ ____
ROOT
ATOM      1  O   UNL     1      -4.867  -8.746  10.722  0.00  0.00    -0.375 OA
ATOM      3  O   UNL     1      -9.916  -8.382   9.564  0.00  0.00    -0.276 OA
ATOM      5  N   UNL     1      -7.611  -8.701   9.390  0.00  0.00    -0.296 N 
ATOM      6  C   UNL     1      -6.983  -9.656  11.597  0.00  0.00    +0.216 C 
ATOM      7  C   UNL     1      -7.637  -9.897  10.237  0.00  0.00    +0.154 C 
ATOM      8  C   UNL     1      -6.324  -8.236   8.853  0.00  0.00    +0.136 C 
ATOM      9  C   UNL     1      -5.459  -9.735  11.553  0.00  0.00    +0.206 C 
ATOM     10  C   UNL     1      -5.079  -8.969   9.332  0.00  0.00    +0.179 C 
ATOM     11  C   UNL     1      -8.815  -8.029   9.135  0.00  0.00    +0.213 C 
ATOM     13  C   UNL     1      -8.719  -6.787   8.279  0.00  0.00    +0.109 C 
ENDROOT
BRANCH   6   2
ATOM      2  O   UNL     1      -7.464 -10.654  12.496  0.00  0.00    -0.485 OA
BRANCH   2  12
ATOM     12  C   UNL     1      -8.262 -10.221  13.518  0.00  0.00    +0.121 A 
ATOM     14  C   UNL     1      -9.610  -9.951  13.284  0.00  0.00    +0.049 A 
ATOM     15  C   UNL     1      -7.728 -10.050  14.796  0.00  0.00    +0.049 A 
ATOM     16  C   UNL     1     -10.424  -9.509  14.327  0.00  0.00    +0.049 A 
ATOM     17  C   UNL     1      -8.542  -9.608  15.839  0.00  0.00    +0.049 A 
ATOM     18  C   UNL     1      -9.890  -9.338  15.604  0.00  0.00    +0.120 A 
BRANCH  18   4
ATOM      4  O   UNL     1     -10.685  -8.907  16.622  0.00  0.00    -0.495 OA
ATOM     19  C   UNL     1     -10.033  -8.423  17.794  0.00  0.00    +0.277 C 
ENDBRANCH  18   4
ENDBRANCH   2  12
ENDBRANCH   6   2
TORSDOF 3
ENDMDL
MODEL 8
REMARK VINA RESULT:      -3.4      1.775      6.242
REMARK  Name = 75536946
REMARK  5 active torsions:
REMARK  status: ('A' for Active; 'I' for Inactive)
REMARK    1  A    between atoms: O_2  and  C_6
REMARK    2  A    between atoms: O_2  and  C_12
REMARK    3  A    between atoms: O_4  and  C_18
REMARK    4  A    between atoms: O_4  and  C_19
REMARK    5  A    between atoms: C_11  and  C_13
REMARK                            x       y       z     vdW  Elec       q    Type
REMARK                         _______ _______ _______ _____ _____    ______ ____
ROOT
ATOM      1  O   UNL     1      -5.426   3.720  25.491  0.00  0.00    -0.375 OA
ATOM      3  O   UNL     1      -0.515   3.102  23.920  0.00  0.00    -0.276 OA
ATOM      5  N   UNL     1      -2.398   3.432  25.259  0.00  0.00    -0.296 N 
ATOM      6  C   UNL     1      -4.166   2.107  24.119  0.00  0.00    +0.216 C 
ATOM      7  C   UNL     1      -2.914   2.085  24.995  0.00  0.00    +0.154 C 
ATOM      8  C   UNL     1      -3.169   4.332  26.128  0.00  0.00    +0.136 C 
ATOM      9  C   UNL     1      -5.439   2.428  24.899  0.00  0.00    +0.206 C 
ATOM     10  C   UNL     1      -4.531   3.834  26.592  0.00  0.00    +0.179 C 
ATOM     11  C   UNL     1      -1.194   3.823  24.656  0.00  0.00    +0.213 C 
ATOM     13  C   UNL     1      -0.729   5.232  24.943  0.00  0.00    +0.109 C 
ENDROOT
BRANCH   6   2
ATOM      2  O   UNL     1      -4.310   0.816  23.528  0.00  0.00    -0.485 OA
BRANCH   2  12
ATOM     12  C   UNL     1      -3.449  -0.153  23.961  0.00  0.00    +0.121 A 
ATOM     14  C   UNL     1      -2.072   0.059  23.901  0.00  0.00    +0.049 A 
ATOM     15  C   UNL     1      -3.948  -1.356  24.464  0.00  0.00    +0.049 A 
ATOM     16  C   UNL     1      -1.193  -0.931  24.343  0.00  0.00    +0.049 A 
ATOM     17  C   UNL     1      -3.070  -2.345  24.906  0.00  0.00    +0.049 A 
ATOM     18  C   UNL     1      -1.693  -2.132  24.846  0.00  0.00    +0.120 A 
BRANCH  18   4
ATOM      4  O   UNL     1      -0.836  -3.097  25.278  0.00  0.00    -0.495 OA
ATOM     19  C   UNL     1       0.512  -2.704  25.530  0.00  0.00    +0.277 C 
ENDBRANCH  18   4
ENDBRANCH   2  12
ENDBRANCH   6   2
TORSDOF 3
ENDMDL
MODEL 9
REMARK VINA RESULT:      -3.3     14.162     17.145
REMARK  Name = 75536946
REMARK  5 active torsions:
REMARK  status: ('A' for Active; 'I' for Inactive)
REMARK    1  A    between atoms: O_2  and  C_6
REMARK    2  A    between atoms: O_2  and  C_12
REMARK    3  A    between atoms: O_4  and  C_18
REMARK    4  A    between atoms: O_4  and  C_19
REMARK    5  A    between atoms: C_11  and  C_13
REMARK                            x       y       z     vdW  Elec       q    Type
REMARK                         _______ _______ _______ _____ _____    ______ ____
ROOT
ATOM      1  O   UNL     1     -10.032  -8.204  16.921  0.00  0.00    -0.375 OA
ATOM      3  O   UNL     1      -6.130 -10.780  14.660  0.00  0.00    -0.276 OA
ATOM      5  N   UNL     1      -7.722 -10.066  16.210  0.00  0.00    -0.296 N 
ATOM      6  C   UNL     1      -9.656  -9.397  14.799  0.00  0.00    +0.216 C 
ATOM      7  C   UNL     1      -8.841 -10.545  15.393  0.00  0.00    +0.154 C 
ATOM      8  C   UNL     1      -8.007  -9.408  17.493  0.00  0.00    +0.136 C 
ATOM      9  C   UNL     1     -10.651  -8.793  15.785  0.00  0.00    +0.206 C 
ATOM     10  C   UNL     1      -9.472  -9.155  17.821  0.00  0.00    +0.179 C 
ATOM     11  C   UNL     1      -6.416 -10.235  15.729  0.00  0.00    +0.213 C 
ATOM     13  C   UNL     1      -5.307  -9.695  16.603  0.00  0.00    +0.109 C 
ENDROOT
BRANCH   6   2
ATOM      2  O   UNL     1     -10.379  -9.908  13.680  0.00  0.00    -0.485 OA
BRANCH   2  12
ATOM     12  C   UNL     1      -9.841  -9.672  12.445  0.00  0.00    +0.121 A 
ATOM     14  C   UNL     1      -8.457  -9.671  12.276  0.00  0.00    +0.049 A 
ATOM     15  C   UNL     1     -10.677  -9.431  11.354  0.00  0.00    +0.049 A 
ATOM     16  C   UNL     1      -7.908  -9.429  11.016  0.00  0.00    +0.049 A 
ATOM     17  C   UNL     1     -10.128  -9.191  10.094  0.00  0.00    +0.049 A 
ATOM     18  C   UNL     1      -8.744  -9.190   9.926  0.00  0.00    +0.120 A 
BRANCH  18   4
ATOM      4  O   UNL     1      -8.208  -8.955   8.697  0.00  0.00    -0.495 OA
ATOM     19  C   UNL     1      -7.516  -7.721   8.516  0.00  0.00    +0.277 C 
ENDBRANCH  18   4
ENDBRANCH   2  12
ENDBRANCH   6   2
TORSDOF 3
ENDMDL
MODEL 10
REMARK VINA RESULT:      -3.2     19.117     20.704
REMARK  Name = 75536946
REMARK  5 active torsions:
REMARK  status: ('A' for Active; 'I' for Inactive)
REMARK    1  A    between atoms: O_2  and  C_6
REMARK    2  A    between atoms: O_2  and  C_12
REMARK    3  A    between atoms: O_4  and  C_18
REMARK    4  A    between atoms: O_4  and  C_19
REMARK    5  A    between atoms: C_11  and  C_13
REMARK                            x       y       z     vdW  Elec       q    Type
REMARK                         _______ _______ _______ _____ _____    ______ ____
ROOT
ATOM      1  O   UNL     1      14.569  -4.724  32.286  0.00  0.00    -0.375 OA
ATOM      3  O   UNL     1      13.019  -9.259  30.288  0.00  0.00    -0.276 OA
ATOM      5  N   UNL     1      13.011  -7.120  31.220  0.00  0.00    -0.296 N 
ATOM      6  C   UNL     1      15.049  -6.060  30.272  0.00  0.00    +0.216 C 
ATOM      7  C   UNL     1      13.611  -6.517  30.027  0.00  0.00    +0.154 C 
ATOM      8  C   UNL     1      12.698  -6.263  32.372  0.00  0.00    +0.136 C 
ATOM      9  C   UNL     1      15.138  -4.712  30.983  0.00  0.00    +0.206 C 
ATOM     10  C   UNL     1      13.148  -4.811  32.285  0.00  0.00    +0.179 C 
ATOM     11  C   UNL     1      12.772  -8.502  31.230  0.00  0.00    +0.213 C 
ATOM     13  C   UNL     1      12.178  -9.070  32.499  0.00  0.00    +0.109 C 
ENDROOT
BRANCH   6   2
ATOM      2  O   UNL     1      15.694  -5.948  29.004  0.00  0.00    -0.485 OA
BRANCH   2  12
ATOM     12  C   UNL     1      15.757  -7.085  28.248  0.00  0.00    +0.121 A 
ATOM     14  C   UNL     1      15.440  -7.038  26.891  0.00  0.00    +0.049 A 
ATOM     15  C   UNL     1      16.138  -8.293  28.834  0.00  0.00    +0.049 A 
ATOM     16  C   UNL     1      15.503  -8.199  26.119  0.00  0.00    +0.049 A 
ATOM     17  C   UNL     1      16.202  -9.453  28.062  0.00  0.00    +0.049 A 
ATOM     18  C   UNL     1      15.885  -9.405  26.705  0.00  0.00    +0.120 A 
BRANCH  18   4
ATOM      4  O   UNL     1      15.947 -10.538  25.952  0.00  0.00    -0.495 OA
ATOM     19  C   UNL     1      14.974 -10.685  24.920  0.00  0.00    +0.277 C 
ENDBRANCH  18   4
ENDBRANCH   2  12
ENDBRANCH   6   2
TORSDOF 3
ENDMDL
