MODEL 1
REMARK VINA RESULT:      -5.4      0.000      0.000
REMARK  Name = 26742993
REMARK  10 active torsions:
REMARK  status: ('A' for Active; 'I' for Inactive)
REMARK    1  A    between atoms: N_4  and  C_19
REMARK    2  A    between atoms: C_7  and  C_13
REMARK    3  A    between atoms: C_8  and  C_11
REMARK    4  A    between atoms: C_11  and  C_14
REMARK    5  A    between atoms: C_13  and  C_15
REMARK    6  A    between atoms: C_17  and  C_18
REMARK    7  A    between atoms: C_18  and  C_20
REMARK    8  A    between atoms: C_19  and  C_22
REMARK    9  A    between atoms: C_20  and  C_21
REMARK   10  A    between atoms: C_21  and  C_23
REMARK                            x       y       z     vdW  Elec       q    Type
REMARK                         _______ _______ _______ _____ _____    ______ ____
ROOT
ATOM      3  N   UNL     1      -2.485  -3.056  24.953  0.00  0.00    -0.316 NA
ATOM      7  C   UNL     1      -3.703  -0.678  23.702  0.00  0.00    +0.004 C 
ATOM      8  C   UNL     1      -2.205  -0.748  24.081  0.00  0.00    +0.012 C 
ATOM      9  C   UNL     1      -4.237  -2.105  23.494  0.00  0.00    +0.019 C 
ATOM     10  C   UNL     1      -1.958  -1.722  25.245  0.00  0.00    +0.085 C 
ATOM     12  C   UNL     1      -3.919  -3.025  24.671  0.00  0.00    +0.081 C 
ATOM     28  H   UNL     1      -2.310  -3.669  25.748  0.00  0.00    +0.122 HD
ENDROOT
BRANCH   8  11
ATOM     11  C   UNL     1      -1.600   0.621  24.390  0.00  0.00    +0.064 C 
BRANCH  11  14
ATOM      1  O   UNL     1       1.814   1.525  23.690  0.00  0.00    -0.359 OA
ATOM      5  N   UNL     1       0.568   1.771  24.252  0.00  0.00    -0.083 NA
ATOM     14  C   UNL     1      -0.170   0.703  23.937  0.00  0.00    +0.084 A 
ATOM     16  C   UNL     1       0.550  -0.240  23.184  0.00  0.00    +0.071 A 
ATOM     17  C   UNL     1       1.791   0.325  23.057  0.00  0.00    +0.138 A 
BRANCH  17  18
ATOM     18  C   UNL     1       3.036  -0.095  22.403  0.00  0.00    +0.077 C 
BRANCH  18  20
ATOM     20  C   UNL     1       4.184   0.925  22.573  0.00  0.00    +0.007 C 
BRANCH  20  21
ATOM     21  C   UNL     1       5.239   0.462  23.578  0.00  0.00    -0.003 C 
ATOM     23  C   UNL     1       5.051  -0.999  23.951  0.00  0.00    +0.004 C 
ENDBRANCH  20  21
ENDBRANCH  18  20
ENDBRANCH  17  18
ENDBRANCH  11  14
ENDBRANCH   8  11
BRANCH   7  13
ATOM     13  C   UNL     1      -4.567   0.084  24.715  0.00  0.00    +0.099 C 
BRANCH  13  15
ATOM      2  O   UNL     1      -4.258   2.154  23.501  0.00  0.00    -0.276 OA
ATOM      4  N   UNL     1      -4.500   2.212  25.812  0.00  0.00    -0.311 N 
ATOM     15  C   UNL     1      -4.423   1.585  24.577  0.00  0.00    +0.214 C 
ATOM     29  H   UNL     1      -4.621   1.647  26.649  0.00  0.00    +0.149 HD
BRANCH   4  19
ATOM     19  C   UNL     1      -4.392   3.643  25.979  0.00  0.00    +0.141 C 
BRANCH  19  22
ATOM      6  N   UNL     1      -0.624   3.881  25.768  0.00  0.00    -0.263 NA
ATOM     22  C   UNL     1      -3.022   4.148  25.628  0.00  0.00    -0.012 A 
ATOM     24  C   UNL     1      -2.857   5.302  24.870  0.00  0.00    +0.008 A 
ATOM     25  C   UNL     1      -1.884   3.480  26.048  0.00  0.00    +0.115 A 
ATOM     26  C   UNL     1      -1.576   5.748  24.562  0.00  0.00    +0.020 A 
ATOM     27  C   UNL     1      -0.502   5.007  25.031  0.00  0.00    +0.111 A 
ENDBRANCH  19  22
ENDBRANCH   4  19
ENDBRANCH  13  15
ENDBRANCH   7  13
TORSDOF 9
ENDMDL
MODEL 2
REMARK VINA RESULT:      -5.3      1.403      4.978
REMARK  Name = 26742993
REMARK  10 active torsions:
REMARK  status: ('A' for Active; 'I' for Inactive)
REMARK    1  A    between atoms: N_4  and  C_19
REMARK    2  A    between atoms: C_7  and  C_13
REMARK    3  A    between atoms: C_8  and  C_11
REMARK    4  A    between atoms: C_11  and  C_14
REMARK    5  A    between atoms: C_13  and  C_15
REMARK    6  A    between atoms: C_17  and  C_18
REMARK    7  A    between atoms: C_18  and  C_20
REMARK    8  A    between atoms: C_19  and  C_22
REMARK    9  A    between atoms: C_20  and  C_21
REMARK   10  A    between atoms: C_21  and  C_23
REMARK                            x       y       z     vdW  Elec       q    Type
REMARK                         _______ _______ _______ _____ _____    ______ ____
ROOT
ATOM      3  N   UNL     1      -0.062   4.925  24.311  0.00  0.00    -0.316 NA
ATOM      7  C   UNL     1      -2.447   3.874  25.693  0.00  0.00    +0.004 C 
ATOM      8  C   UNL     1      -1.226   2.990  25.343  0.00  0.00    +0.012 C 
ATOM      9  C   UNL     1      -1.995   5.340  25.793  0.00  0.00    +0.019 C 
ATOM     10  C   UNL     1      -0.465   3.531  24.121  0.00  0.00    +0.085 C 
ATOM     12  C   UNL     1      -1.211   5.793  24.563  0.00  0.00    +0.081 C 
ATOM     28  H   UNL     1       0.431   5.250  23.479  0.00  0.00    +0.122 HD
ENDROOT
BRANCH   8  11
ATOM     11  C   UNL     1      -1.590   1.519  25.141  0.00  0.00    +0.064 C 
BRANCH  11  14
ATOM      1  O   UNL     1       0.423  -0.827  23.294  0.00  0.00    -0.359 OA
ATOM      5  N   UNL     1      -0.723  -0.475  23.996  0.00  0.00    -0.083 NA
ATOM     14  C   UNL     1      -0.533   0.797  24.354  0.00  0.00    +0.084 A 
ATOM     16  C   UNL     1       0.704   1.298  23.912  0.00  0.00    +0.071 A 
ATOM     17  C   UNL     1       1.265   0.237  23.250  0.00  0.00    +0.138 A 
BRANCH  17  18
ATOM     18  C   UNL     1       2.535   0.040  22.541  0.00  0.00    +0.077 C 
BRANCH  18  20
ATOM     20  C   UNL     1       3.622   1.059  22.950  0.00  0.00    +0.007 C 
BRANCH  20  21
ATOM     21  C   UNL     1       4.995   0.413  23.133  0.00  0.00    -0.003 C 
ATOM     23  C   UNL     1       4.910  -0.853  23.970  0.00  0.00    +0.004 C 
ENDBRANCH  20  21
ENDBRANCH  18  20
ENDBRANCH  17  18
ENDBRANCH  11  14
ENDBRANCH   8  11
BRANCH   7  13
ATOM     13  C   UNL     1      -3.620   3.731  24.716  0.00  0.00    +0.099 C 
BRANCH  13  15
ATOM      2  O   UNL     1      -5.418   2.827  26.060  0.00  0.00    -0.276 OA
ATOM      4  N   UNL     1      -4.460   1.509  24.403  0.00  0.00    -0.311 N 
ATOM     15  C   UNL     1      -4.605   2.666  25.153  0.00  0.00    +0.214 C 
ATOM     29  H   UNL     1      -3.743   1.471  23.684  0.00  0.00    +0.149 HD
BRANCH   4  19
ATOM     19  C   UNL     1      -5.269   0.330  24.607  0.00  0.00    +0.141 C 
BRANCH  19  22
ATOM      6  N   UNL     1      -3.658  -2.989  23.774  0.00  0.00    -0.263 NA
ATOM     22  C   UNL     1      -4.432  -0.910  24.736  0.00  0.00    -0.012 A 
ATOM     24  C   UNL     1      -3.677  -1.149  25.878  0.00  0.00    +0.008 A 
ATOM     25  C   UNL     1      -4.389  -1.852  23.721  0.00  0.00    +0.115 A 
ATOM     26  C   UNL     1      -2.913  -2.306  25.971  0.00  0.00    +0.020 A 
ATOM     27  C   UNL     1      -2.938  -3.187  24.900  0.00  0.00    +0.111 A 
ENDBRANCH  19  22
ENDBRANCH   4  19
ENDBRANCH  13  15
ENDBRANCH   7  13
TORSDOF 9
ENDMDL
MODEL 3
REMARK VINA RESULT:      -4.6      1.572      6.532
REMARK  Name = 26742993
REMARK  10 active torsions:
REMARK  status: ('A' for Active; 'I' for Inactive)
REMARK    1  A    between atoms: N_4  and  C_19
REMARK    2  A    between atoms: C_7  and  C_13
REMARK    3  A    between atoms: C_8  and  C_11
REMARK    4  A    between atoms: C_11  and  C_14
REMARK    5  A    between atoms: C_13  and  C_15
REMARK    6  A    between atoms: C_17  and  C_18
REMARK    7  A    between atoms: C_18  and  C_20
REMARK    8  A    between atoms: C_19  and  C_22
REMARK    9  A    between atoms: C_20  and  C_21
REMARK   10  A    between atoms: C_21  and  C_23
REMARK                            x       y       z     vdW  Elec       q    Type
REMARK                         _______ _______ _______ _____ _____    ______ ____
ROOT
ATOM      3  N   UNL     1      -1.747  -3.273  25.053  0.00  0.00    -0.316 NA
ATOM      7  C   UNL     1      -1.691  -0.325  24.938  0.00  0.00    +0.004 C 
ATOM      8  C   UNL     1      -2.998  -1.142  24.806  0.00  0.00    +0.012 C 
ATOM      9  C   UNL     1      -0.655  -1.156  25.711  0.00  0.00    +0.019 C 
ATOM     10  C   UNL     1      -2.733  -2.551  24.248  0.00  0.00    +0.085 C 
ATOM     12  C   UNL     1      -0.475  -2.556  25.125  0.00  0.00    +0.081 C 
ATOM     28  H   UNL     1      -1.592  -4.195  24.649  0.00  0.00    +0.122 HD
ENDROOT
BRANCH   8  11
ATOM     11  C   UNL     1      -4.069  -0.430  23.979  0.00  0.00    +0.064 C 
BRANCH  11  14
ATOM      1  O   UNL     1      -5.507   2.279  25.864  0.00  0.00    -0.359 OA
ATOM      5  N   UNL     1      -5.415   0.938  25.513  0.00  0.00    -0.083 NA
ATOM     14  C   UNL     1      -4.449   0.887  24.593  0.00  0.00    +0.084 A 
ATOM     16  C   UNL     1      -3.900   2.153  24.323  0.00  0.00    +0.071 A 
ATOM     17  C   UNL     1      -4.600   2.993  25.149  0.00  0.00    +0.138 A 
BRANCH  17  18
ATOM     18  C   UNL     1      -4.561   4.439  25.396  0.00  0.00    +0.077 C 
BRANCH  18  20
ATOM     20  C   UNL     1      -3.323   4.881  26.207  0.00  0.00    +0.007 C 
BRANCH  20  21
ATOM     21  C   UNL     1      -2.036   4.209  25.730  0.00  0.00    -0.003 C 
ATOM     23  C   UNL     1      -1.154   5.177  24.957  0.00  0.00    +0.004 C 
ENDBRANCH  20  21
ENDBRANCH  18  20
ENDBRANCH  17  18
ENDBRANCH  11  14
ENDBRANCH   8  11
BRANCH   7  13
ATOM     13  C   UNL     1      -1.117   0.155  23.600  0.00  0.00    +0.099 C 
BRANCH  13  15
ATOM      2  O   UNL     1       0.182   1.941  24.588  0.00  0.00    -0.276 OA
ATOM      4  N   UNL     1       1.130   0.629  22.920  0.00  0.00    -0.311 N 
ATOM     15  C   UNL     1       0.114   1.018  23.780  0.00  0.00    +0.214 C 
ATOM     29  H   UNL     1       0.967  -0.140  22.275  0.00  0.00    +0.149 HD
BRANCH   4  19
ATOM     19  C   UNL     1       2.419   1.280  22.875  0.00  0.00    +0.141 C 
BRANCH  19  22
ATOM      6  N   UNL     1       4.240  -1.873  23.891  0.00  0.00    -0.263 NA
ATOM     22  C   UNL     1       3.534   0.347  23.247  0.00  0.00    -0.012 A 
ATOM     24  C   UNL     1       4.851   0.790  23.302  0.00  0.00    +0.008 A 
ATOM     25  C   UNL     1       3.284  -0.982  23.547  0.00  0.00    +0.115 A 
ATOM     26  C   UNL     1       5.863  -0.097  23.652  0.00  0.00    +0.020 A 
ATOM     27  C   UNL     1       5.508  -1.407  23.935  0.00  0.00    +0.111 A 
ENDBRANCH  19  22
ENDBRANCH   4  19
ENDBRANCH  13  15
ENDBRANCH   7  13
TORSDOF 9
ENDMDL
MODEL 4
REMARK VINA RESULT:      -4.1      1.886      6.716
REMARK  Name = 26742993
REMARK  10 active torsions:
REMARK  status: ('A' for Active; 'I' for Inactive)
REMARK    1  A    between atoms: N_4  and  C_19
REMARK    2  A    between atoms: C_7  and  C_13
REMARK    3  A    between atoms: C_8  and  C_11
REMARK    4  A    between atoms: C_11  and  C_14
REMARK    5  A    between atoms: C_13  and  C_15
REMARK    6  A    between atoms: C_17  and  C_18
REMARK    7  A    between atoms: C_18  and  C_20
REMARK    8  A    between atoms: C_19  and  C_22
REMARK    9  A    between atoms: C_20  and  C_21
REMARK   10  A    between atoms: C_21  and  C_23
REMARK                            x       y       z     vdW  Elec       q    Type
REMARK                         _______ _______ _______ _____ _____    ______ ____
ROOT
ATOM      3  N   UNL     1      -3.409  -1.561  25.605  0.00  0.00    -0.316 NA
ATOM      7  C   UNL     1      -0.667  -1.159  24.592  0.00  0.00    +0.004 C 
ATOM      8  C   UNL     1      -1.208  -0.437  25.849  0.00  0.00    +0.012 C 
ATOM      9  C   UNL     1      -1.462  -2.458  24.377  0.00  0.00    +0.019 C 
ATOM     10  C   UNL     1      -2.737  -0.275  25.797  0.00  0.00    +0.085 C 
ATOM     12  C   UNL     1      -2.972  -2.225  24.378  0.00  0.00    +0.081 C 
ATOM     28  H   UNL     1      -4.417  -1.412  25.568  0.00  0.00    +0.122 HD
ENDROOT
BRANCH   8  11
ATOM     11  C   UNL     1      -0.534   0.911  26.102  0.00  0.00    +0.064 C 
BRANCH  11  14
ATOM      1  O   UNL     1      -2.171   4.087  25.658  0.00  0.00    -0.359 OA
ATOM      5  N   UNL     1      -1.143   3.291  26.148  0.00  0.00    -0.083 NA
ATOM     14  C   UNL     1      -1.443   2.053  25.747  0.00  0.00    +0.084 A 
ATOM     16  C   UNL     1      -2.637   2.006  25.008  0.00  0.00    +0.071 A 
ATOM     17  C   UNL     1      -3.054   3.310  24.980  0.00  0.00    +0.138 A 
BRANCH  17  18
ATOM     18  C   UNL     1      -4.211   3.995  24.391  0.00  0.00    +0.077 C 
BRANCH  18  20
ATOM     20  C   UNL     1      -5.444   4.010  25.321  0.00  0.00    +0.007 C 
BRANCH  20  21
ATOM     21  C   UNL     1      -5.736   2.641  25.935  0.00  0.00    -0.003 C 
ATOM     23  C   UNL     1      -6.245   1.659  24.892  0.00  0.00    +0.004 C 
ENDBRANCH  20  21
ENDBRANCH  18  20
ENDBRANCH  17  18
ENDBRANCH  11  14
ENDBRANCH   8  11
BRANCH   7  13
ATOM     13  C   UNL     1      -0.679  -0.297  23.324  0.00  0.00    +0.099 C 
BRANCH  13  15
ATOM      2  O   UNL     1       1.089   1.315  23.681  0.00  0.00    -0.276 OA
ATOM      4  N   UNL     1       1.333  -0.296  22.024  0.00  0.00    -0.311 N 
ATOM     15  C   UNL     1       0.665   0.347  23.055  0.00  0.00    +0.214 C 
ATOM     29  H   UNL     1       0.886  -1.081  21.557  0.00  0.00    +0.149 HD
BRANCH   4  19
ATOM     19  C   UNL     1       2.638   0.110  21.555  0.00  0.00    +0.141 C 
BRANCH  19  22
ATOM      6  N   UNL     1       4.765  -1.623  24.157  0.00  0.00    -0.263 NA
ATOM     22  C   UNL     1       3.703  -0.123  22.586  0.00  0.00    -0.012 A 
ATOM     24  C   UNL     1       4.593   0.886  22.937  0.00  0.00    +0.008 A 
ATOM     25  C   UNL     1       3.831  -1.349  23.219  0.00  0.00    +0.115 A 
ATOM     26  C   UNL     1       5.569   0.643  23.898  0.00  0.00    +0.020 A 
ATOM     27  C   UNL     1       5.612  -0.618  24.472  0.00  0.00    +0.111 A 
ENDBRANCH  19  22
ENDBRANCH   4  19
ENDBRANCH  13  15
ENDBRANCH   7  13
TORSDOF 9
ENDMDL
MODEL 5
REMARK VINA RESULT:      -3.2      1.416      1.851
REMARK  Name = 26742993
REMARK  10 active torsions:
REMARK  status: ('A' for Active; 'I' for Inactive)
REMARK    1  A    between atoms: N_4  and  C_19
REMARK    2  A    between atoms: C_7  and  C_13
REMARK    3  A    between atoms: C_8  and  C_11
REMARK    4  A    between atoms: C_11  and  C_14
REMARK    5  A    between atoms: C_13  and  C_15
REMARK    6  A    between atoms: C_17  and  C_18
REMARK    7  A    between atoms: C_18  and  C_20
REMARK    8  A    between atoms: C_19  and  C_22
REMARK    9  A    between atoms: C_20  and  C_21
REMARK   10  A    between atoms: C_21  and  C_23
REMARK                            x       y       z     vdW  Elec       q    Type
REMARK                         _______ _______ _______ _____ _____    ______ ____
ROOT
ATOM      3  N   UNL     1      -1.520  -0.706  26.727  0.00  0.00    -0.316 NA
ATOM      7  C   UNL     1      -2.330  -2.045  24.225  0.00  0.00    +0.004 C 
ATOM      8  C   UNL     1      -1.085  -1.132  24.319  0.00  0.00    +0.012 C 
ATOM      9  C   UNL     1      -2.649  -2.605  25.621  0.00  0.00    +0.019 C 
ATOM     10  C   UNL     1      -1.233  -0.082  25.434  0.00  0.00    +0.085 C 
ATOM     12  C   UNL     1      -2.740  -1.510  26.682  0.00  0.00    +0.081 C 
ATOM     28  H   UNL     1      -1.620   0.019  27.436  0.00  0.00    +0.122 HD
ENDROOT
BRANCH   8  11
ATOM     11  C   UNL     1      -0.733  -0.459  22.992  0.00  0.00    +0.064 C 
BRANCH  11  14
ATOM      1  O   UNL     1       2.262   1.446  23.595  0.00  0.00    -0.359 OA
ATOM      5  N   UNL     1       0.916   1.173  23.802  0.00  0.00    -0.083 NA
ATOM     14  C   UNL     1       0.652   0.121  23.023  0.00  0.00    +0.084 A 
ATOM     16  C   UNL     1       1.782  -0.310  22.307  0.00  0.00    +0.071 A 
ATOM     17  C   UNL     1       2.767   0.556  22.703  0.00  0.00    +0.138 A 
BRANCH  17  18
ATOM     18  C   UNL     1       4.189   0.701  22.367  0.00  0.00    +0.077 C 
BRANCH  18  20
ATOM     20  C   UNL     1       5.105   0.735  23.610  0.00  0.00    +0.007 C 
BRANCH  20  21
ATOM     21  C   UNL     1       5.750  -0.620  23.904  0.00  0.00    -0.003 C 
ATOM     23  C   UNL     1       4.713  -1.731  23.964  0.00  0.00    +0.004 C 
ENDBRANCH  20  21
ENDBRANCH  18  20
ENDBRANCH  17  18
ENDBRANCH  11  14
ENDBRANCH   8  11
BRANCH   7  13
ATOM     13  C   UNL     1      -3.560  -1.361  23.618  0.00  0.00    +0.099 C 
BRANCH  13  15
ATOM      2  O   UNL     1      -4.460  -0.281  25.588  0.00  0.00    -0.276 OA
ATOM      4  N   UNL     1      -3.897   1.008  23.738  0.00  0.00    -0.311 N 
ATOM     15  C   UNL     1      -4.026  -0.179  24.444  0.00  0.00    +0.214 C 
ATOM     29  H   UNL     1      -3.542   0.983  22.786  0.00  0.00    +0.149 HD
BRANCH   4  19
ATOM     19  C   UNL     1      -4.269   2.294  24.282  0.00  0.00    +0.141 C 
BRANCH  19  22
ATOM      6  N   UNL     1      -0.774   3.713  24.021  0.00  0.00    -0.263 NA
ATOM     22  C   UNL     1      -3.072   3.165  24.532  0.00  0.00    -0.012 A 
ATOM     24  C   UNL     1      -3.119   4.197  25.463  0.00  0.00    +0.008 A 
ATOM     25  C   UNL     1      -1.887   2.967  23.843  0.00  0.00    +0.115 A 
ATOM     26  C   UNL     1      -1.995   4.987  25.674  0.00  0.00    +0.020 A 
ATOM     27  C   UNL     1      -0.857   4.706  24.934  0.00  0.00    +0.111 A 
ENDBRANCH  19  22
ENDBRANCH   4  19
ENDBRANCH  13  15
ENDBRANCH   7  13
TORSDOF 9
ENDMDL
MODEL 6
REMARK VINA RESULT:      -2.4     14.735     17.770
REMARK  Name = 26742993
REMARK  10 active torsions:
REMARK  status: ('A' for Active; 'I' for Inactive)
REMARK    1  A    between atoms: N_4  and  C_19
REMARK    2  A    between atoms: C_7  and  C_13
REMARK    3  A    between atoms: C_8  and  C_11
REMARK    4  A    between atoms: C_11  and  C_14
REMARK    5  A    between atoms: C_13  and  C_15
REMARK    6  A    between atoms: C_17  and  C_18
REMARK    7  A    between atoms: C_18  and  C_20
REMARK    8  A    between atoms: C_19  and  C_22
REMARK    9  A    between atoms: C_20  and  C_21
REMARK   10  A    between atoms: C_21  and  C_23
REMARK                            x       y       z     vdW  Elec       q    Type
REMARK                         _______ _______ _______ _____ _____    ______ ____
ROOT
ATOM      3  N   UNL     1      -5.614  -7.311  10.849  0.00  0.00    -0.316 NA
ATOM      7  C   UNL     1      -5.999  -9.890   9.468  0.00  0.00    +0.004 C 
ATOM      8  C   UNL     1      -6.693  -9.547  10.808  0.00  0.00    +0.012 C 
ATOM      9  C   UNL     1      -5.655  -8.584   8.732  0.00  0.00    +0.019 C 
ATOM     10  C   UNL     1      -5.882  -8.524  11.622  0.00  0.00    +0.085 C 
ATOM     12  C   UNL     1      -4.887  -7.602   9.615  0.00  0.00    +0.081 C 
ATOM     28  H   UNL     1      -5.070  -6.663  11.416  0.00  0.00    +0.122 HD
ENDROOT
BRANCH   8  11
ATOM     11  C   UNL     1      -7.004 -10.781  11.654  0.00  0.00    +0.064 C 
BRANCH  11  14
ATOM      1  O   UNL     1     -10.011 -10.192  13.546  0.00  0.00    -0.359 OA
ATOM      5  N   UNL     1      -9.338 -10.506  12.371  0.00  0.00    -0.083 NA
ATOM     14  C   UNL     1      -8.044 -10.482  12.697  0.00  0.00    +0.084 A 
ATOM     16  C   UNL     1      -7.839 -10.163  14.050  0.00  0.00    +0.071 A 
ATOM     17  C   UNL     1      -9.107  -9.991  14.539  0.00  0.00    +0.138 A 
BRANCH  17  18
ATOM     18  C   UNL     1      -9.649  -9.648  15.859  0.00  0.00    +0.077 C 
BRANCH  18  20
ATOM     20  C   UNL     1      -8.733  -8.698  16.661  0.00  0.00    +0.007 C 
BRANCH  20  21
ATOM     21  C   UNL     1      -7.943  -9.423  17.751  0.00  0.00    -0.003 C 
ATOM     23  C   UNL     1      -8.811 -10.424  18.497  0.00  0.00    +0.004 C 
ENDBRANCH  20  21
ENDBRANCH  18  20
ENDBRANCH  17  18
ENDBRANCH  11  14
ENDBRANCH   8  11
BRANCH   7  13
ATOM     13  C   UNL     1      -4.757 -10.775   9.618  0.00  0.00    +0.099 C 
BRANCH  13  15
ATOM      2  O   UNL     1      -3.152  -8.999   9.970  0.00  0.00    -0.276 OA
ATOM      4  N   UNL     1      -3.226 -10.781  11.459  0.00  0.00    -0.311 N 
ATOM     15  C   UNL     1      -3.631 -10.067  10.342  0.00  0.00    +0.214 C 
ATOM     29  H   UNL     1      -3.676 -11.667  11.673  0.00  0.00    +0.149 HD
BRANCH   4  19
ATOM     19  C   UNL     1      -2.165 -10.340  12.336  0.00  0.00    +0.141 C 
BRANCH  19  22
ATOM      6  N   UNL     1      -4.255 -10.751  15.461  0.00  0.00    -0.263 NA
ATOM     22  C   UNL     1      -2.533 -10.493  13.784  0.00  0.00    -0.012 A 
ATOM     24  C   UNL     1      -1.556 -10.519  14.773  0.00  0.00    +0.008 A 
ATOM     25  C   UNL     1      -3.856 -10.612  14.177  0.00  0.00    +0.115 A 
ATOM     26  C   UNL     1      -1.926 -10.660  16.105  0.00  0.00    +0.020 A 
ATOM     27  C   UNL     1      -3.278 -10.771  16.394  0.00  0.00    +0.111 A 
ENDBRANCH  19  22
ENDBRANCH   4  19
ENDBRANCH  13  15
ENDBRANCH   7  13
TORSDOF 9
ENDMDL
MODEL 7
REMARK VINA RESULT:      -1.5     14.377     16.856
REMARK  Name = 26742993
REMARK  10 active torsions:
REMARK  status: ('A' for Active; 'I' for Inactive)
REMARK    1  A    between atoms: N_4  and  C_19
REMARK    2  A    between atoms: C_7  and  C_13
REMARK    3  A    between atoms: C_8  and  C_11
REMARK    4  A    between atoms: C_11  and  C_14
REMARK    5  A    between atoms: C_13  and  C_15
REMARK    6  A    between atoms: C_17  and  C_18
REMARK    7  A    between atoms: C_18  and  C_20
REMARK    8  A    between atoms: C_19  and  C_22
REMARK    9  A    between atoms: C_20  and  C_21
REMARK   10  A    between atoms: C_21  and  C_23
REMARK                            x       y       z     vdW  Elec       q    Type
REMARK                         _______ _______ _______ _____ _____    ______ ____
ROOT
ATOM      3  N   UNL     1      -3.776 -10.211  15.993  0.00  0.00    -0.316 NA
ATOM      7  C   UNL     1      -5.738 -10.575  13.820  0.00  0.00    +0.004 C 
ATOM      8  C   UNL     1      -4.218 -10.781  13.617  0.00  0.00    +0.012 C 
ATOM      9  C   UNL     1      -6.079 -10.781  15.305  0.00  0.00    +0.019 C 
ATOM     10  C   UNL     1      -3.394  -9.939  14.607  0.00  0.00    +0.085 C 
ATOM     12  C   UNL     1      -5.194  -9.946  16.228  0.00  0.00    +0.081 C 
ATOM     28  H   UNL     1      -3.216  -9.631  16.617  0.00  0.00    +0.122 HD
ENDROOT
BRANCH   8  11
ATOM     11  C   UNL     1      -3.764 -10.517  12.181  0.00  0.00    +0.064 C 
BRANCH  11  14
ATOM      1  O   UNL     1      -0.431  -9.340  12.862  0.00  0.00    -0.359 OA
ATOM      5  N   UNL     1      -1.620  -9.950  13.239  0.00  0.00    -0.083 NA
ATOM     14  C   UNL     1      -2.383  -9.929  12.143  0.00  0.00    +0.084 A 
ATOM     16  C   UNL     1      -1.735  -9.323  11.053  0.00  0.00    +0.071 A 
ATOM     17  C   UNL     1      -0.511  -8.971  11.558  0.00  0.00    +0.138 A 
BRANCH  17  18
ATOM     18  C   UNL     1       0.669  -8.307  10.991  0.00  0.00    +0.077 C 
BRANCH  18  20
ATOM     20  C   UNL     1       1.350  -7.334  11.979  0.00  0.00    +0.007 C 
BRANCH  20  21
ATOM     21  C   UNL     1       2.829  -7.111  11.661  0.00  0.00    -0.003 C 
ATOM     23  C   UNL     1       3.350  -5.834  12.299  0.00  0.00    +0.004 C 
ENDBRANCH  20  21
ENDBRANCH  18  20
ENDBRANCH  17  18
ENDBRANCH  11  14
ENDBRANCH   8  11
BRANCH   7  13
ATOM     13  C   UNL     1      -6.256  -9.220  13.325  0.00  0.00    +0.099 C 
BRANCH  13  15
ATOM      2  O   UNL     1      -8.561  -9.127  12.597  0.00  0.00    -0.276 OA
ATOM      4  N   UNL     1      -6.919  -9.803  11.098  0.00  0.00    -0.311 N 
ATOM     15  C   UNL     1      -7.387  -9.367  12.328  0.00  0.00    +0.214 C 
ATOM     29  H   UNL     1      -5.926  -9.990  10.983  0.00  0.00    +0.149 HD
BRANCH   4  19
ATOM     19  C   UNL     1      -7.781 -10.031   9.961  0.00  0.00    +0.141 C 
BRANCH  19  22
ATOM      6  N   UNL     1     -10.178  -7.247   9.067  0.00  0.00    -0.263 NA
ATOM     22  C   UNL     1      -8.311  -8.748   9.391  0.00  0.00    -0.012 A 
ATOM     24  C   UNL     1      -7.485  -7.885   8.680  0.00  0.00    +0.008 A 
ATOM     25  C   UNL     1      -9.638  -8.386   9.556  0.00  0.00    +0.115 A 
ATOM     26  C   UNL     1      -8.003  -6.704   8.161  0.00  0.00    +0.020 A 
ATOM     27  C   UNL     1      -9.346  -6.434   8.381  0.00  0.00    +0.111 A 
ENDBRANCH  19  22
ENDBRANCH   4  19
ENDBRANCH  13  15
ENDBRANCH   7  13
TORSDOF 9
ENDMDL
MODEL 8
REMARK VINA RESULT:      -1.5      2.393      3.831
REMARK  Name = 26742993
REMARK  10 active torsions:
REMARK  status: ('A' for Active; 'I' for Inactive)
REMARK    1  A    between atoms: N_4  and  C_19
REMARK    2  A    between atoms: C_7  and  C_13
REMARK    3  A    between atoms: C_8  and  C_11
REMARK    4  A    between atoms: C_11  and  C_14
REMARK    5  A    between atoms: C_13  and  C_15
REMARK    6  A    between atoms: C_17  and  C_18
REMARK    7  A    between atoms: C_18  and  C_20
REMARK    8  A    between atoms: C_19  and  C_22
REMARK    9  A    between atoms: C_20  and  C_21
REMARK   10  A    between atoms: C_21  and  C_23
REMARK                            x       y       z     vdW  Elec       q    Type
REMARK                         _______ _______ _______ _____ _____    ______ ____
ROOT
ATOM      3  N   UNL     1      -2.000  -1.002  26.908  0.00  0.00    -0.316 NA
ATOM      7  C   UNL     1      -1.850  -2.537  24.392  0.00  0.00    +0.004 C 
ATOM      8  C   UNL     1      -0.691  -1.645  24.898  0.00  0.00    +0.012 C 
ATOM      9  C   UNL     1      -2.713  -2.967  25.590  0.00  0.00    +0.019 C 
ATOM     10  C   UNL     1      -1.203  -0.500  25.788  0.00  0.00    +0.085 C 
ATOM     12  C   UNL     1      -3.149  -1.782  26.450  0.00  0.00    +0.081 C 
ATOM     28  H   UNL     1      -2.328  -0.216  27.468  0.00  0.00    +0.122 HD
ENDROOT
BRANCH   8  11
ATOM     11  C   UNL     1       0.181  -1.098  23.768  0.00  0.00    +0.064 C 
BRANCH  11  14
ATOM      1  O   UNL     1       1.158   2.363  23.942  0.00  0.00    -0.359 OA
ATOM      5  N   UNL     1       1.443   1.003  23.936  0.00  0.00    -0.083 NA
ATOM     14  C   UNL     1       0.258   0.401  23.812  0.00  0.00    +0.084 A 
ATOM     16  C   UNL     1      -0.803   1.320  23.736  0.00  0.00    +0.071 A 
ATOM     17  C   UNL     1      -0.183   2.539  23.822  0.00  0.00    +0.138 A 
BRANCH  17  18
ATOM     18  C   UNL     1      -0.663   3.926  23.809  0.00  0.00    +0.077 C 
BRANCH  18  20
ATOM     20  C   UNL     1      -0.952   4.479  25.222  0.00  0.00    +0.007 C 
BRANCH  20  21
ATOM     21  C   UNL     1      -1.372   3.388  26.207  0.00  0.00    -0.003 C 
ATOM     23  C   UNL     1      -0.171   2.786  26.919  0.00  0.00    +0.004 C 
ENDBRANCH  20  21
ENDBRANCH  18  20
ENDBRANCH  17  18
ENDBRANCH  11  14
ENDBRANCH   8  11
BRANCH   7  13
ATOM     13  C   UNL     1      -2.712  -1.883  23.306  0.00  0.00    +0.099 C 
BRANCH  13  15
ATOM      2  O   UNL     1      -5.053  -2.240  23.802  0.00  0.00    -0.276 OA
ATOM      4  N   UNL     1      -4.083  -0.188  24.299  0.00  0.00    -0.311 N 
ATOM     15  C   UNL     1      -4.082  -1.489  23.819  0.00  0.00    +0.214 C 
ATOM     29  H   UNL     1      -3.227   0.359  24.253  0.00  0.00    +0.149 HD
BRANCH   4  19
ATOM     19  C   UNL     1      -5.257   0.450  24.848  0.00  0.00    +0.141 C 
BRANCH  19  22
ATOM      6  N   UNL     1      -5.719   4.039  25.947  0.00  0.00    -0.263 NA
ATOM     22  C   UNL     1      -5.109   1.943  24.908  0.00  0.00    -0.012 A 
ATOM     24  C   UNL     1      -4.268   2.615  24.028  0.00  0.00    +0.008 A 
ATOM     25  C   UNL     1      -5.805   2.694  25.841  0.00  0.00    +0.115 A 
ATOM     26  C   UNL     1      -4.152   3.999  24.105  0.00  0.00    +0.020 A 
ATOM     27  C   UNL     1      -4.893   4.657  25.075  0.00  0.00    +0.111 A 
ENDBRANCH  19  22
ENDBRANCH   4  19
ENDBRANCH  13  15
ENDBRANCH   7  13
TORSDOF 9
ENDMDL
