MODEL 1
REMARK VINA RESULT:      -0.2      0.000      0.000
REMARK  Name = 51136755
REMARK  12 active torsions:
REMARK  status: ('A' for Active; 'I' for Inactive)
REMARK    1  A    between atoms: O_2  and  C_17
REMARK    2  A    between atoms: N_6  and  C_26
REMARK    3  A    between atoms: C_7  and  C_11
REMARK    4  A    between atoms: C_8  and  C_13
REMARK    5  A    between atoms: C_11  and  C_14
REMARK    6  A    between atoms: C_13  and  C_17
REMARK    7  A    between atoms: C_22  and  C_23
REMARK    8  A    between atoms: C_23  and  C_27
REMARK    9  A    between atoms: C_23  and  C_28
REMARK   10  A    between atoms: C_23  and  C_29
REMARK   11  A    between atoms: C_26  and  C_30
REMARK   12  A    between atoms: C_26  and  C_31
REMARK                            x       y       z     vdW  Elec       q    Type
REMARK                         _______ _______ _______ _____ _____    ______ ____
ROOT
ATOM      1  O   UNL     1      -0.127  -8.283  14.269  0.00  0.00    -0.253 OA
ATOM      4  N   UNL     1      -1.707  -9.930  13.852  0.00  0.00    -0.285 N 
ATOM      6  N   UNL     1      -0.626  -8.786  12.087  0.00  0.00    -0.297 N 
ATOM      7  C   UNL     1      -4.020 -10.554  13.215  0.00  0.00    +0.016 C 
ATOM      8  C   UNL     1      -4.335 -10.781  14.717  0.00  0.00    +0.006 C 
ATOM      9  C   UNL     1      -3.408  -9.953  15.626  0.00  0.00    +0.023 C 
ATOM     10  C   UNL     1      -2.518 -10.776  12.964  0.00  0.00    +0.113 C 
ATOM     12  C   UNL     1      -1.937 -10.173  15.277  0.00  0.00    +0.109 C 
ATOM     16  C   UNL     1      -0.774  -8.956  13.459  0.00  0.00    +0.302 C 
ATOM     32  H   UNL     1      -1.266  -9.222  11.439  0.00  0.00    +0.150 HD
ENDROOT
BRANCH   6  26
ATOM     26  C   UNL     1       0.289  -7.817  11.527  0.00  0.00    +0.068 C 
ATOM     30  C   UNL     1       1.532  -8.512  10.987  0.00  0.00    +0.027 C 
ATOM     31  C   UNL     1       0.654  -6.764  12.566  0.00  0.00    +0.027 C 
ENDBRANCH   6  26
BRANCH   7  11
ATOM     11  C   UNL     1      -4.455  -9.183  12.686  0.00  0.00    +0.061 C 
BRANCH  11  14
ATOM      5  N   UNL     1      -4.300  -9.203  10.289  0.00  0.00    -0.287 NA
ATOM     14  C   UNL     1      -5.073  -9.335  11.316  0.00  0.00    +0.044 C 
ATOM     15  C   UNL     1      -6.524  -9.632  11.215  0.00  0.00    -0.001 A 
ATOM     18  C   UNL     1      -6.981 -10.141   9.993  0.00  0.00    -0.037 A 
ATOM     19  C   UNL     1      -5.990 -10.363   8.890  0.00  0.00    +0.059 C 
ATOM     20  C   UNL     1      -4.911  -9.289   8.958  0.00  0.00    +0.146 C 
ATOM     21  C   UNL     1      -7.411  -9.436  12.276  0.00  0.00    +0.014 A 
ATOM     22  C   UNL     1      -8.758  -9.761  12.115  0.00  0.00    -0.041 A 
ATOM     24  C   UNL     1      -8.328 -10.479   9.846  0.00  0.00    +0.004 A 
ATOM     25  C   UNL     1      -9.216 -10.284  10.906  0.00  0.00    +0.004 A 
BRANCH  22  23
ATOM     23  C   UNL     1      -9.714  -9.554  13.242  0.00  0.00    -0.013 C 
ATOM     27  C   UNL     1     -10.681 -10.769  13.393  0.00  0.00    +0.015 C 
ATOM     28  C   UNL     1     -10.587  -8.282  13.017  0.00  0.00    +0.015 C 
ATOM     29  C   UNL     1      -9.058  -9.366  14.651  0.00  0.00    +0.015 C 
ENDBRANCH  22  23
ENDBRANCH  11  14
ENDBRANCH   7  11
BRANCH   8  13
ATOM     13  C   UNL     1      -5.801 -10.528  15.067  0.00  0.00    +0.124 C 
BRANCH  13  17
ATOM      3  O   UNL     1      -5.899 -10.738  17.494  0.00  0.00    -0.251 OA
ATOM     17  C   UNL     1      -5.958 -10.051  16.484  0.00  0.00    +0.305 C 
BRANCH  17   2
ATOM      2  O   UNL     1      -6.183  -8.712  16.495  0.00  0.00    -0.481 OA
ATOM     33  H   UNL     1      -7.076  -8.489  16.157  0.00  0.00    +0.295 HD
ENDBRANCH  17   2
ENDBRANCH  13  17
ENDBRANCH   8  13
TORSDOF 7
ENDMDL
MODEL 2
REMARK VINA RESULT:       3.5     15.190     17.333
REMARK  Name = 51136755
REMARK  12 active torsions:
REMARK  status: ('A' for Active; 'I' for Inactive)
REMARK    1  A    between atoms: O_2  and  C_17
REMARK    2  A    between atoms: N_6  and  C_26
REMARK    3  A    between atoms: C_7  and  C_11
REMARK    4  A    between atoms: C_8  and  C_13
REMARK    5  A    between atoms: C_11  and  C_14
REMARK    6  A    between atoms: C_13  and  C_17
REMARK    7  A    between atoms: C_22  and  C_23
REMARK    8  A    between atoms: C_23  and  C_27
REMARK    9  A    between atoms: C_23  and  C_28
REMARK   10  A    between atoms: C_23  and  C_29
REMARK   11  A    between atoms: C_26  and  C_30
REMARK   12  A    between atoms: C_26  and  C_31
REMARK                            x       y       z     vdW  Elec       q    Type
REMARK                         _______ _______ _______ _____ _____    ______ ____
ROOT
ATOM      1  O   UNL     1      -2.382   4.086  23.743  0.00  0.00    -0.253 OA
ATOM      4  N   UNL     1      -0.519   3.040  24.645  0.00  0.00    -0.285 N 
ATOM      6  N   UNL     1      -1.926   1.932  23.101  0.00  0.00    -0.297 N 
ATOM      7  C   UNL     1       0.449   1.435  26.267  0.00  0.00    +0.016 C 
ATOM      8  C   UNL     1       0.810   2.633  27.184  0.00  0.00    +0.006 C 
ATOM      9  C   UNL     1      -0.109   3.842  26.932  0.00  0.00    +0.023 C 
ATOM     10  C   UNL     1       0.400   1.902  24.803  0.00  0.00    +0.113 C 
ATOM     12  C   UNL     1      -0.160   4.208  25.450  0.00  0.00    +0.109 C 
ATOM     16  C   UNL     1      -1.656   3.089  23.822  0.00  0.00    +0.302 C 
ATOM     32  H   UNL     1      -1.426   1.075  23.290  0.00  0.00    +0.150 HD
ENDROOT
BRANCH   6  26
ATOM     26  C   UNL     1      -3.065   1.825  22.218  0.00  0.00    +0.068 C 
ATOM     30  C   UNL     1      -2.607   1.777  20.766  0.00  0.00    +0.027 C 
ATOM     31  C   UNL     1      -4.034   2.978  22.452  0.00  0.00    +0.027 C 
ENDBRANCH   6  26
BRANCH   7  11
ATOM     11  C   UNL     1      -0.856   0.728  26.649  0.00  0.00    +0.061 C 
BRANCH  11  14
ATOM      5  N   UNL     1      -0.354  -0.952  25.008  0.00  0.00    -0.287 NA
ATOM     14  C   UNL     1      -1.270  -0.216  25.545  0.00  0.00    +0.044 C 
ATOM     15  C   UNL     1      -2.697  -0.258  25.137  0.00  0.00    -0.001 A 
ATOM     18  C   UNL     1      -3.114  -1.381  24.411  0.00  0.00    -0.037 A 
ATOM     19  C   UNL     1      -2.113  -2.457  24.112  0.00  0.00    +0.059 C 
ATOM     20  C   UNL     1      -0.744  -1.825  23.895  0.00  0.00    +0.146 C 
ATOM     21  C   UNL     1      -3.605   0.754  25.459  0.00  0.00    +0.014 A 
ATOM     22  C   UNL     1      -4.937   0.633  25.062  0.00  0.00    -0.041 A 
ATOM     24  C   UNL     1      -4.453  -1.501  24.033  0.00  0.00    +0.004 A 
ATOM     25  C   UNL     1      -5.362  -0.491  24.354  0.00  0.00    +0.004 A 
BRANCH  22  23
ATOM     23  C   UNL     1      -5.914   1.709  25.400  0.00  0.00    -0.013 C 
ATOM     27  C   UNL     1      -7.052   1.793  24.336  0.00  0.00    +0.015 C 
ATOM     28  C   UNL     1      -5.221   3.105  25.458  0.00  0.00    +0.015 C 
ATOM     29  C   UNL     1      -6.641   1.547  26.777  0.00  0.00    +0.015 C 
ENDBRANCH  22  23
ENDBRANCH  11  14
ENDBRANCH   7  11
BRANCH   8  13
ATOM     13  C   UNL     1       0.828   2.269  28.668  0.00  0.00    +0.124 C 
BRANCH  13  17
ATOM      3  O   UNL     1       3.123   3.070  28.847  0.00  0.00    -0.251 OA
ATOM     17  C   UNL     1       2.214   2.356  29.244  0.00  0.00    +0.305 C 
BRANCH  17   2
ATOM      2  O   UNL     1       2.327   1.508  30.299  0.00  0.00    -0.481 OA
ATOM     33  H   UNL     1       1.501   1.002  30.451  0.00  0.00    +0.295 HD
ENDBRANCH  17   2
ENDBRANCH  13  17
ENDBRANCH   8  13
TORSDOF 7
ENDMDL
MODEL 3
REMARK VINA RESULT:       3.6     14.324     16.508
REMARK  Name = 51136755
REMARK  12 active torsions:
REMARK  status: ('A' for Active; 'I' for Inactive)
REMARK    1  A    between atoms: O_2  and  C_17
REMARK    2  A    between atoms: N_6  and  C_26
REMARK    3  A    between atoms: C_7  and  C_11
REMARK    4  A    between atoms: C_8  and  C_13
REMARK    5  A    between atoms: C_11  and  C_14
REMARK    6  A    between atoms: C_13  and  C_17
REMARK    7  A    between atoms: C_22  and  C_23
REMARK    8  A    between atoms: C_23  and  C_27
REMARK    9  A    between atoms: C_23  and  C_28
REMARK   10  A    between atoms: C_23  and  C_29
REMARK   11  A    between atoms: C_26  and  C_30
REMARK   12  A    between atoms: C_26  and  C_31
REMARK                            x       y       z     vdW  Elec       q    Type
REMARK                         _______ _______ _______ _____ _____    ______ ____
ROOT
ATOM      1  O   UNL     1       3.000  -1.398  23.146  0.00  0.00    -0.253 OA
ATOM      4  N   UNL     1       0.819  -0.641  22.929  0.00  0.00    -0.285 N 
ATOM      6  N   UNL     1       2.644   0.861  22.969  0.00  0.00    -0.297 N 
ATOM      7  C   UNL     1      -1.194   0.386  23.947  0.00  0.00    +0.016 C 
ATOM      8  C   UNL     1      -1.811  -1.032  24.073  0.00  0.00    +0.006 C 
ATOM      9  C   UNL     1      -0.727  -2.122  24.137  0.00  0.00    +0.023 C 
ATOM     10  C   UNL     1      -0.196   0.412  22.776  0.00  0.00    +0.113 C 
ATOM     12  C   UNL     1       0.265  -1.995  22.981  0.00  0.00    +0.109 C 
ATOM     16  C   UNL     1       2.208  -0.458  23.020  0.00  0.00    +0.302 C 
ATOM     32  H   UNL     1       1.988   1.626  23.026  0.00  0.00    +0.150 HD
ENDROOT
BRANCH   6  26
ATOM     26  C   UNL     1       4.044   1.211  23.060  0.00  0.00    +0.068 C 
ATOM     30  C   UNL     1       4.759   0.876  21.758  0.00  0.00    +0.027 C 
ATOM     31  C   UNL     1       4.696   0.508  24.244  0.00  0.00    +0.027 C 
ENDBRANCH   6  26
BRANCH   7  11
ATOM     11  C   UNL     1      -0.528   0.894  25.231  0.00  0.00    +0.061 C 
BRANCH  11  14
ATOM      5  N   UNL     1       0.289   3.127  25.570  0.00  0.00    -0.287 NA
ATOM     14  C   UNL     1      -0.747   2.382  25.369  0.00  0.00    +0.044 C 
ATOM     15  C   UNL     1      -2.130   2.913  25.261  0.00  0.00    -0.001 A 
ATOM     18  C   UNL     1      -2.261   4.285  25.007  0.00  0.00    -0.037 A 
ATOM     19  C   UNL     1      -1.018   5.109  24.848  0.00  0.00    +0.059 C 
ATOM     20  C   UNL     1       0.069   4.564  25.765  0.00  0.00    +0.146 C 
ATOM     21  C   UNL     1      -3.262   2.105  25.389  0.00  0.00    +0.014 A 
ATOM     22  C   UNL     1      -4.529   2.673  25.252  0.00  0.00    -0.041 A 
ATOM     24  C   UNL     1      -3.533   4.840  24.854  0.00  0.00    +0.004 A 
ATOM     25  C   UNL     1      -4.666   4.034  24.982  0.00  0.00    +0.004 A 
BRANCH  22  23
ATOM     23  C   UNL     1      -5.745   1.818  25.389  0.00  0.00    -0.013 C 
ATOM     27  C   UNL     1      -6.305   1.862  26.845  0.00  0.00    +0.015 C 
ATOM     28  C   UNL     1      -5.431   0.329  25.051  0.00  0.00    +0.015 C 
ATOM     29  C   UNL     1      -6.948   2.210  24.468  0.00  0.00    +0.015 C 
ENDBRANCH  22  23
ENDBRANCH  11  14
ENDBRANCH   7  11
BRANCH   8  13
ATOM     13  C   UNL     1      -2.778  -1.163  25.249  0.00  0.00    +0.124 C 
BRANCH  13  17
ATOM      3  O   UNL     1      -3.446  -3.356  26.078  0.00  0.00    -0.251 OA
ATOM     17  C   UNL     1      -3.503  -2.480  25.227  0.00  0.00    +0.305 C 
BRANCH  17   2
ATOM      2  O   UNL     1      -4.254  -2.571  24.100  0.00  0.00    -0.481 OA
ATOM     33  H   UNL     1      -4.042  -3.377  23.584  0.00  0.00    +0.295 HD
ENDBRANCH  17   2
ENDBRANCH  13  17
ENDBRANCH   8  13
TORSDOF 7
ENDMDL
