MODEL 1
REMARK VINA RESULT:       0.8      0.000      0.000
REMARK  Name = 7051361
REMARK  5 active torsions:
REMARK  status: ('A' for Active; 'I' for Inactive)
REMARK    1  A    between atoms: S_1  and  N_11
REMARK    2  A    between atoms: S_1  and  C_25
REMARK    3  A    between atoms: N_11  and  C_22
REMARK    4  A    between atoms: C_21  and  C_24
REMARK    5  A    between atoms: C_28  and  C_31
REMARK                            x       y       z     vdW  Elec       q    Type
REMARK                         _______ _______ _______ _____ _____    ______ ____
ROOT
ATOM      5  O   UNL     1      -0.297   2.562  26.257  0.00  0.00    -0.266 OA
ATOM      6  O   UNL     1      -5.870   0.897  26.700  0.00  0.00    -0.276 OA
ATOM      9  N   UNL     1      -5.217   2.555  25.209  0.00  0.00    -0.301 N 
ATOM     10  N   UNL     1      -2.113   3.275  24.959  0.00  0.00    -0.310 N 
ATOM     12  C   UNL     1      -4.051   4.652  25.905  0.00  0.00    +0.027 C 
ATOM     13  C   UNL     1      -4.065   3.992  23.536  0.00  0.00    +0.054 C 
ATOM     14  C   UNL     1      -4.182   5.184  24.484  0.00  0.00    +0.018 C 
ATOM     15  C   UNL     1      -5.160   3.628  26.203  0.00  0.00    +0.113 C 
ATOM     16  C   UNL     1      -2.650   4.053  26.082  0.00  0.00    +0.130 C 
ATOM     17  C   UNL     1      -5.213   3.000  23.807  0.00  0.00    +0.117 C 
ATOM     18  C   UNL     1      -2.729   3.292  23.701  0.00  0.00    +0.027 A 
ATOM     19  C   UNL     1      -2.159   2.669  22.653  0.00  0.00    +0.024 A 
ATOM     20  C   UNL     1      -0.894   2.600  25.182  0.00  0.00    +0.274 A 
ATOM     21  C   UNL     1      -5.353   1.232  25.631  0.00  0.00    +0.212 C 
ATOM     22  C   UNL     1      -0.326   1.912  23.995  0.00  0.00    +0.112 A 
ATOM     23  C   UNL     1      -0.919   1.954  22.801  0.00  0.00    +0.031 A 
ATOM     24  C   UNL     1      -4.819   0.169  24.703  0.00  0.00    +0.109 C 
ENDROOT
BRANCH  22  11
ATOM     11  N   UNL     1       0.880   1.197  24.100  0.00  0.00    -0.211 N 
ATOM     32  H   UNL     1       1.691   1.732  23.760  0.00  0.00    +0.174 HD
BRANCH  11   1
ATOM      1  S   UNL     1       0.857  -0.427  23.623  0.00  0.00    +0.073 S 
ATOM      7  O   UNL     1       0.519  -0.518  22.215  0.00  0.00    -0.150 OA
ATOM      8  O   UNL     1       2.032  -1.104  24.137  0.00  0.00    -0.150 OA
BRANCH   1  25
ATOM     25  C   UNL     1      -0.536  -1.018  24.539  0.00  0.00    +0.109 A 
ATOM     26  C   UNL     1      -1.447  -1.854  23.916  0.00  0.00    +0.041 A 
ATOM     27  C   UNL     1      -0.690  -0.633  25.858  0.00  0.00    +0.029 A 
ATOM     28  C   UNL     1      -2.546  -2.318  24.638  0.00  0.00    +0.057 A 
ATOM     29  C   UNL     1      -1.789  -1.098  26.580  0.00  0.00    +0.002 A 
ATOM     30  C   UNL     1      -2.717  -1.941  25.970  0.00  0.00    +0.012 A 
BRANCH  28  31
ATOM      2  F   UNL     1      -4.493  -2.552  23.266  0.00  0.00    -0.166 F 
ATOM      3  F   UNL     1      -2.982  -4.099  23.101  0.00  0.00    -0.166 F 
ATOM      4  F   UNL     1      -4.226  -3.985  24.881  0.00  0.00    -0.166 F 
ATOM     31  C   UNL     1      -3.540  -3.219  23.983  0.00  0.00    +0.417 C 
ENDBRANCH  28  31
ENDBRANCH   1  25
ENDBRANCH  11   1
ENDBRANCH  22  11
TORSDOF 4
ENDMDL
MODEL 2
REMARK VINA RESULT:       0.8      3.227      4.598
REMARK  Name = 7051361
REMARK  5 active torsions:
REMARK  status: ('A' for Active; 'I' for Inactive)
REMARK    1  A    between atoms: S_1  and  N_11
REMARK    2  A    between atoms: S_1  and  C_25
REMARK    3  A    between atoms: N_11  and  C_22
REMARK    4  A    between atoms: C_21  and  C_24
REMARK    5  A    between atoms: C_28  and  C_31
REMARK                            x       y       z     vdW  Elec       q    Type
REMARK                         _______ _______ _______ _____ _____    ______ ____
ROOT
ATOM      5  O   UNL     1      -3.102   0.707  22.205  0.00  0.00    -0.266 OA
ATOM      6  O   UNL     1      -0.478   4.899  25.299  0.00  0.00    -0.276 OA
ATOM      9  N   UNL     1      -2.729   4.405  25.596  0.00  0.00    -0.301 N 
ATOM     10  N   UNL     1      -4.013   1.988  23.943  0.00  0.00    -0.310 N 
ATOM     12  C   UNL     1      -4.417   4.508  23.757  0.00  0.00    +0.027 C 
ATOM     13  C   UNL     1      -4.962   3.336  25.850  0.00  0.00    +0.054 C 
ATOM     14  C   UNL     1      -5.524   4.264  24.774  0.00  0.00    +0.018 C 
ATOM     15  C   UNL     1      -3.198   5.159  24.432  0.00  0.00    +0.113 C 
ATOM     16  C   UNL     1      -4.061   3.177  23.083  0.00  0.00    +0.130 C 
ATOM     17  C   UNL     1      -3.776   4.021  26.556  0.00  0.00    +0.117 C 
ATOM     18  C   UNL     1      -4.513   2.015  25.251  0.00  0.00    +0.027 A 
ATOM     19  C   UNL     1      -4.568   0.888  25.985  0.00  0.00    +0.024 A 
ATOM     20  C   UNL     1      -3.538   0.799  23.352  0.00  0.00    +0.274 A 
ATOM     21  C   UNL     1      -1.363   4.176  25.764  0.00  0.00    +0.212 C 
ATOM     22  C   UNL     1      -3.602  -0.406  24.217  0.00  0.00    +0.112 A 
ATOM     23  C   UNL     1      -4.098  -0.364  25.455  0.00  0.00    +0.031 A 
ATOM     24  C   UNL     1      -0.976   2.957  26.564  0.00  0.00    +0.109 C 
ENDROOT
BRANCH  22  11
ATOM     11  N   UNL     1      -3.147  -1.647  23.739  0.00  0.00    -0.211 N 
ATOM     32  H   UNL     1      -3.904  -2.337  23.633  0.00  0.00    +0.174 HD
BRANCH  11   1
ATOM      1  S   UNL     1      -1.725  -2.261  24.423  0.00  0.00    +0.073 S 
ATOM      7  O   UNL     1      -1.926  -2.495  25.841  0.00  0.00    -0.150 OA
ATOM      8  O   UNL     1      -1.190  -3.312  23.578  0.00  0.00    -0.150 OA
BRANCH   1  25
ATOM     25  C   UNL     1      -0.654  -0.862  24.267  0.00  0.00    +0.109 A 
ATOM     26  C   UNL     1       0.460  -0.954  23.452  0.00  0.00    +0.041 A 
ATOM     27  C   UNL     1      -0.951   0.296  24.963  0.00  0.00    +0.029 A 
ATOM     28  C   UNL     1       1.305   0.149  23.329  0.00  0.00    +0.057 A 
ATOM     29  C   UNL     1      -0.105   1.399  24.841  0.00  0.00    +0.002 A 
ATOM     30  C   UNL     1       1.022   1.326  24.023  0.00  0.00    +0.012 A 
BRANCH  28  31
ATOM      2  F   UNL     1       3.262   1.211  22.451  0.00  0.00    -0.166 F 
ATOM      3  F   UNL     1       3.380  -0.924  22.812  0.00  0.00    -0.166 F 
ATOM      4  F   UNL     1       2.200  -0.170  21.149  0.00  0.00    -0.166 F 
ATOM     31  C   UNL     1       2.513   0.068  22.456  0.00  0.00    +0.417 C 
ENDBRANCH  28  31
ENDBRANCH   1  25
ENDBRANCH  11   1
ENDBRANCH  22  11
TORSDOF 4
ENDMDL
MODEL 3
REMARK VINA RESULT:       1.7      1.412      1.746
REMARK  Name = 7051361
REMARK  5 active torsions:
REMARK  status: ('A' for Active; 'I' for Inactive)
REMARK    1  A    between atoms: S_1  and  N_11
REMARK    2  A    between atoms: S_1  and  C_25
REMARK    3  A    between atoms: N_11  and  C_22
REMARK    4  A    between atoms: C_21  and  C_24
REMARK    5  A    between atoms: C_28  and  C_31
REMARK                            x       y       z     vdW  Elec       q    Type
REMARK                         _______ _______ _______ _____ _____    ______ ____
ROOT
ATOM      5  O   UNL     1      -0.332   1.239  26.504  0.00  0.00    -0.266 OA
ATOM      6  O   UNL     1      -5.791   1.761  24.517  0.00  0.00    -0.276 OA
ATOM      9  N   UNL     1      -4.426   3.619  24.806  0.00  0.00    -0.301 N 
ATOM     10  N   UNL     1      -1.407   3.185  25.764  0.00  0.00    -0.310 N 
ATOM     12  C   UNL     1      -3.389   4.239  26.993  0.00  0.00    +0.027 C 
ATOM     13  C   UNL     1      -2.558   5.260  24.915  0.00  0.00    +0.054 C 
ATOM     14  C   UNL     1      -2.896   5.543  26.377  0.00  0.00    +0.018 C 
ATOM     15  C   UNL     1      -4.635   3.729  26.251  0.00  0.00    +0.113 C 
ATOM     16  C   UNL     1      -2.245   3.218  26.969  0.00  0.00    +0.130 C 
ATOM     17  C   UNL     1      -3.827   4.802  24.170  0.00  0.00    +0.117 C 
ATOM     18  C   UNL     1      -1.480   4.197  24.799  0.00  0.00    +0.027 A 
ATOM     19  C   UNL     1      -0.624   4.215  23.761  0.00  0.00    +0.024 A 
ATOM     20  C   UNL     1      -0.456   2.146  25.682  0.00  0.00    +0.274 A 
ATOM     21  C   UNL     1      -4.865   2.480  24.131  0.00  0.00    +0.212 C 
ATOM     22  C   UNL     1       0.445   2.204  24.503  0.00  0.00    +0.112 A 
ATOM     23  C   UNL     1       0.370   3.187  23.604  0.00  0.00    +0.031 A 
ATOM     24  C   UNL     1      -4.139   2.127  22.857  0.00  0.00    +0.109 C 
ENDROOT
BRANCH  22  11
ATOM     11  N   UNL     1       1.425   1.216  24.311  0.00  0.00    -0.211 N 
ATOM     32  H   UNL     1       2.378   1.603  24.260  0.00  0.00    +0.174 HD
BRANCH  11   1
ATOM      1  S   UNL     1       1.091   0.013  23.167  0.00  0.00    +0.073 S 
ATOM      7  O   UNL     1       0.397   0.595  22.034  0.00  0.00    -0.150 OA
ATOM      8  O   UNL     1       2.271  -0.805  22.960  0.00  0.00    -0.150 OA
BRANCH   1  25
ATOM     25  C   UNL     1      -0.082  -0.969  24.056  0.00  0.00    +0.109 A 
ATOM     26  C   UNL     1      -1.429  -0.823  23.779  0.00  0.00    +0.041 A 
ATOM     27  C   UNL     1       0.371  -1.860  25.012  0.00  0.00    +0.029 A 
ATOM     28  C   UNL     1      -2.354  -1.596  24.481  0.00  0.00    +0.057 A 
ATOM     29  C   UNL     1      -0.555  -2.633  25.714  0.00  0.00    +0.002 A 
ATOM     30  C   UNL     1      -1.917  -2.501  25.448  0.00  0.00    +0.012 A 
BRANCH  28  31
ATOM      2  F   UNL     1      -4.081  -0.758  23.051  0.00  0.00    -0.166 F 
ATOM      3  F   UNL     1      -4.461  -2.644  24.051  0.00  0.00    -0.166 F 
ATOM      4  F   UNL     1      -4.478  -0.792  25.190  0.00  0.00    -0.166 F 
ATOM     31  C   UNL     1      -3.812  -1.452  24.197  0.00  0.00    +0.417 C 
ENDBRANCH  28  31
ENDBRANCH   1  25
ENDBRANCH  11   1
ENDBRANCH  22  11
TORSDOF 4
ENDMDL
MODEL 4
REMARK VINA RESULT:       2.7      2.939      5.749
REMARK  Name = 7051361
REMARK  5 active torsions:
REMARK  status: ('A' for Active; 'I' for Inactive)
REMARK    1  A    between atoms: S_1  and  N_11
REMARK    2  A    between atoms: S_1  and  C_25
REMARK    3  A    between atoms: N_11  and  C_22
REMARK    4  A    between atoms: C_21  and  C_24
REMARK    5  A    between atoms: C_28  and  C_31
REMARK                            x       y       z     vdW  Elec       q    Type
REMARK                         _______ _______ _______ _____ _____    ______ ____
ROOT
ATOM      5  O   UNL     1       0.202   0.825  22.609  0.00  0.00    -0.266 OA
ATOM      6  O   UNL     1      -5.057  -1.529  23.519  0.00  0.00    -0.276 OA
ATOM      9  N   UNL     1      -3.301  -1.881  24.999  0.00  0.00    -0.301 N 
ATOM     10  N   UNL     1      -0.509  -0.418  24.464  0.00  0.00    -0.310 N 
ATOM     12  C   UNL     1      -1.119  -2.899  24.332  0.00  0.00    +0.027 C 
ATOM     13  C   UNL     1      -1.306  -1.709  26.476  0.00  0.00    +0.054 C 
ATOM     14  C   UNL     1      -0.701  -2.936  25.796  0.00  0.00    +0.018 C 
ATOM     15  C   UNL     1      -2.652  -2.928  24.208  0.00  0.00    +0.113 C 
ATOM     16  C   UNL     1      -0.510  -1.655  23.674  0.00  0.00    +0.130 C 
ATOM     17  C   UNL     1      -2.843  -1.777  26.393  0.00  0.00    +0.117 C 
ATOM     18  C   UNL     1      -0.810  -0.427  25.832  0.00  0.00    +0.027 A 
ATOM     19  C   UNL     1      -0.691   0.695  26.565  0.00  0.00    +0.024 A 
ATOM     20  C   UNL     1      -0.090   0.756  23.802  0.00  0.00    +0.274 A 
ATOM     21  C   UNL     1      -4.333  -1.130  24.435  0.00  0.00    +0.212 C 
ATOM     22  C   UNL     1      -0.000   1.966  24.657  0.00  0.00    +0.112 A 
ATOM     23  C   UNL     1      -0.274   1.932  25.962  0.00  0.00    +0.031 A 
ATOM     24  C   UNL     1      -4.547   0.253  24.997  0.00  0.00    +0.109 C 
ENDROOT
BRANCH  22  11
ATOM     11  N   UNL     1       0.397   3.196  24.105  0.00  0.00    -0.211 N 
ATOM     32  H   UNL     1       1.395   3.398  24.257  0.00  0.00    +0.174 HD
BRANCH  11   1
ATOM      1  S   UNL     1      -0.634   4.517  24.346  0.00  0.00    +0.073 S 
ATOM      7  O   UNL     1      -0.647   4.877  25.752  0.00  0.00    -0.150 OA
ATOM      8  O   UNL     1      -0.380   5.526  23.336  0.00  0.00    -0.150 OA
BRANCH   1  25
ATOM     25  C   UNL     1      -2.201   3.783  23.976  0.00  0.00    +0.109 A 
ATOM     26  C   UNL     1      -3.236   3.910  24.885  0.00  0.00    +0.041 A 
ATOM     27  C   UNL     1      -2.360   3.095  22.787  0.00  0.00    +0.029 A 
ATOM     28  C   UNL     1      -4.470   3.329  24.594  0.00  0.00    +0.057 A 
ATOM     29  C   UNL     1      -3.594   2.514  22.496  0.00  0.00    +0.002 A 
ATOM     30  C   UNL     1      -4.650   2.632  23.400  0.00  0.00    +0.012 A 
BRANCH  28  31
ATOM      2  F   UNL     1      -5.249   3.161  26.851  0.00  0.00    -0.166 F 
ATOM      3  F   UNL     1      -6.137   4.708  25.617  0.00  0.00    -0.166 F 
ATOM      4  F   UNL     1      -6.639   2.621  25.268  0.00  0.00    -0.166 F 
ATOM     31  C   UNL     1      -5.598   3.454  25.563  0.00  0.00    +0.417 C 
ENDBRANCH  28  31
ENDBRANCH   1  25
ENDBRANCH  11   1
ENDBRANCH  22  11
TORSDOF 4
ENDMDL
MODEL 5
REMARK VINA RESULT:       3.3      3.828      4.669
REMARK  Name = 7051361
REMARK  5 active torsions:
REMARK  status: ('A' for Active; 'I' for Inactive)
REMARK    1  A    between atoms: S_1  and  N_11
REMARK    2  A    between atoms: S_1  and  C_25
REMARK    3  A    between atoms: N_11  and  C_22
REMARK    4  A    between atoms: C_21  and  C_24
REMARK    5  A    between atoms: C_28  and  C_31
REMARK                            x       y       z     vdW  Elec       q    Type
REMARK                         _______ _______ _______ _____ _____    ______ ____
ROOT
ATOM      5  O   UNL     1      -0.723   2.222  26.819  0.00  0.00    -0.266 OA
ATOM      6  O   UNL     1      -6.548   2.281  27.101  0.00  0.00    -0.276 OA
ATOM      9  N   UNL     1      -5.418   3.120  25.252  0.00  0.00    -0.301 N 
ATOM     10  N   UNL     1      -2.230   2.897  25.157  0.00  0.00    -0.310 N 
ATOM     12  C   UNL     1      -3.731   4.958  25.386  0.00  0.00    +0.027 C 
ATOM     13  C   UNL     1      -3.865   3.569  23.361  0.00  0.00    +0.054 C 
ATOM     14  C   UNL     1      -3.670   4.998  23.865  0.00  0.00    +0.018 C 
ATOM     15  C   UNL     1      -5.089   4.412  25.858  0.00  0.00    +0.113 C 
ATOM     16  C   UNL     1      -2.559   4.116  25.907  0.00  0.00    +0.130 C 
ATOM     17  C   UNL     1      -5.251   3.053  23.793  0.00  0.00    +0.117 C 
ATOM     18  C   UNL     1      -2.783   2.648  23.895  0.00  0.00    +0.027 A 
ATOM     19  C   UNL     1      -2.382   1.586  23.171  0.00  0.00    +0.024 A 
ATOM     20  C   UNL     1      -1.256   2.049  25.724  0.00  0.00    +0.274 A 
ATOM     21  C   UNL     1      -5.930   2.096  26.050  0.00  0.00    +0.212 C 
ATOM     22  C   UNL     1      -0.871   0.882  24.890  0.00  0.00    +0.112 A 
ATOM     23  C   UNL     1      -1.396   0.672  23.683  0.00  0.00    +0.031 A 
ATOM     24  C   UNL     1      -5.689   0.685  25.574  0.00  0.00    +0.109 C 
ENDROOT
BRANCH  22  11
ATOM     11  N   UNL     1       0.084  -0.038  25.356  0.00  0.00    -0.211 N 
ATOM     32  H   UNL     1       0.923   0.417  25.740  0.00  0.00    +0.174 HD
BRANCH  11   1
ATOM      1  S   UNL     1       0.397  -1.384  24.378  0.00  0.00    +0.073 S 
ATOM      7  O   UNL     1       0.935  -2.462  25.188  0.00  0.00    -0.150 OA
ATOM      8  O   UNL     1      -0.732  -1.623  23.500  0.00  0.00    -0.150 OA
BRANCH   1  25
ATOM     25  C   UNL     1       1.720  -0.764  23.381  0.00  0.00    +0.109 A 
ATOM     26  C   UNL     1       2.987  -0.669  23.926  0.00  0.00    +0.041 A 
ATOM     27  C   UNL     1       1.461  -0.385  22.076  0.00  0.00    +0.029 A 
ATOM     28  C   UNL     1       4.030  -0.178  23.140  0.00  0.00    +0.057 A 
ATOM     29  C   UNL     1       2.503   0.106  21.290  0.00  0.00    +0.002 A 
ATOM     30  C   UNL     1       3.788   0.209  21.822  0.00  0.00    +0.012 A 
BRANCH  28  31
ATOM      2  F   UNL     1       6.396  -0.262  22.792  0.00  0.00    -0.166 F 
ATOM      3  F   UNL     1       5.668   1.153  24.266  0.00  0.00    -0.166 F 
ATOM      4  F   UNL     1       5.637  -0.978  24.701  0.00  0.00    -0.166 F 
ATOM     31  C   UNL     1       5.404  -0.066  23.711  0.00  0.00    +0.417 C 
ENDBRANCH  28  31
ENDBRANCH   1  25
ENDBRANCH  11   1
ENDBRANCH  22  11
TORSDOF 4
ENDMDL
MODEL 6
REMARK VINA RESULT:       3.7      1.938      3.025
REMARK  Name = 7051361
REMARK  5 active torsions:
REMARK  status: ('A' for Active; 'I' for Inactive)
REMARK    1  A    between atoms: S_1  and  N_11
REMARK    2  A    between atoms: S_1  and  C_25
REMARK    3  A    between atoms: N_11  and  C_22
REMARK    4  A    between atoms: C_21  and  C_24
REMARK    5  A    between atoms: C_28  and  C_31
REMARK                            x       y       z     vdW  Elec       q    Type
REMARK                         _______ _______ _______ _____ _____    ______ ____
ROOT
ATOM      5  O   UNL     1      -1.099   1.564  22.068  0.00  0.00    -0.266 OA
ATOM      6  O   UNL     1      -3.054   6.861  23.530  0.00  0.00    -0.276 OA
ATOM      9  N   UNL     1      -3.408   5.020  24.902  0.00  0.00    -0.301 N 
ATOM     10  N   UNL     1      -2.160   2.200  24.058  0.00  0.00    -0.310 N 
ATOM     12  C   UNL     1      -4.603   2.956  24.158  0.00  0.00    +0.027 C 
ATOM     13  C   UNL     1      -3.254   2.911  26.214  0.00  0.00    +0.054 C 
ATOM     14  C   UNL     1      -4.561   2.430  25.587  0.00  0.00    +0.018 C 
ATOM     15  C   UNL     1      -4.546   4.493  24.147  0.00  0.00    +0.113 C 
ATOM     16  C   UNL     1      -3.448   2.331  23.366  0.00  0.00    +0.130 C 
ATOM     17  C   UNL     1      -3.233   4.452  26.247  0.00  0.00    +0.117 C 
ATOM     18  C   UNL     1      -2.054   2.396  25.441  0.00  0.00    +0.027 A 
ATOM     19  C   UNL     1      -0.892   2.158  26.077  0.00  0.00    +0.024 A 
ATOM     20  C   UNL     1      -1.065   1.768  23.281  0.00  0.00    +0.274 A 
ATOM     21  C   UNL     1      -2.637   6.048  24.359  0.00  0.00    +0.212 C 
ATOM     22  C   UNL     1       0.196   1.545  24.033  0.00  0.00    +0.112 A 
ATOM     23  C   UNL     1       0.272   1.720  25.354  0.00  0.00    +0.031 A 
ATOM     24  C   UNL     1      -1.207   6.141  24.829  0.00  0.00    +0.109 C 
ENDROOT
BRANCH  22  11
ATOM     11  N   UNL     1       1.357   1.123  23.363  0.00  0.00    -0.211 N 
ATOM     32  H   UNL     1       1.681   1.802  22.660  0.00  0.00    +0.174 HD
BRANCH  11   1
ATOM      1  S   UNL     1       1.411  -0.492  22.858  0.00  0.00    +0.073 S 
ATOM      7  O   UNL     1       0.929  -0.594  21.494  0.00  0.00    -0.150 OA
ATOM      8  O   UNL     1       2.685  -1.077  23.229  0.00  0.00    -0.150 OA
BRANCH   1  25
ATOM     25  C   UNL     1       0.177  -1.205  23.907  0.00  0.00    +0.109 A 
ATOM     26  C   UNL     1      -1.156  -1.075  23.563  0.00  0.00    +0.041 A 
ATOM     27  C   UNL     1       0.570  -1.876  25.051  0.00  0.00    +0.029 A 
ATOM     28  C   UNL     1      -2.129  -1.635  24.391  0.00  0.00    +0.057 A 
ATOM     29  C   UNL     1      -0.403  -2.436  25.879  0.00  0.00    +0.002 A 
ATOM     30  C   UNL     1      -1.753  -2.316  25.549  0.00  0.00    +0.012 A 
BRANCH  28  31
ATOM      2  F   UNL     1      -3.796  -0.761  22.913  0.00  0.00    -0.166 F 
ATOM      3  F   UNL     1      -4.189  -2.699  23.803  0.00  0.00    -0.166 F 
ATOM      4  F   UNL     1      -4.303  -0.903  25.023  0.00  0.00    -0.166 F 
ATOM     31  C   UNL     1      -3.573  -1.504  24.038  0.00  0.00    +0.417 C 
ENDBRANCH  28  31
ENDBRANCH   1  25
ENDBRANCH  11   1
ENDBRANCH  22  11
TORSDOF 4
ENDMDL
MODEL 7
REMARK VINA RESULT:       4.3      1.538      2.032
REMARK  Name = 7051361
REMARK  5 active torsions:
REMARK  status: ('A' for Active; 'I' for Inactive)
REMARK    1  A    between atoms: S_1  and  N_11
REMARK    2  A    between atoms: S_1  and  C_25
REMARK    3  A    between atoms: N_11  and  C_22
REMARK    4  A    between atoms: C_21  and  C_24
REMARK    5  A    between atoms: C_28  and  C_31
REMARK                            x       y       z     vdW  Elec       q    Type
REMARK                         _______ _______ _______ _____ _____    ______ ____
ROOT
ATOM      5  O   UNL     1      -0.021   2.288  26.231  0.00  0.00    -0.266 OA
ATOM      6  O   UNL     1      -5.518   0.338  26.216  0.00  0.00    -0.276 OA
ATOM      9  N   UNL     1      -4.888   2.192  24.965  0.00  0.00    -0.301 N 
ATOM     10  N   UNL     1      -1.815   3.073  24.945  0.00  0.00    -0.310 N 
ATOM     12  C   UNL     1      -3.856   4.238  25.959  0.00  0.00    +0.027 C 
ATOM     13  C   UNL     1      -3.742   3.870  23.529  0.00  0.00    +0.054 C 
ATOM     14  C   UNL     1      -3.956   4.932  24.606  0.00  0.00    +0.018 C 
ATOM     15  C   UNL     1      -4.924   3.138  26.081  0.00  0.00    +0.113 C 
ATOM     16  C   UNL     1      -2.435   3.684  26.127  0.00  0.00    +0.130 C 
ATOM     17  C   UNL     1      -4.850   2.803  23.628  0.00  0.00    +0.117 C 
ATOM     18  C   UNL     1      -2.380   3.214  23.671  0.00  0.00    +0.027 A 
ATOM     19  C   UNL     1      -1.739   2.748  22.584  0.00  0.00    +0.024 A 
ATOM     20  C   UNL     1      -0.575   2.430  25.141  0.00  0.00    +0.274 A 
ATOM     21  C   UNL     1      -4.976   0.823  25.220  0.00  0.00    +0.212 C 
ATOM     22  C   UNL     1       0.073   1.916  23.909  0.00  0.00    +0.112 A 
ATOM     23  C   UNL     1      -0.473   2.076  22.703  0.00  0.00    +0.031 A 
ATOM     24  C   UNL     1      -4.353  -0.095  24.198  0.00  0.00    +0.109 C 
ENDROOT
BRANCH  22  11
ATOM     11  N   UNL     1       1.308   1.248  23.983  0.00  0.00    -0.211 N 
ATOM     32  H   UNL     1       2.112   1.884  23.889  0.00  0.00    +0.174 HD
BRANCH  11   1
ATOM      1  S   UNL     1       1.452  -0.203  23.122  0.00  0.00    +0.073 S 
ATOM      7  O   UNL     1       1.181   0.035  21.716  0.00  0.00    -0.150 OA
ATOM      8  O   UNL     1       2.661  -0.893  23.527  0.00  0.00    -0.150 OA
BRANCH   1  25
ATOM     25  C   UNL     1       0.082  -1.110  23.776  0.00  0.00    +0.109 A 
ATOM     26  C   UNL     1      -0.497  -0.694  24.962  0.00  0.00    +0.041 A 
ATOM     27  C   UNL     1      -0.383  -2.219  23.092  0.00  0.00    +0.029 A 
ATOM     28  C   UNL     1      -1.577  -1.411  25.479  0.00  0.00    +0.057 A 
ATOM     29  C   UNL     1      -1.462  -2.935  23.609  0.00  0.00    +0.002 A 
ATOM     30  C   UNL     1      -2.059  -2.531  24.802  0.00  0.00    +0.012 A 
BRANCH  28  31
ATOM      2  F   UNL     1      -3.387  -1.622  27.030  0.00  0.00    -0.166 F 
ATOM      3  F   UNL     1      -1.430  -1.185  27.856  0.00  0.00    -0.166 F 
ATOM      4  F   UNL     1      -2.516   0.354  26.769  0.00  0.00    -0.166 F 
ATOM     31  C   UNL     1      -2.213  -0.978  26.757  0.00  0.00    +0.417 C 
ENDBRANCH  28  31
ENDBRANCH   1  25
ENDBRANCH  11   1
ENDBRANCH  22  11
TORSDOF 4
ENDMDL
