MODEL 1
REMARK VINA RESULT:      -6.2      0.000      0.000
REMARK  Name = 40533521
REMARK  7 active torsions:
REMARK  status: ('A' for Active; 'I' for Inactive)
REMARK    1  A    between atoms: N_4  and  C_19
REMARK    2  A    between atoms: C_6  and  C_15
REMARK    3  A    between atoms: C_7  and  C_16
REMARK    4  A    between atoms: C_8  and  C_14
REMARK    5  A    between atoms: C_15  and  C_17
REMARK    6  A    between atoms: C_16  and  C_18
REMARK    7  A    between atoms: C_19  and  C_20
REMARK                            x       y       z     vdW  Elec       q    Type
REMARK                         _______ _______ _______ _____ _____    ______ ____
ROOT
ATOM      1  O   UNL     1      -1.528  -3.279  24.518  0.00  0.00    -0.275 OA
ATOM      3  N   UNL     1      -1.308  -0.961  24.576  0.00  0.00    -0.301 N 
ATOM      6  C   UNL     1       0.622  -0.107  23.281  0.00  0.00    +0.010 C 
ATOM      7  C   UNL     1       0.067   1.335  23.393  0.00  0.00    +0.004 C 
ATOM      9  C   UNL     1       0.151  -0.990  24.445  0.00  0.00    +0.111 C 
ATOM     12  C   UNL     1      -1.462   1.282  23.560  0.00  0.00    +0.023 C 
ATOM     13  C   UNL     1      -1.898   0.375  24.710  0.00  0.00    +0.108 C 
ATOM     14  C   UNL     1      -2.024  -2.161  24.631  0.00  0.00    +0.219 C 
ENDROOT
BRANCH  14   8
ATOM      8  C   UNL     1      -3.501  -2.071  24.839  0.00  0.00    +0.075 C 
ATOM     10  C   UNL     1      -4.419  -2.745  23.863  0.00  0.00    +0.013 C 
ATOM     11  C   UNL     1      -4.324  -1.248  23.891  0.00  0.00    +0.013 C 
ENDBRANCH  14   8
BRANCH   6  15
ATOM     15  C   UNL     1       2.144  -0.155  23.152  0.00  0.00    +0.002 C 
ATOM     17  C   UNL     1       2.574  -0.032  21.705  0.00  0.00    +0.004 C 
ENDBRANCH   6  15
BRANCH   7  16
ATOM     16  C   UNL     1       0.712   2.167  24.508  0.00  0.00    +0.099 C 
BRANCH  16  18
ATOM      2  O   UNL     1      -0.491   2.575  26.567  0.00  0.00    -0.276 OA
ATOM      4  N   UNL     1      -1.027   3.805  24.670  0.00  0.00    -0.311 N 
ATOM     18  C   UNL     1      -0.318   2.849  25.382  0.00  0.00    +0.214 C 
ATOM     25  H   UNL     1      -0.788   3.991  23.701  0.00  0.00    +0.149 HD
BRANCH   4  19
ATOM     19  C   UNL     1      -2.075   4.610  25.254  0.00  0.00    +0.141 C 
BRANCH  19  20
ATOM      5  N   UNL     1      -5.368   3.231  26.501  0.00  0.00    -0.263 NA
ATOM     20  C   UNL     1      -3.392   3.888  25.273  0.00  0.00    -0.012 A 
ATOM     21  C   UNL     1      -3.863   3.225  24.146  0.00  0.00    +0.008 A 
ATOM     22  C   UNL     1      -4.176   3.861  26.416  0.00  0.00    +0.115 A 
ATOM     23  C   UNL     1      -5.085   2.564  24.194  0.00  0.00    +0.020 A 
ATOM     24  C   UNL     1      -5.793   2.596  25.385  0.00  0.00    +0.111 A 
ENDBRANCH  19  20
ENDBRANCH   4  19
ENDBRANCH  16  18
ENDBRANCH   7  16
TORSDOF 6
ENDMDL
MODEL 2
REMARK VINA RESULT:      -5.7      2.533      6.731
REMARK  Name = 40533521
REMARK  7 active torsions:
REMARK  status: ('A' for Active; 'I' for Inactive)
REMARK    1  A    between atoms: N_4  and  C_19
REMARK    2  A    between atoms: C_6  and  C_15
REMARK    3  A    between atoms: C_7  and  C_16
REMARK    4  A    between atoms: C_8  and  C_14
REMARK    5  A    between atoms: C_15  and  C_17
REMARK    6  A    between atoms: C_16  and  C_18
REMARK    7  A    between atoms: C_19  and  C_20
REMARK                            x       y       z     vdW  Elec       q    Type
REMARK                         _______ _______ _______ _____ _____    ______ ____
ROOT
ATOM      1  O   UNL     1      -6.301   1.560  25.827  0.00  0.00    -0.275 OA
ATOM      3  N   UNL     1      -4.102   1.490  25.061  0.00  0.00    -0.301 N 
ATOM      6  C   UNL     1      -3.342  -0.775  24.410  0.00  0.00    +0.010 C 
ATOM      7  C   UNL     1      -2.094  -0.166  23.725  0.00  0.00    +0.004 C 
ATOM      9  C   UNL     1      -3.868   0.125  25.538  0.00  0.00    +0.111 C 
ATOM     12  C   UNL     1      -2.407   1.275  23.282  0.00  0.00    +0.023 C 
ATOM     13  C   UNL     1      -2.951   2.136  24.420  0.00  0.00    +0.108 C 
ATOM     14  C   UNL     1      -5.338   2.104  25.290  0.00  0.00    +0.219 C 
ENDROOT
BRANCH  14   8
ATOM      8  C   UNL     1      -5.495   3.522  24.847  0.00  0.00    +0.075 C 
ATOM     10  C   UNL     1      -4.586   4.571  25.418  0.00  0.00    +0.013 C 
ATOM     11  C   UNL     1      -6.033   4.535  25.814  0.00  0.00    +0.013 C 
ENDBRANCH  14   8
BRANCH   6  15
ATOM     15  C   UNL     1      -3.112  -2.197  24.922  0.00  0.00    +0.002 C 
ATOM     17  C   UNL     1      -3.887  -3.205  24.099  0.00  0.00    +0.004 C 
ENDBRANCH   6  15
BRANCH   7  16
ATOM     16  C   UNL     1      -0.825  -0.212  24.583  0.00  0.00    +0.099 C 
BRANCH  16  18
ATOM      2  O   UNL     1       0.689   1.642  24.231  0.00  0.00    -0.276 OA
ATOM      4  N   UNL     1       0.930  -0.286  22.957  0.00  0.00    -0.311 N 
ATOM     18  C   UNL     1       0.336   0.505  23.929  0.00  0.00    +0.214 C 
ATOM     25  H   UNL     1       0.594  -1.231  22.801  0.00  0.00    +0.149 HD
BRANCH   4  19
ATOM     19  C   UNL     1       2.062   0.146  22.169  0.00  0.00    +0.141 C 
BRANCH  19  20
ATOM      5  N   UNL     1       4.786  -1.592  24.135  0.00  0.00    -0.263 NA
ATOM     20  C   UNL     1       3.364  -0.093  22.879  0.00  0.00    -0.012 A 
ATOM     21  C   UNL     1       4.332   0.902  22.956  0.00  0.00    +0.008 A 
ATOM     22  C   UNL     1       3.637  -1.312  23.480  0.00  0.00    +0.115 A 
ATOM     23  C   UNL     1       5.527   0.652  23.622  0.00  0.00    +0.020 A 
ATOM     24  C   UNL     1       5.703  -0.600  24.189  0.00  0.00    +0.111 A 
ENDBRANCH  19  20
ENDBRANCH   4  19
ENDBRANCH  16  18
ENDBRANCH   7  16
TORSDOF 6
ENDMDL
MODEL 3
REMARK VINA RESULT:      -4.7      2.519      6.717
REMARK  Name = 40533521
REMARK  7 active torsions:
REMARK  status: ('A' for Active; 'I' for Inactive)
REMARK    1  A    between atoms: N_4  and  C_19
REMARK    2  A    between atoms: C_6  and  C_15
REMARK    3  A    between atoms: C_7  and  C_16
REMARK    4  A    between atoms: C_8  and  C_14
REMARK    5  A    between atoms: C_15  and  C_17
REMARK    6  A    between atoms: C_16  and  C_18
REMARK    7  A    between atoms: C_19  and  C_20
REMARK                            x       y       z     vdW  Elec       q    Type
REMARK                         _______ _______ _______ _____ _____    ______ ____
ROOT
ATOM      1  O   UNL     1      -5.348   4.409  25.770  0.00  0.00    -0.275 OA
ATOM      3  N   UNL     1      -3.949   2.753  24.918  0.00  0.00    -0.301 N 
ATOM      6  C   UNL     1      -1.569   3.038  25.538  0.00  0.00    +0.010 C 
ATOM      7  C   UNL     1      -1.262   1.601  25.045  0.00  0.00    +0.004 C 
ATOM      9  C   UNL     1      -2.786   3.638  24.819  0.00  0.00    +0.111 C 
ATOM     12  C   UNL     1      -2.536   0.744  25.148  0.00  0.00    +0.023 C 
ATOM     13  C   UNL     1      -3.734   1.381  24.446  0.00  0.00    +0.108 C 
ATOM     14  C   UNL     1      -5.170   3.259  25.375  0.00  0.00    +0.219 C 
ENDROOT
BRANCH  14   8
ATOM      8  C   UNL     1      -6.340   2.329  25.384  0.00  0.00    +0.075 C 
ATOM     10  C   UNL     1      -6.712   1.635  26.662  0.00  0.00    +0.013 C 
ATOM     11  C   UNL     1      -6.100   0.855  25.535  0.00  0.00    +0.013 C 
ENDBRANCH  14   8
BRANCH   6  15
ATOM     15  C   UNL     1      -0.367   3.977  25.434  0.00  0.00    +0.002 C 
ATOM     17  C   UNL     1      -0.738   5.259  24.718  0.00  0.00    +0.004 C 
ENDBRANCH   6  15
BRANCH   7  16
ATOM     16  C   UNL     1      -0.672   1.539  23.632  0.00  0.00    +0.099 C 
BRANCH  16  18
ATOM      2  O   UNL     1       0.027  -0.740  24.046  0.00  0.00    -0.276 OA
ATOM      4  N   UNL     1       1.145   0.524  22.448  0.00  0.00    -0.311 N 
ATOM     18  C   UNL     1       0.182   0.306  23.422  0.00  0.00    +0.214 C 
ATOM     25  H   UNL     1       1.173   1.411  21.956  0.00  0.00    +0.149 HD
BRANCH   4  19
ATOM     19  C   UNL     1       2.101  -0.482  22.043  0.00  0.00    +0.141 C 
BRANCH  19  20
ATOM      5  N   UNL     1       5.046  -1.384  24.237  0.00  0.00    -0.263 NA
ATOM     20  C   UNL     1       3.394  -0.363  22.798  0.00  0.00    -0.012 A 
ATOM     21  C   UNL     1       4.129   0.817  22.778  0.00  0.00    +0.008 A 
ATOM     22  C   UNL     1       3.891  -1.425  23.536  0.00  0.00    +0.115 A 
ATOM     23  C   UNL     1       5.322   0.898  23.488  0.00  0.00    +0.020 A 
ATOM     24  C   UNL     1       5.733  -0.220  24.195  0.00  0.00    +0.111 A 
ENDBRANCH  19  20
ENDBRANCH   4  19
ENDBRANCH  16  18
ENDBRANCH   7  16
TORSDOF 6
ENDMDL
MODEL 4
REMARK VINA RESULT:      -4.5      2.511      6.232
REMARK  Name = 40533521
REMARK  7 active torsions:
REMARK  status: ('A' for Active; 'I' for Inactive)
REMARK    1  A    between atoms: N_4  and  C_19
REMARK    2  A    between atoms: C_6  and  C_15
REMARK    3  A    between atoms: C_7  and  C_16
REMARK    4  A    between atoms: C_8  and  C_14
REMARK    5  A    between atoms: C_15  and  C_17
REMARK    6  A    between atoms: C_16  and  C_18
REMARK    7  A    between atoms: C_19  and  C_20
REMARK                            x       y       z     vdW  Elec       q    Type
REMARK                         _______ _______ _______ _____ _____    ______ ____
ROOT
ATOM      1  O   UNL     1      -5.072  -0.119  25.173  0.00  0.00    -0.275 OA
ATOM      3  N   UNL     1      -2.829   0.496  25.037  0.00  0.00    -0.301 N 
ATOM      6  C   UNL     1      -2.383   2.818  25.773  0.00  0.00    +0.010 C 
ATOM      7  C   UNL     1      -0.862   2.525  25.795  0.00  0.00    +0.004 C 
ATOM      9  C   UNL     1      -3.123   1.908  24.781  0.00  0.00    +0.111 C 
ATOM     12  C   UNL     1      -0.636   1.022  26.036  0.00  0.00    +0.023 C 
ATOM     13  C   UNL     1      -1.405   0.145  25.049  0.00  0.00    +0.108 C 
ATOM     14  C   UNL     1      -3.879  -0.416  25.183  0.00  0.00    +0.219 C 
ENDROOT
BRANCH  14   8
ATOM      8  C   UNL     1      -3.520  -1.854  25.368  0.00  0.00    +0.075 C 
ATOM     10  C   UNL     1      -2.422  -2.446  24.535  0.00  0.00    +0.013 C 
ATOM     11  C   UNL     1      -3.848  -2.836  24.281  0.00  0.00    +0.013 C 
ENDBRANCH  14   8
BRANCH   6  15
ATOM     15  C   UNL     1      -2.707   4.287  25.498  0.00  0.00    +0.002 C 
ATOM     17  C   UNL     1      -3.717   4.422  24.378  0.00  0.00    +0.004 C 
ENDBRANCH   6  15
BRANCH   7  16
ATOM     16  C   UNL     1      -0.116   2.999  24.543  0.00  0.00    +0.099 C 
BRANCH  16  18
ATOM      2  O   UNL     1      -0.731   1.442  22.796  0.00  0.00    -0.276 OA
ATOM      4  N   UNL     1       1.430   1.404  23.649  0.00  0.00    -0.311 N 
ATOM     18  C   UNL     1       0.128   1.873  23.561  0.00  0.00    +0.214 C 
ATOM     25  H   UNL     1       2.084   1.848  24.286  0.00  0.00    +0.149 HD
BRANCH   4  19
ATOM     19  C   UNL     1       1.940   0.329  22.829  0.00  0.00    +0.141 C 
BRANCH  19  20
ATOM      5  N   UNL     1       4.896  -1.707  24.020  0.00  0.00    -0.263 NA
ATOM     20  C   UNL     1       3.347  -0.041  23.201  0.00  0.00    -0.012 A 
ATOM     21  C   UNL     1       4.384   0.878  23.088  0.00  0.00    +0.008 A 
ATOM     22  C   UNL     1       3.653  -1.310  23.668  0.00  0.00    +0.115 A 
ATOM     23  C   UNL     1       5.676   0.507  23.442  0.00  0.00    +0.020 A 
ATOM     24  C   UNL     1       5.878  -0.785  23.898  0.00  0.00    +0.111 A 
ENDBRANCH  19  20
ENDBRANCH   4  19
ENDBRANCH  16  18
ENDBRANCH   7  16
TORSDOF 6
ENDMDL
MODEL 5
REMARK VINA RESULT:      -4.2      1.491      4.228
REMARK  Name = 40533521
REMARK  7 active torsions:
REMARK  status: ('A' for Active; 'I' for Inactive)
REMARK    1  A    between atoms: N_4  and  C_19
REMARK    2  A    between atoms: C_6  and  C_15
REMARK    3  A    between atoms: C_7  and  C_16
REMARK    4  A    between atoms: C_8  and  C_14
REMARK    5  A    between atoms: C_15  and  C_17
REMARK    6  A    between atoms: C_16  and  C_18
REMARK    7  A    between atoms: C_19  and  C_20
REMARK                            x       y       z     vdW  Elec       q    Type
REMARK                         _______ _______ _______ _____ _____    ______ ____
ROOT
ATOM      1  O   UNL     1       0.174   4.083  23.654  0.00  0.00    -0.275 OA
ATOM      3  N   UNL     1      -0.747   2.079  24.403  0.00  0.00    -0.301 N 
ATOM      6  C   UNL     1       0.498   0.069  23.664  0.00  0.00    +0.010 C 
ATOM      7  C   UNL     1      -0.296  -0.800  24.671  0.00  0.00    +0.004 C 
ATOM      9  C   UNL     1      -0.295   1.314  23.238  0.00  0.00    +0.111 C 
ATOM     12  C   UNL     1      -0.763   0.078  25.846  0.00  0.00    +0.023 C 
ATOM     13  C   UNL     1      -1.526   1.320  25.387  0.00  0.00    +0.108 C 
ATOM     14  C   UNL     1      -0.479   3.450  24.479  0.00  0.00    +0.219 C 
ENDROOT
BRANCH  14   8
ATOM      8  C   UNL     1      -1.028   4.192  25.654  0.00  0.00    +0.075 C 
ATOM     10  C   UNL     1      -2.491   4.084  25.969  0.00  0.00    +0.013 C 
ATOM     11  C   UNL     1      -1.936   5.364  25.419  0.00  0.00    +0.013 C 
ENDBRANCH  14   8
BRANCH   6  15
ATOM     15  C   UNL     1       0.969  -0.712  22.438  0.00  0.00    +0.002 C 
ATOM     17  C   UNL     1       2.285  -0.170  21.919  0.00  0.00    +0.004 C 
ENDBRANCH   6  15
BRANCH   7  16
ATOM     16  C   UNL     1      -1.476  -1.556  24.049  0.00  0.00    +0.099 C 
BRANCH  16  18
ATOM      2  O   UNL     1      -2.952  -1.780  25.952  0.00  0.00    -0.276 OA
ATOM      4  N   UNL     1      -3.675  -0.610  24.079  0.00  0.00    -0.311 N 
ATOM     18  C   UNL     1      -2.761  -1.345  24.819  0.00  0.00    +0.214 C 
ATOM     25  H   UNL     1      -3.415  -0.258  23.163  0.00  0.00    +0.149 HD
BRANCH   4  19
ATOM     19  C   UNL     1      -4.989  -0.260  24.568  0.00  0.00    +0.141 C 
BRANCH  19  20
ATOM      5  N   UNL     1      -5.976   3.011  26.188  0.00  0.00    -0.263 NA
ATOM     20  C   UNL     1      -5.122   1.216  24.813  0.00  0.00    -0.012 A 
ATOM     21  C   UNL     1      -4.553   2.141  23.946  0.00  0.00    +0.008 A 
ATOM     22  C   UNL     1      -5.818   1.698  25.910  0.00  0.00    +0.115 A 
ATOM     23  C   UNL     1      -4.694   3.501  24.197  0.00  0.00    +0.020 A 
ATOM     24  C   UNL     1      -5.408   3.881  25.322  0.00  0.00    +0.111 A 
ENDBRANCH  19  20
ENDBRANCH   4  19
ENDBRANCH  16  18
ENDBRANCH   7  16
TORSDOF 6
ENDMDL
MODEL 6
REMARK VINA RESULT:      -3.7      2.046      5.371
REMARK  Name = 40533521
REMARK  7 active torsions:
REMARK  status: ('A' for Active; 'I' for Inactive)
REMARK    1  A    between atoms: N_4  and  C_19
REMARK    2  A    between atoms: C_6  and  C_15
REMARK    3  A    between atoms: C_7  and  C_16
REMARK    4  A    between atoms: C_8  and  C_14
REMARK    5  A    between atoms: C_15  and  C_17
REMARK    6  A    between atoms: C_16  and  C_18
REMARK    7  A    between atoms: C_19  and  C_20
REMARK                            x       y       z     vdW  Elec       q    Type
REMARK                         _______ _______ _______ _____ _____    ______ ____
ROOT
ATOM      1  O   UNL     1      -5.665   4.418  25.443  0.00  0.00    -0.275 OA
ATOM      3  N   UNL     1      -3.740   3.144  25.130  0.00  0.00    -0.301 N 
ATOM      6  C   UNL     1      -1.638   4.407  25.474  0.00  0.00    +0.010 C 
ATOM      7  C   UNL     1      -0.837   3.082  25.487  0.00  0.00    +0.004 C 
ATOM      9  C   UNL     1      -2.938   4.278  24.666  0.00  0.00    +0.111 C 
ATOM     12  C   UNL     1      -1.753   1.935  25.952  0.00  0.00    +0.023 C 
ATOM     13  C   UNL     1      -3.047   1.851  25.145  0.00  0.00    +0.108 C 
ATOM     14  C   UNL     1      -5.087   3.334  25.457  0.00  0.00    +0.219 C 
ENDROOT
BRANCH  14   8
ATOM      8  C   UNL     1      -5.875   2.127  25.852  0.00  0.00    +0.075 C 
ATOM     10  C   UNL     1      -5.480   0.786  25.308  0.00  0.00    +0.013 C 
ATOM     11  C   UNL     1      -6.737   1.449  24.828  0.00  0.00    +0.013 C 
ENDBRANCH  14   8
BRANCH   6  15
ATOM     15  C   UNL     1      -0.817   5.600  24.985  0.00  0.00    +0.002 C 
ATOM     17  C   UNL     1      -1.716   6.746  24.569  0.00  0.00    +0.004 C 
ENDBRANCH   6  15
BRANCH   7  16
ATOM     16  C   UNL     1      -0.170   2.742  24.149  0.00  0.00    +0.099 C 
BRANCH  16  18
ATOM      2  O   UNL     1      -1.162   1.013  22.778  0.00  0.00    -0.276 OA
ATOM      4  N   UNL     1       0.238   0.415  24.534  0.00  0.00    -0.311 N 
ATOM     18  C   UNL     1      -0.436   1.314  23.722  0.00  0.00    +0.214 C 
ATOM     25  H   UNL     1       0.848   0.758  25.269  0.00  0.00    +0.149 HD
BRANCH   4  19
ATOM     19  C   UNL     1       0.165  -1.018  24.358  0.00  0.00    +0.141 C 
BRANCH  19  20
ATOM      5  N   UNL     1      -3.042  -3.013  24.177  0.00  0.00    -0.263 NA
ATOM     20  C   UNL     1      -1.189  -1.559  24.719  0.00  0.00    -0.012 A 
ATOM     21  C   UNL     1      -1.843  -1.144  25.873  0.00  0.00    +0.008 A 
ATOM     22  C   UNL     1      -1.826  -2.488  23.911  0.00  0.00    +0.115 A 
ATOM     23  C   UNL     1      -3.096  -1.661  26.180  0.00  0.00    +0.020 A 
ATOM     24  C   UNL     1      -3.647  -2.585  25.307  0.00  0.00    +0.111 A 
ENDBRANCH  19  20
ENDBRANCH   4  19
ENDBRANCH  16  18
ENDBRANCH   7  16
TORSDOF 6
ENDMDL
MODEL 7
REMARK VINA RESULT:      -3.5      1.502      2.463
REMARK  Name = 40533521
REMARK  7 active torsions:
REMARK  status: ('A' for Active; 'I' for Inactive)
REMARK    1  A    between atoms: N_4  and  C_19
REMARK    2  A    between atoms: C_6  and  C_15
REMARK    3  A    between atoms: C_7  and  C_16
REMARK    4  A    between atoms: C_8  and  C_14
REMARK    5  A    between atoms: C_15  and  C_17
REMARK    6  A    between atoms: C_16  and  C_18
REMARK    7  A    between atoms: C_19  and  C_20
REMARK                            x       y       z     vdW  Elec       q    Type
REMARK                         _______ _______ _______ _____ _____    ______ ____
ROOT
ATOM      1  O   UNL     1      -3.105  -1.000  26.350  0.00  0.00    -0.275 OA
ATOM      3  N   UNL     1      -1.830   0.156  24.782  0.00  0.00    -0.301 N 
ATOM      6  C   UNL     1      -0.127   1.649  25.783  0.00  0.00    +0.010 C 
ATOM      7  C   UNL     1       0.548   1.819  24.399  0.00  0.00    +0.004 C 
ATOM      9  C   UNL     1      -1.620   1.316  25.651  0.00  0.00    +0.111 C 
ATOM     12  C   UNL     1       0.256   0.579  23.534  0.00  0.00    +0.023 C 
ATOM     13  C   UNL     1      -1.235   0.261  23.445  0.00  0.00    +0.108 C 
ATOM     14  C   UNL     1      -2.608  -0.915  25.230  0.00  0.00    +0.219 C 
ENDROOT
BRANCH  14   8
ATOM      8  C   UNL     1      -2.849  -2.038  24.273  0.00  0.00    +0.075 C 
ATOM     10  C   UNL     1      -4.242  -2.288  23.774  0.00  0.00    +0.013 C 
ATOM     11  C   UNL     1      -3.607  -3.246  24.739  0.00  0.00    +0.013 C 
ENDBRANCH  14   8
BRANCH   6  15
ATOM     15  C   UNL     1       0.075   2.855  26.700  0.00  0.00    +0.002 C 
ATOM     17  C   UNL     1       0.865   2.475  27.936  0.00  0.00    +0.004 C 
ENDBRANCH   6  15
BRANCH   7  16
ATOM     16  C   UNL     1       0.152   3.105  23.665  0.00  0.00    +0.099 C 
BRANCH  16  18
ATOM      2  O   UNL     1      -0.623   4.662  25.347  0.00  0.00    -0.276 OA
ATOM      4  N   UNL     1      -2.164   3.646  23.935  0.00  0.00    -0.311 N 
ATOM     18  C   UNL     1      -0.891   3.899  24.422  0.00  0.00    +0.214 C 
ATOM     25  H   UNL     1      -2.287   3.028  23.140  0.00  0.00    +0.149 HD
BRANCH   4  19
ATOM     19  C   UNL     1      -3.354   4.267  24.473  0.00  0.00    +0.141 C 
BRANCH  19  20
ATOM      5  N   UNL     1      -6.044   2.573  26.521  0.00  0.00    -0.263 NA
ATOM     20  C   UNL     1      -4.365   3.250  24.919  0.00  0.00    -0.012 A 
ATOM     21  C   UNL     1      -4.573   2.081  24.195  0.00  0.00    +0.008 A 
ATOM     22  C   UNL     1      -5.120   3.447  26.064  0.00  0.00    +0.115 A 
ATOM     23  C   UNL     1      -5.516   1.158  24.633  0.00  0.00    +0.020 A 
ATOM     24  C   UNL     1      -6.219   1.448  25.791  0.00  0.00    +0.111 A 
ENDBRANCH  19  20
ENDBRANCH   4  19
ENDBRANCH  16  18
ENDBRANCH   7  16
TORSDOF 6
ENDMDL
MODEL 8
REMARK VINA RESULT:      -3.0      1.881      5.409
REMARK  Name = 40533521
REMARK  7 active torsions:
REMARK  status: ('A' for Active; 'I' for Inactive)
REMARK    1  A    between atoms: N_4  and  C_19
REMARK    2  A    between atoms: C_6  and  C_15
REMARK    3  A    between atoms: C_7  and  C_16
REMARK    4  A    between atoms: C_8  and  C_14
REMARK    5  A    between atoms: C_15  and  C_17
REMARK    6  A    between atoms: C_16  and  C_18
REMARK    7  A    between atoms: C_19  and  C_20
REMARK                            x       y       z     vdW  Elec       q    Type
REMARK                         _______ _______ _______ _____ _____    ______ ____
ROOT
ATOM      1  O   UNL     1       1.181   1.847  24.334  0.00  0.00    -0.275 OA
ATOM      3  N   UNL     1      -1.146   1.898  24.254  0.00  0.00    -0.301 N 
ATOM      6  C   UNL     1      -2.103   4.175  24.430  0.00  0.00    +0.010 C 
ATOM      7  C   UNL     1      -3.486   3.634  23.990  0.00  0.00    +0.004 C 
ATOM      9  C   UNL     1      -1.254   3.086  25.103  0.00  0.00    +0.111 C 
ATOM     12  C   UNL     1      -3.291   2.371  23.131  0.00  0.00    +0.023 C 
ATOM     13  C   UNL     1      -2.422   1.320  23.819  0.00  0.00    +0.108 C 
ATOM     14  C   UNL     1       0.114   1.361  23.969  0.00  0.00    +0.219 C 
ENDROOT
BRANCH  14   8
ATOM      8  C   UNL     1       0.159   0.106  23.159  0.00  0.00    +0.075 C 
ATOM     10  C   UNL     1       1.241  -0.899  23.427  0.00  0.00    +0.013 C 
ATOM     11  C   UNL     1       1.269  -0.084  22.167  0.00  0.00    +0.013 C 
ENDBRANCH  14   8
BRANCH   6  15
ATOM     15  C   UNL     1      -2.199   5.411  25.324  0.00  0.00    +0.002 C 
ATOM     17  C   UNL     1      -1.136   6.428  24.965  0.00  0.00    +0.004 C 
ENDBRANCH   6  15
BRANCH   7  16
ATOM     16  C   UNL     1      -4.449   3.364  25.151  0.00  0.00    +0.099 C 
BRANCH  16  18
ATOM      2  O   UNL     1      -6.221   1.868  24.459  0.00  0.00    -0.276 OA
ATOM      4  N   UNL     1      -4.397   1.017  25.620  0.00  0.00    -0.311 N 
ATOM     18  C   UNL     1      -5.140   2.023  25.022  0.00  0.00    +0.214 C 
ATOM     25  H   UNL     1      -3.493   1.232  26.029  0.00  0.00    +0.149 HD
BRANCH   4  19
ATOM     19  C   UNL     1      -4.818  -0.366  25.649  0.00  0.00    +0.141 C 
BRANCH  19  20
ATOM      5  N   UNL     1      -1.422  -2.006  25.374  0.00  0.00    -0.263 NA
ATOM     20  C   UNL     1      -3.725  -1.294  25.202  0.00  0.00    -0.012 A 
ATOM     21  C   UNL     1      -3.963  -2.270  24.241  0.00  0.00    +0.008 A 
ATOM     22  C   UNL     1      -2.448  -1.204  25.733  0.00  0.00    +0.115 A 
ATOM     23  C   UNL     1      -2.932  -3.115  23.845  0.00  0.00    +0.020 A 
ATOM     24  C   UNL     1      -1.691  -2.943  24.437  0.00  0.00    +0.111 A 
ENDBRANCH  19  20
ENDBRANCH   4  19
ENDBRANCH  16  18
ENDBRANCH   7  16
TORSDOF 6
ENDMDL
