MODEL 1
REMARK VINA RESULT:      -3.6      0.000      0.000
REMARK  Name = 7050197
REMARK  10 active torsions:
REMARK  status: ('A' for Active; 'I' for Inactive)
REMARK    1  A    between atoms: O_1  and  C_11
REMARK    2  A    between atoms: O_2  and  C_14
REMARK    3  A    between atoms: O_3  and  C_16
REMARK    4  A    between atoms: N_8  and  C_12
REMARK    5  A    between atoms: N_9  and  C_18
REMARK    6  A    between atoms: C_11  and  C_17
REMARK    7  A    between atoms: C_18  and  C_20
REMARK    8  A    between atoms: C_18  and  C_22
REMARK    9  A    between atoms: C_19  and  C_21
REMARK   10  A    between atoms: C_20  and  C_23
REMARK                            x       y       z     vdW  Elec       q    Type
REMARK                         _______ _______ _______ _____ _____    ______ ____
ROOT
ATOM     11  C   UNL     1      -3.777  -0.263  25.033  0.00  0.00    +0.146 C 
ATOM     12  C   UNL     1      -1.420  -1.180  24.790  0.00  0.00    +0.107 C 
ATOM     13  C   UNL     1      -2.346   0.022  24.574  0.00  0.00    +0.069 C 
ATOM     14  C   UNL     1      -1.981  -2.456  24.148  0.00  0.00    +0.163 C 
ATOM     15  C   UNL     1      -4.331  -1.524  24.372  0.00  0.00    +0.078 C 
ATOM     16  C   UNL     1      -3.420  -2.735  24.588  0.00  0.00    +0.148 C 
ENDROOT
BRANCH  11  17
ATOM      4  O   UNL     1      -5.811   0.761  24.308  0.00  0.00    -0.273 OA
ATOM      9  N   UNL     1      -4.047   2.117  24.994  0.00  0.00    -0.301 N 
ATOM     17  C   UNL     1      -4.670   0.907  24.741  0.00  0.00    +0.246 C 
ATOM     36  H   UNL     1      -3.152   2.116  25.474  0.00  0.00    +0.150 HD
BRANCH   9  18
ATOM     18  C   UNL     1      -4.683   3.396  24.772  0.00  0.00    +0.163 C 
BRANCH  18  22
ATOM      7  O   UNL     1      -5.944   2.740  26.745  0.00  0.00    -0.274 OA
ATOM     10  N   UNL     1      -6.402   4.770  25.772  0.00  0.00    -0.328 N 
ATOM     22  C   UNL     1      -5.736   3.566  25.858  0.00  0.00    +0.231 C 
ATOM     37  H   UNL     1      -7.120   5.018  26.444  0.00  0.00    +0.145 HD
ATOM     38  H   UNL     1      -6.204   5.452  25.047  0.00  0.00    +0.145 HD
ENDBRANCH  18  22
BRANCH  18  20
ATOM     20  C   UNL     1      -3.682   4.556  24.814  0.00  0.00    +0.067 C 
BRANCH  20  23
ATOM     23  C   UNL     1      -2.270   4.099  25.089  0.00  0.00    -0.045 A 
ATOM     25  C   UNL     1      -1.227   4.519  24.264  0.00  0.00    +0.004 A 
ATOM     26  C   UNL     1      -2.008   3.255  26.169  0.00  0.00    +0.004 A 
ATOM     29  C   UNL     1       0.077   4.095  24.517  0.00  0.00    +0.000 A 
ATOM     30  C   UNL     1      -0.704   2.833  26.423  0.00  0.00    +0.000 A 
ATOM     31  C   UNL     1       0.339   3.253  25.597  0.00  0.00    +0.000 A 
ENDBRANCH  20  23
ENDBRANCH  18  20
ENDBRANCH   9  18
ENDBRANCH  11  17
BRANCH  12   8
ATOM      5  O   UNL     1      -0.774   0.965  23.077  0.00  0.00    -0.267 OA
ATOM      8  N   UNL     1      -0.105  -0.883  24.266  0.00  0.00    -0.303 N 
ATOM     19  C   UNL     1       0.128   0.200  23.422  0.00  0.00    +0.280 C 
ATOM     32  H   UNL     1       0.663  -1.509  24.492  0.00  0.00    +0.149 HD
BRANCH  19  21
ATOM      6  O   UNL     1       2.235   1.385  23.590  0.00  0.00    -0.458 OA
ATOM     21  C   UNL     1       1.522   0.390  22.999  0.00  0.00    +0.189 A 
ATOM     24  C   UNL     1       2.295  -0.272  22.074  0.00  0.00    +0.054 A 
ATOM     27  C   UNL     1       3.563   0.354  22.099  0.00  0.00    +0.042 A 
ATOM     28  C   UNL     1       3.476   1.356  23.037  0.00  0.00    +0.196 A 
ENDBRANCH  19  21
ENDBRANCH  12   8
BRANCH  11   1
ATOM      1  O   UNL     1      -3.825  -0.420  26.447  0.00  0.00    -0.379 OA
ATOM     33  H   UNL     1      -2.930  -0.282  26.802  0.00  0.00    +0.211 HD
ENDBRANCH  11   1
BRANCH  14   2
ATOM      2  O   UNL     1      -1.182  -3.571  24.552  0.00  0.00    -0.387 OA
ATOM     34  H   UNL     1      -0.328  -3.513  24.090  0.00  0.00    +0.210 HD
ENDBRANCH  14   2
BRANCH  16   3
ATOM      3  O   UNL     1      -3.922  -3.831  23.824  0.00  0.00    -0.389 OA
ATOM     35  H   UNL     1      -3.226  -4.095  23.199  0.00  0.00    +0.210 HD
ENDBRANCH  16   3
TORSDOF 10
ENDMDL
MODEL 2
REMARK VINA RESULT:       0.2      2.591      6.270
REMARK  Name = 7050197
REMARK  10 active torsions:
REMARK  status: ('A' for Active; 'I' for Inactive)
REMARK    1  A    between atoms: O_1  and  C_11
REMARK    2  A    between atoms: O_2  and  C_14
REMARK    3  A    between atoms: O_3  and  C_16
REMARK    4  A    between atoms: N_8  and  C_12
REMARK    5  A    between atoms: N_9  and  C_18
REMARK    6  A    between atoms: C_11  and  C_17
REMARK    7  A    between atoms: C_18  and  C_20
REMARK    8  A    between atoms: C_18  and  C_22
REMARK    9  A    between atoms: C_19  and  C_21
REMARK   10  A    between atoms: C_20  and  C_23
REMARK                            x       y       z     vdW  Elec       q    Type
REMARK                         _______ _______ _______ _____ _____    ______ ____
ROOT
ATOM     11  C   UNL     1      -2.233   2.491  23.574  0.00  0.00    +0.146 C 
ATOM     12  C   UNL     1      -1.725   3.513  25.844  0.00  0.00    +0.107 C 
ATOM     13  C   UNL     1      -1.319   2.467  24.801  0.00  0.00    +0.069 C 
ATOM     14  C   UNL     1      -3.205   3.389  26.233  0.00  0.00    +0.163 C 
ATOM     15  C   UNL     1      -3.700   2.346  23.972  0.00  0.00    +0.078 C 
ATOM     16  C   UNL     1      -4.122   3.391  25.007  0.00  0.00    +0.148 C 
ENDROOT
BRANCH  11  17
ATOM      4  O   UNL     1      -2.446   1.246  21.546  0.00  0.00    -0.273 OA
ATOM      9  N   UNL     1      -0.797   0.640  23.073  0.00  0.00    -0.301 N 
ATOM     17  C   UNL     1      -1.850   1.408  22.609  0.00  0.00    +0.246 C 
ATOM     36  H   UNL     1      -0.296   0.946  23.902  0.00  0.00    +0.150 HD
BRANCH   9  18
ATOM     18  C   UNL     1      -0.253  -0.482  22.342  0.00  0.00    +0.163 C 
BRANCH  18  22
ATOM      7  O   UNL     1       1.825  -0.439  21.080  0.00  0.00    -0.274 OA
ATOM     10  N   UNL     1       1.821   0.394  23.221  0.00  0.00    -0.328 N 
ATOM     22  C   UNL     1       1.228  -0.202  22.128  0.00  0.00    +0.231 C 
ATOM     37  H   UNL     1       2.803   0.647  23.207  0.00  0.00    +0.145 HD
ATOM     38  H   UNL     1       1.310   0.603  24.072  0.00  0.00    +0.145 HD
ENDBRANCH  18  22
BRANCH  18  20
ATOM     20  C   UNL     1      -0.442  -1.808  23.088  0.00  0.00    +0.067 C 
BRANCH  20  23
ATOM     23  C   UNL     1      -1.412  -1.695  24.239  0.00  0.00    -0.045 A 
ATOM     25  C   UNL     1      -1.032  -1.040  25.411  0.00  0.00    +0.004 A 
ATOM     26  C   UNL     1      -2.690  -2.246  24.132  0.00  0.00    +0.004 A 
ATOM     29  C   UNL     1      -1.927  -0.937  26.475  0.00  0.00    +0.000 A 
ATOM     30  C   UNL     1      -3.585  -2.141  25.196  0.00  0.00    +0.000 A 
ATOM     31  C   UNL     1      -3.204  -1.486  26.368  0.00  0.00    +0.000 A 
ENDBRANCH  20  23
ENDBRANCH  18  20
ENDBRANCH   9  18
ENDBRANCH  11  17
BRANCH  12   8
ATOM      5  O   UNL     1       0.703   2.086  25.981  0.00  0.00    -0.267 OA
ATOM      8  N   UNL     1      -0.880   3.392  27.012  0.00  0.00    -0.303 N 
ATOM     19  C   UNL     1       0.306   2.664  26.994  0.00  0.00    +0.280 C 
ATOM     32  H   UNL     1      -1.187   3.820  27.882  0.00  0.00    +0.149 HD
BRANCH  19  21
ATOM      6  O   UNL     1       2.374   3.045  28.200  0.00  0.00    -0.458 OA
ATOM     21  C   UNL     1       1.071   2.661  28.249  0.00  0.00    +0.189 A 
ATOM     24  C   UNL     1       0.715   2.328  29.535  0.00  0.00    +0.054 A 
ATOM     27  C   UNL     1       1.871   2.521  30.327  0.00  0.00    +0.042 A 
ATOM     28  C   UNL     1       2.853   2.958  29.468  0.00  0.00    +0.196 A 
ENDBRANCH  19  21
ENDBRANCH  12   8
BRANCH  11   1
ATOM      1  O   UNL     1      -2.065   3.705  22.851  0.00  0.00    -0.379 OA
ATOM     33  H   UNL     1      -2.485   4.424  23.356  0.00  0.00    +0.211 HD
ENDBRANCH  11   1
BRANCH  14   2
ATOM      2  O   UNL     1      -3.569   4.507  27.047  0.00  0.00    -0.387 OA
ATOM     34  H   UNL     1      -4.536   4.504  27.148  0.00  0.00    +0.210 HD
ENDBRANCH  14   2
BRANCH  16   3
ATOM      3  O   UNL     1      -5.452   3.104  25.438  0.00  0.00    -0.389 OA
ATOM     35  H   UNL     1      -5.704   2.245  25.057  0.00  0.00    +0.210 HD
ENDBRANCH  16   3
TORSDOF 10
ENDMDL
MODEL 3
REMARK VINA RESULT:       0.3      2.116      4.731
REMARK  Name = 7050197
REMARK  10 active torsions:
REMARK  status: ('A' for Active; 'I' for Inactive)
REMARK    1  A    between atoms: O_1  and  C_11
REMARK    2  A    between atoms: O_2  and  C_14
REMARK    3  A    between atoms: O_3  and  C_16
REMARK    4  A    between atoms: N_8  and  C_12
REMARK    5  A    between atoms: N_9  and  C_18
REMARK    6  A    between atoms: C_11  and  C_17
REMARK    7  A    between atoms: C_18  and  C_20
REMARK    8  A    between atoms: C_18  and  C_22
REMARK    9  A    between atoms: C_19  and  C_21
REMARK   10  A    between atoms: C_20  and  C_23
REMARK                            x       y       z     vdW  Elec       q    Type
REMARK                         _______ _______ _______ _____ _____    ______ ____
ROOT
ATOM     11  C   UNL     1      -2.257   2.140  23.522  0.00  0.00    +0.146 C 
ATOM     12  C   UNL     1       0.260   2.411  23.306  0.00  0.00    +0.107 C 
ATOM     13  C   UNL     1      -0.890   1.473  23.686  0.00  0.00    +0.069 C 
ATOM     14  C   UNL     1       0.183   3.745  24.060  0.00  0.00    +0.163 C 
ATOM     15  C   UNL     1      -2.328   3.456  24.293  0.00  0.00    +0.078 C 
ATOM     16  C   UNL     1      -1.190   4.407  23.916  0.00  0.00    +0.148 C 
ENDROOT
BRANCH  11  17
ATOM      4  O   UNL     1      -3.877   0.414  23.205  0.00  0.00    -0.273 OA
ATOM      9  N   UNL     1      -3.689   1.413  25.299  0.00  0.00    -0.301 N 
ATOM     17  C   UNL     1      -3.353   1.219  23.970  0.00  0.00    +0.246 C 
ATOM     36  H   UNL     1      -3.101   2.012  25.871  0.00  0.00    +0.150 HD
BRANCH   9  18
ATOM     18  C   UNL     1      -4.731   0.667  25.968  0.00  0.00    +0.163 C 
BRANCH  18  22
ATOM      7  O   UNL     1      -6.626   1.350  24.605  0.00  0.00    -0.274 OA
ATOM     10  N   UNL     1      -6.542   2.039  26.795  0.00  0.00    -0.328 N 
ATOM     22  C   UNL     1      -6.045   1.384  25.688  0.00  0.00    +0.231 C 
ATOM     37  H   UNL     1      -7.419   2.546  26.751  0.00  0.00    +0.145 HD
ATOM     38  H   UNL     1      -6.062   2.040  27.690  0.00  0.00    +0.145 HD
ENDBRANCH  18  22
BRANCH  18  20
ATOM     20  C   UNL     1      -4.804  -0.786  25.486  0.00  0.00    +0.067 C 
BRANCH  20  23
ATOM     23  C   UNL     1      -3.442  -1.406  25.296  0.00  0.00    -0.045 A 
ATOM     25  C   UNL     1      -3.272  -2.456  24.393  0.00  0.00    +0.004 A 
ATOM     26  C   UNL     1      -2.350  -0.930  26.024  0.00  0.00    +0.004 A 
ATOM     29  C   UNL     1      -2.013  -3.030  24.218  0.00  0.00    +0.000 A 
ATOM     30  C   UNL     1      -1.091  -1.503  25.847  0.00  0.00    +0.000 A 
ATOM     31  C   UNL     1      -0.923  -2.553  24.944  0.00  0.00    +0.000 A 
ENDBRANCH  20  23
ENDBRANCH  18  20
ENDBRANCH   9  18
ENDBRANCH  11  17
BRANCH  12   8
ATOM      5  O   UNL     1       1.202   0.090  22.010  0.00  0.00    -0.267 OA
ATOM      8  N   UNL     1       1.527   1.757  23.557  0.00  0.00    -0.303 N 
ATOM     19  C   UNL     1       1.915   0.610  22.870  0.00  0.00    +0.280 C 
ATOM     32  H   UNL     1       2.131   2.128  24.285  0.00  0.00    +0.149 HD
BRANCH  19  21
ATOM      6  O   UNL     1       3.328  -1.216  23.605  0.00  0.00    -0.458 OA
ATOM     21  C   UNL     1       3.243   0.082  23.212  0.00  0.00    +0.189 A 
ATOM     24  C   UNL     1       4.486   0.669  23.216  0.00  0.00    +0.054 A 
ATOM     27  C   UNL     1       5.394  -0.332  23.637  0.00  0.00    +0.042 A 
ATOM     28  C   UNL     1       4.640  -1.461  23.861  0.00  0.00    +0.196 A 
ENDBRANCH  19  21
ENDBRANCH  12   8
BRANCH  11   1
ATOM      1  O   UNL     1      -2.526   2.392  22.147  0.00  0.00    -0.379 OA
ATOM     33  H   UNL     1      -2.094   3.227  21.897  0.00  0.00    +0.211 HD
ENDBRANCH  11   1
BRANCH  14   2
ATOM      2  O   UNL     1       1.155   4.643  23.520  0.00  0.00    -0.387 OA
ATOM     34  H   UNL     1       1.988   4.154  23.404  0.00  0.00    +0.210 HD
ENDBRANCH  14   2
BRANCH  16   3
ATOM      3  O   UNL     1      -1.235   5.545  24.776  0.00  0.00    -0.389 OA
ATOM     35  H   UNL     1      -1.988   6.093  24.498  0.00  0.00    +0.210 HD
ENDBRANCH  16   3
TORSDOF 10
ENDMDL
