MODEL 1
REMARK VINA RESULT:       4.0      0.000      0.000
REMARK  Name = 7143710
REMARK  5 active torsions:
REMARK  status: ('A' for Active; 'I' for Inactive)
REMARK    1  A    between atoms: O_3  and  C_20
REMARK    2  A    between atoms: O_3  and  C_28
REMARK    3  A    between atoms: C_15  and  C_18
REMARK    4  A    between atoms: C_16  and  C_19
REMARK    5  A    between atoms: C_18  and  C_20
REMARK                            x       y       z     vdW  Elec       q    Type
REMARK                         _______ _______ _______ _____ _____    ______ ____
ROOT
ATOM      1  O   UNL     1       0.013   1.946  25.816  0.00  0.00    -0.267 OA
ATOM      2  O   UNL     1      -4.992   0.238  26.609  0.00  0.00    -0.276 OA
ATOM      4  N   UNL     1      -4.950   1.963  25.053  0.00  0.00    -0.300 N 
ATOM      5  N   UNL     1      -1.864   2.676  24.641  0.00  0.00    -0.311 N 
ATOM      6  C   UNL     1      -3.736   4.034  25.743  0.00  0.00    +0.027 C 
ATOM      7  C   UNL     1      -3.892   3.447  23.361  0.00  0.00    +0.054 C 
ATOM      8  C   UNL     1      -3.949   4.610  24.349  0.00  0.00    +0.018 C 
ATOM      9  C   UNL     1      -4.831   3.004  26.075  0.00  0.00    +0.113 C 
ATOM     10  C   UNL     1      -2.331   3.424  25.818  0.00  0.00    +0.130 C 
ATOM     11  C   UNL     1      -5.028   2.452  23.669  0.00  0.00    +0.117 C 
ATOM     12  C   UNL     1      -2.553   2.737  23.428  0.00  0.00    +0.027 A 
ATOM     13  C   UNL     1      -2.045   2.146  22.335  0.00  0.00    +0.022 A 
ATOM     14  C   UNL     1      -0.640   1.992  24.772  0.00  0.00    +0.259 A 
ATOM     15  C   UNL     1      -5.060   0.628  25.441  0.00  0.00    +0.218 C 
ATOM     16  C   UNL     1      -0.115   1.307  23.539  0.00  0.00    +0.047 A 
ATOM     17  C   UNL     1      -0.811   1.417  22.397  0.00  0.00    +0.015 A 
ENDROOT
BRANCH  16  19
ATOM     19  C   UNL     1       1.132   0.525  23.574  0.00  0.00    -0.012 A 
ATOM     21  C   UNL     1       2.361   1.157  23.375  0.00  0.00    +0.017 A 
ATOM     22  C   UNL     1       1.087  -0.848  23.805  0.00  0.00    +0.009 A 
ATOM     23  C   UNL     1       3.559   0.423  23.406  0.00  0.00    -0.017 A 
ATOM     24  C   UNL     1       2.267  -1.591  23.839  0.00  0.00    +0.009 A 
ATOM     25  C   UNL     1       3.511  -0.971  23.642  0.00  0.00    -0.018 A 
ATOM     26  C   UNL     1       4.803   1.044  23.208  0.00  0.00    +0.008 A 
ATOM     27  C   UNL     1       4.709  -1.704  23.673  0.00  0.00    +0.008 A 
ATOM     29  C   UNL     1       5.983   0.301  23.242  0.00  0.00    +0.001 A 
ATOM     30  C   UNL     1       5.936  -1.071  23.473  0.00  0.00    +0.001 A 
ENDBRANCH  16  19
BRANCH  15  18
ATOM     18  C   UNL     1      -5.267  -0.381  24.340  0.00  0.00    +0.124 C 
BRANCH  18  20
ATOM     20  C   UNL     1      -4.162  -1.413  24.384  0.00  0.00    +0.168 C 
BRANCH  20   3
ATOM      3  O   UNL     1      -2.899  -0.758  24.387  0.00  0.00    -0.382 OA
ATOM     28  C   UNL     1      -1.956  -1.448  25.196  0.00  0.00    +0.194 C 
ENDBRANCH  20   3
ENDBRANCH  18  20
ENDBRANCH  15  18
TORSDOF 4
ENDMDL
MODEL 2
REMARK VINA RESULT:       4.8      1.004      1.698
REMARK  Name = 7143710
REMARK  5 active torsions:
REMARK  status: ('A' for Active; 'I' for Inactive)
REMARK    1  A    between atoms: O_3  and  C_20
REMARK    2  A    between atoms: O_3  and  C_28
REMARK    3  A    between atoms: C_15  and  C_18
REMARK    4  A    between atoms: C_16  and  C_19
REMARK    5  A    between atoms: C_18  and  C_20
REMARK                            x       y       z     vdW  Elec       q    Type
REMARK                         _______ _______ _______ _____ _____    ______ ____
ROOT
ATOM      1  O   UNL     1       0.362   2.160  25.539  0.00  0.00    -0.267 OA
ATOM      2  O   UNL     1      -3.760  -1.028  26.743  0.00  0.00    -0.276 OA
ATOM      4  N   UNL     1      -4.375   0.542  25.145  0.00  0.00    -0.300 N 
ATOM      5  N   UNL     1      -1.719   2.190  24.488  0.00  0.00    -0.311 N 
ATOM      6  C   UNL     1      -3.858   2.924  25.690  0.00  0.00    +0.027 C 
ATOM      7  C   UNL     1      -3.963   2.206  23.342  0.00  0.00    +0.054 C 
ATOM      8  C   UNL     1      -4.332   3.334  24.302  0.00  0.00    +0.018 C 
ATOM      9  C   UNL     1      -4.537   1.615  26.128  0.00  0.00    +0.113 C 
ATOM     10  C   UNL     1      -2.330   2.804  25.676  0.00  0.00    +0.130 C 
ATOM     11  C   UNL     1      -4.692   0.913  23.758  0.00  0.00    +0.117 C 
ATOM     12  C   UNL     1      -2.464   1.968  23.328  0.00  0.00    +0.027 A 
ATOM     13  C   UNL     1      -1.860   1.520  22.215  0.00  0.00    +0.022 A 
ATOM     14  C   UNL     1      -0.334   1.943  24.546  0.00  0.00    +0.259 A 
ATOM     15  C   UNL     1      -4.022  -0.737  25.573  0.00  0.00    +0.218 C 
ATOM     16  C   UNL     1       0.308   1.406  23.294  0.00  0.00    +0.047 A 
ATOM     17  C   UNL     1      -0.454   1.231  22.205  0.00  0.00    +0.015 A 
ENDROOT
BRANCH  16  19
ATOM     19  C   UNL     1       1.741   1.068  23.257  0.00  0.00    -0.012 A 
ATOM     21  C   UNL     1       2.167  -0.218  23.595  0.00  0.00    +0.017 A 
ATOM     22  C   UNL     1       2.675   2.033  22.885  0.00  0.00    +0.009 A 
ATOM     23  C   UNL     1       3.530  -0.555  23.563  0.00  0.00    -0.017 A 
ATOM     24  C   UNL     1       4.032   1.716  22.848  0.00  0.00    +0.009 A 
ATOM     25  C   UNL     1       4.476   0.427  23.185  0.00  0.00    -0.018 A 
ATOM     26  C   UNL     1       3.973  -1.844  23.900  0.00  0.00    +0.008 A 
ATOM     27  C   UNL     1       5.840   0.089  23.153  0.00  0.00    +0.008 A 
ATOM     29  C   UNL     1       5.332  -2.162  23.863  0.00  0.00    +0.001 A 
ATOM     30  C   UNL     1       6.263  -1.196  23.491  0.00  0.00    +0.001 A 
ENDBRANCH  16  19
BRANCH  15  18
ATOM     18  C   UNL     1      -3.959  -1.810  24.516  0.00  0.00    +0.124 C 
BRANCH  18  20
ATOM     20  C   UNL     1      -2.603  -2.480  24.556  0.00  0.00    +0.168 C 
BRANCH  20   3
ATOM      3  O   UNL     1      -1.587  -1.513  24.323  0.00  0.00    -0.382 OA
ATOM     28  C   UNL     1      -0.582  -1.560  25.326  0.00  0.00    +0.194 C 
ENDBRANCH  20   3
ENDBRANCH  18  20
ENDBRANCH  15  18
TORSDOF 4
ENDMDL
