MODEL 1
REMARK VINA RESULT:       1.4      0.000      0.000
REMARK  Name = 40780380
REMARK  10 active torsions:
REMARK  status: ('A' for Active; 'I' for Inactive)
REMARK    1  A    between atoms: N_1  and  C_7
REMARK    2  A    between atoms: N_1  and  C_13
REMARK    3  A    between atoms: N_2  and  C_16
REMARK    4  A    between atoms: C_5  and  C_8
REMARK    5  A    between atoms: C_11  and  C_14
REMARK    6  A    between atoms: C_12  and  C_15
REMARK    7  A    between atoms: C_13  and  C_17
REMARK    8  A    between atoms: C_20  and  C_21
REMARK    9  A    between atoms: C_21  and  C_25
REMARK   10  A    between atoms: C_21  and  C_26
REMARK                            x       y       z     vdW  Elec       q    Type
REMARK                         _______ _______ _______ _____ _____    ______ ____
ROOT
ATOM      2  N   UNL     1       0.177  -0.696  24.057  0.00  0.00    -0.236 N 
ATOM      3  N   UNL     1      -0.373  -1.887  23.768  0.00  0.00    -0.171 NA
ATOM      8  C   UNL     1      -1.897  -0.465  24.701  0.00  0.00    +0.003 A 
ATOM     11  C   UNL     1      -0.693   0.192  24.619  0.00  0.00    +0.046 A 
ATOM     12  C   UNL     1      -1.640  -1.739  24.163  0.00  0.00    +0.064 A 
ATOM     14  C   UNL     1      -0.310   1.561  25.020  0.00  0.00    +0.066 C 
ATOM     15  C   UNL     1      -2.583  -2.862  24.006  0.00  0.00    +0.068 C 
ENDROOT
BRANCH   2  16
ATOM     16  C   UNL     1       1.525  -0.470  23.776  0.00  0.00    +0.066 A 
ATOM     18  C   UNL     1       2.472  -1.456  24.059  0.00  0.00    +0.028 A 
ATOM     19  C   UNL     1       1.926   0.744  23.218  0.00  0.00    +0.028 A 
ATOM     20  C   UNL     1       4.221  -0.014  23.221  0.00  0.00    -0.045 A 
ATOM     22  C   UNL     1       3.820  -1.228  23.781  0.00  0.00    +0.006 A 
ATOM     23  C   UNL     1       3.274   0.971  22.940  0.00  0.00    +0.006 A 
BRANCH  20  21
ATOM     21  C   UNL     1       5.662   0.229  22.926  0.00  0.00    +0.013 C 
ATOM     25  C   UNL     1       6.351   1.074  24.016  0.00  0.00    +0.012 C 
ATOM     26  C   UNL     1       6.447  -1.077  22.704  0.00  0.00    +0.012 C 
ENDBRANCH  20  21
ENDBRANCH   2  16
BRANCH   8   5
ATOM      5  C   UNL     1      -3.202   0.066  25.249  0.00  0.00    +0.047 C 
ATOM      6  C   UNL     1      -3.630   1.402  24.613  0.00  0.00    +0.035 C 
ATOM      7  C   UNL     1      -5.166   1.376  24.552  0.00  0.00    +0.078 C 
ATOM      9  C   UNL     1      -4.394  -0.807  24.984  0.00  0.00    -0.021 C 
ATOM     10  C   UNL     1      -5.461  -0.091  24.613  0.00  0.00    -0.012 C 
BRANCH   7   1
ATOM      1  N   UNL     1      -5.771   2.089  25.670  0.00  0.00    -0.304 NA
ATOM     30  H   UNL     1      -5.297   1.828  26.534  0.00  0.00    +0.123 HD
BRANCH   1  13
ATOM     13  C   UNL     1      -5.664   3.531  25.491  0.00  0.00    +0.137 C 
BRANCH  13  17
ATOM      4  N   UNL     1      -3.811   4.462  24.219  0.00  0.00    -0.259 NA
ATOM     17  C   UNL     1      -4.230   3.983  25.411  0.00  0.00    +0.055 A 
ATOM     24  C   UNL     1      -3.426   3.890  26.536  0.00  0.00    +0.024 A 
ATOM     27  C   UNL     1      -2.107   4.317  26.429  0.00  0.00    +0.003 A 
ATOM     28  C   UNL     1      -2.523   4.867  24.153  0.00  0.00    +0.111 A 
ATOM     29  C   UNL     1      -1.639   4.815  25.220  0.00  0.00    +0.020 A 
ENDBRANCH  13  17
ENDBRANCH   1  13
ENDBRANCH   7   1
ENDBRANCH   8   5
TORSDOF 6
ENDMDL
MODEL 2
REMARK VINA RESULT:       2.5      1.597      3.689
REMARK  Name = 40780380
REMARK  10 active torsions:
REMARK  status: ('A' for Active; 'I' for Inactive)
REMARK    1  A    between atoms: N_1  and  C_7
REMARK    2  A    between atoms: N_1  and  C_13
REMARK    3  A    between atoms: N_2  and  C_16
REMARK    4  A    between atoms: C_5  and  C_8
REMARK    5  A    between atoms: C_11  and  C_14
REMARK    6  A    between atoms: C_12  and  C_15
REMARK    7  A    between atoms: C_13  and  C_17
REMARK    8  A    between atoms: C_20  and  C_21
REMARK    9  A    between atoms: C_21  and  C_25
REMARK   10  A    between atoms: C_21  and  C_26
REMARK                            x       y       z     vdW  Elec       q    Type
REMARK                         _______ _______ _______ _____ _____    ______ ____
ROOT
ATOM      2  N   UNL     1       0.929   1.576  23.724  0.00  0.00    -0.236 N 
ATOM      3  N   UNL     1       0.865   2.856  24.127  0.00  0.00    -0.171 NA
ATOM      8  C   UNL     1      -1.217   1.950  23.881  0.00  0.00    +0.003 A 
ATOM     11  C   UNL     1      -0.291   0.988  23.561  0.00  0.00    +0.046 A 
ATOM     12  C   UNL     1      -0.448   3.079  24.221  0.00  0.00    +0.064 A 
ATOM     14  C   UNL     1      -0.464  -0.412  23.122  0.00  0.00    +0.066 C 
ATOM     15  C   UNL     1      -0.930   4.406  24.645  0.00  0.00    +0.068 C 
ENDROOT
BRANCH   2  16
ATOM     16  C   UNL     1       2.173   0.978  23.514  0.00  0.00    +0.066 A 
ATOM     18  C   UNL     1       2.340  -0.386  23.755  0.00  0.00    +0.028 A 
ATOM     19  C   UNL     1       3.248   1.746  23.068  0.00  0.00    +0.028 A 
ATOM     20  C   UNL     1       4.660  -0.214  23.102  0.00  0.00    -0.045 A 
ATOM     22  C   UNL     1       3.584  -0.982  23.549  0.00  0.00    +0.006 A 
ATOM     23  C   UNL     1       4.492   1.150  22.862  0.00  0.00    +0.006 A 
BRANCH  20  21
ATOM     21  C   UNL     1       5.990  -0.852  22.884  0.00  0.00    +0.013 C 
ATOM     25  C   UNL     1       7.158   0.062  23.305  0.00  0.00    +0.012 C 
ATOM     26  C   UNL     1       6.114  -2.215  23.590  0.00  0.00    +0.012 C 
ENDBRANCH  20  21
ENDBRANCH   2  16
BRANCH   8   5
ATOM      5  C   UNL     1      -2.723   1.822  23.867  0.00  0.00    +0.047 C 
ATOM      6  C   UNL     1      -3.383   2.265  25.186  0.00  0.00    +0.035 C 
ATOM      7  C   UNL     1      -4.733   2.893  24.801  0.00  0.00    +0.078 C 
ATOM      9  C   UNL     1      -3.417   2.690  22.858  0.00  0.00    -0.021 C 
ATOM     10  C   UNL     1      -4.512   3.264  23.367  0.00  0.00    -0.012 C 
BRANCH   7   1
ATOM      1  N   UNL     1      -5.836   1.952  24.944  0.00  0.00    -0.304 NA
ATOM     30  H   UNL     1      -6.000   1.483  24.052  0.00  0.00    +0.123 HD
BRANCH   1  13
ATOM     13  C   UNL     1      -5.539   0.947  25.957  0.00  0.00    +0.137 C 
BRANCH  13  17
ATOM      4  N   UNL     1      -5.046  -0.591  24.137  0.00  0.00    -0.259 NA
ATOM     17  C   UNL     1      -4.740  -0.199  25.394  0.00  0.00    +0.055 A 
ATOM     24  C   UNL     1      -3.752  -0.782  26.169  0.00  0.00    +0.024 A 
ATOM     27  C   UNL     1      -3.031  -1.837  25.619  0.00  0.00    +0.003 A 
ATOM     28  C   UNL     1      -4.325  -1.619  23.636  0.00  0.00    +0.111 A 
ATOM     29  C   UNL     1      -3.317  -2.269  24.330  0.00  0.00    +0.020 A 
ENDBRANCH  13  17
ENDBRANCH   1  13
ENDBRANCH   7   1
ENDBRANCH   8   5
TORSDOF 6
ENDMDL
