MODEL 1
REMARK VINA RESULT:      -0.2      0.000      0.000
REMARK  Name = 11886217
REMARK  5 active torsions:
REMARK  status: ('A' for Active; 'I' for Inactive)
REMARK    1  A    between atoms: O_3  and  C_19
REMARK    2  A    between atoms: O_3  and  C_21
REMARK    3  A    between atoms: N_7  and  C_15
REMARK    4  A    between atoms: N_8  and  C_16
REMARK    5  A    between atoms: N_12  and  C_22
REMARK                            x       y       z     vdW  Elec       q    Type
REMARK                         _______ _______ _______ _____ _____    ______ ____
ROOT
ATOM      1  O   UNL     1      -2.553   3.969  26.888  0.00  0.00    -0.370 OA
ATOM      2  O   UNL     1      -2.992   4.866  23.905  0.00  0.00    -0.370 OA
ATOM     13  C   UNL     1      -3.335   3.685  24.654  0.00  0.00    +0.176 C 
ATOM     14  C   UNL     1      -2.194   3.415  25.613  0.00  0.00    +0.172 C 
ATOM     15  C   UNL     1      -4.529   3.971  25.546  0.00  0.00    +0.171 C 
ATOM     16  C   UNL     1      -1.023   4.170  25.024  0.00  0.00    +0.131 C 
ATOM     17  C   UNL     1      -3.884   4.502  26.821  0.00  0.00    +0.190 C 
ATOM     18  C   UNL     1      -1.706   5.336  24.333  0.00  0.00    +0.185 C 
ENDROOT
BRANCH  16   8
ATOM      4  O   UNL     1       1.083   2.322  25.620  0.00  0.00    -0.252 OA
ATOM      8  N   UNL     1      -0.298   3.356  24.080  0.00  0.00    -0.292 N 
ATOM     12  N   UNL     1       1.241   1.822  23.332  0.00  0.00    -0.269 N 
ATOM     20  C   UNL     1       0.722   2.473  24.455  0.00  0.00    +0.304 C 
ATOM     34  H   UNL     1      -0.584   3.375  23.106  0.00  0.00    +0.151 HD
ATOM     35  H   UNL     1       0.828   2.065  22.435  0.00  0.00    +0.156 HD
BRANCH  12  22
ATOM     22  C   UNL     1       2.277   0.861  23.286  0.00  0.00    +0.035 A 
ATOM     25  C   UNL     1       3.581   1.278  23.076  0.00  0.00    +0.023 A 
ATOM     26  C   UNL     1       1.966  -0.479  23.455  0.00  0.00    +0.023 A 
ATOM     30  C   UNL     1       4.603   0.331  23.031  0.00  0.00    +0.002 A 
ATOM     31  C   UNL     1       2.989  -1.426  23.411  0.00  0.00    +0.002 A 
ATOM     33  C   UNL     1       4.307  -1.022  23.199  0.00  0.00    +0.000 A 
ENDBRANCH  12  22
ENDBRANCH  16   8
BRANCH  15   7
ATOM      7  N   UNL     1      -5.389   2.798  25.727  0.00  0.00    -0.187 N 
ATOM      9  N   UNL     1      -6.421   2.829  26.576  0.00  0.00    -0.041 NA
ATOM     10  N   UNL     1      -6.281   0.835  25.588  0.00  0.00    -0.071 NA
ATOM     11  N   UNL     1      -6.965   1.621  26.487  0.00  0.00    -0.020 NA
ATOM     19  C   UNL     1      -5.307   1.587  25.129  0.00  0.00    +0.342 A 
BRANCH  19   3
ATOM      3  O   UNL     1      -4.395   1.241  24.240  0.00  0.00    -0.423 OA
BRANCH   3  21
ATOM      5  O   UNL     1      -0.330  -1.060  25.439  0.00  0.00    -0.452 OA
ATOM      6  O   UNL     1      -1.250  -3.195  24.803  0.00  0.00    -0.453 OA
ATOM     21  C   UNL     1      -3.622   0.095  24.369  0.00  0.00    +0.136 A 
ATOM     23  C   UNL     1      -2.334   0.210  24.867  0.00  0.00    +0.096 A 
ATOM     24  C   UNL     1      -4.173  -1.129  23.995  0.00  0.00    +0.050 A 
ATOM     27  C   UNL     1      -1.606  -0.956  24.978  0.00  0.00    +0.170 A 
ATOM     28  C   UNL     1      -2.131  -2.176  24.615  0.00  0.00    +0.166 A 
ATOM     29  C   UNL     1      -3.414  -2.295  24.119  0.00  0.00    +0.053 A 
ATOM     32  C   UNL     1      -0.112  -2.481  25.326  0.00  0.00    +0.466 C 
ENDBRANCH   3  21
ENDBRANCH  19   3
ENDBRANCH  15   7
TORSDOF 5
ENDMDL
MODEL 2
REMARK VINA RESULT:       0.4      1.298      1.702
REMARK  Name = 11886217
REMARK  5 active torsions:
REMARK  status: ('A' for Active; 'I' for Inactive)
REMARK    1  A    between atoms: O_3  and  C_19
REMARK    2  A    between atoms: O_3  and  C_21
REMARK    3  A    between atoms: N_7  and  C_15
REMARK    4  A    between atoms: N_8  and  C_16
REMARK    5  A    between atoms: N_12  and  C_22
REMARK                            x       y       z     vdW  Elec       q    Type
REMARK                         _______ _______ _______ _____ _____    ______ ____
ROOT
ATOM      1  O   UNL     1      -2.553   4.108  24.868  0.00  0.00    -0.370 OA
ATOM      2  O   UNL     1      -3.105   2.286  22.364  0.00  0.00    -0.370 OA
ATOM     13  C   UNL     1      -3.339   2.139  23.778  0.00  0.00    +0.176 C 
ATOM     14  C   UNL     1      -2.166   2.777  24.494  0.00  0.00    +0.172 C 
ATOM     15  C   UNL     1      -4.540   2.970  24.190  0.00  0.00    +0.171 C 
ATOM     16  C   UNL     1      -1.071   2.823  23.453  0.00  0.00    +0.131 C 
ATOM     17  C   UNL     1      -3.925   4.328  24.508  0.00  0.00    +0.190 C 
ATOM     18  C   UNL     1      -1.858   2.965  22.162  0.00  0.00    +0.185 C 
ENDROOT
BRANCH  16   8
ATOM      4  O   UNL     1       1.786   2.621  23.486  0.00  0.00    -0.252 OA
ATOM      8  N   UNL     1      -0.292   1.609  23.458  0.00  0.00    -0.292 N 
ATOM     12  N   UNL     1       1.584   0.283  23.477  0.00  0.00    -0.269 N 
ATOM     20  C   UNL     1       1.108   1.597  23.475  0.00  0.00    +0.304 C 
ATOM     34  H   UNL     1      -0.782   0.722  23.518  0.00  0.00    +0.151 HD
ATOM     35  H   UNL     1       0.883  -0.455  23.465  0.00  0.00    +0.156 HD
BRANCH  12  22
ATOM     22  C   UNL     1       2.929  -0.154  23.492  0.00  0.00    +0.035 A 
ATOM     25  C   UNL     1       3.214  -1.458  23.860  0.00  0.00    +0.023 A 
ATOM     26  C   UNL     1       3.933   0.732  23.137  0.00  0.00    +0.023 A 
ATOM     30  C   UNL     1       4.540  -1.890  23.875  0.00  0.00    +0.002 A 
ATOM     31  C   UNL     1       5.259   0.300  23.151  0.00  0.00    +0.002 A 
ATOM     33  C   UNL     1       5.563  -1.010  23.521  0.00  0.00    +0.000 A 
ENDBRANCH  12  22
ENDBRANCH  16   8
BRANCH  15   7
ATOM      7  N   UNL     1      -5.296   2.358  25.286  0.00  0.00    -0.187 N 
ATOM      9  N   UNL     1      -5.678   3.083  26.343  0.00  0.00    -0.041 NA
ATOM     10  N   UNL     1      -6.352   0.968  26.560  0.00  0.00    -0.071 NA
ATOM     11  N   UNL     1      -6.326   2.224  27.122  0.00  0.00    -0.020 NA
ATOM     19  C   UNL     1      -5.707   1.076  25.420  0.00  0.00    +0.342 A 
BRANCH  19   3
ATOM      3  O   UNL     1      -5.485   0.113  24.545  0.00  0.00    -0.423 OA
BRANCH   3  21
ATOM      5  O   UNL     1      -0.956  -0.815  25.919  0.00  0.00    -0.452 OA
ATOM      6  O   UNL     1      -0.959  -2.943  24.790  0.00  0.00    -0.453 OA
ATOM     21  C   UNL     1      -4.351  -0.687  24.587  0.00  0.00    +0.136 A 
ATOM     23  C   UNL     1      -3.241  -0.238  25.284  0.00  0.00    +0.096 A 
ATOM     24  C   UNL     1      -4.373  -1.913  23.927  0.00  0.00    +0.050 A 
ATOM     27  C   UNL     1      -2.140  -1.068  25.297  0.00  0.00    +0.170 A 
ATOM     28  C   UNL     1      -2.141  -2.284  24.652  0.00  0.00    +0.166 A 
ATOM     29  C   UNL     1      -3.244  -2.736  23.957  0.00  0.00    +0.053 A 
ATOM     32  C   UNL     1      -0.213  -2.007  25.594  0.00  0.00    +0.466 C 
ENDBRANCH   3  21
ENDBRANCH  19   3
ENDBRANCH  15   7
TORSDOF 5
ENDMDL
MODEL 3
REMARK VINA RESULT:       3.4      1.856      4.249
REMARK  Name = 11886217
REMARK  5 active torsions:
REMARK  status: ('A' for Active; 'I' for Inactive)
REMARK    1  A    between atoms: O_3  and  C_19
REMARK    2  A    between atoms: O_3  and  C_21
REMARK    3  A    between atoms: N_7  and  C_15
REMARK    4  A    between atoms: N_8  and  C_16
REMARK    5  A    between atoms: N_12  and  C_22
REMARK                            x       y       z     vdW  Elec       q    Type
REMARK                         _______ _______ _______ _____ _____    ______ ____
ROOT
ATOM      1  O   UNL     1      -4.055  -0.572  23.198  0.00  0.00    -0.370 OA
ATOM      2  O   UNL     1      -3.425  -1.468  26.146  0.00  0.00    -0.370 OA
ATOM     13  C   UNL     1      -3.477  -0.193  25.479  0.00  0.00    +0.176 C 
ATOM     14  C   UNL     1      -2.935  -0.397  24.079  0.00  0.00    +0.172 C 
ATOM     15  C   UNL     1      -4.922   0.223  25.276  0.00  0.00    +0.171 C 
ATOM     16  C   UNL     1      -2.135  -1.677  24.170  0.00  0.00    +0.131 C 
ATOM     17  C   UNL     1      -5.276  -0.410  23.935  0.00  0.00    +0.190 C 
ATOM     18  C   UNL     1      -2.876  -2.444  25.251  0.00  0.00    +0.185 C 
ENDROOT
BRANCH  16   8
ATOM      4  O   UNL     1      -0.000  -0.831  22.458  0.00  0.00    -0.252 OA
ATOM      8  N   UNL     1      -0.771  -1.415  24.558  0.00  0.00    -0.292 N 
ATOM     12  N   UNL     1       1.437  -0.827  24.314  0.00  0.00    -0.269 N 
ATOM     20  C   UNL     1       0.216  -1.002  23.655  0.00  0.00    +0.304 C 
ATOM     34  H   UNL     1      -0.530  -1.469  25.543  0.00  0.00    +0.151 HD
ATOM     35  H   UNL     1       1.444  -1.013  25.314  0.00  0.00    +0.156 HD
BRANCH  12  22
ATOM     22  C   UNL     1       2.672  -0.418  23.760  0.00  0.00    +0.035 A 
ATOM     25  C   UNL     1       2.729   0.749  23.017  0.00  0.00    +0.023 A 
ATOM     26  C   UNL     1       3.800  -1.194  23.972  0.00  0.00    +0.023 A 
ATOM     30  C   UNL     1       3.947   1.153  22.470  0.00  0.00    +0.002 A 
ATOM     31  C   UNL     1       5.018  -0.790  23.425  0.00  0.00    +0.002 A 
ATOM     33  C   UNL     1       5.091   0.383  22.674  0.00  0.00    +0.000 A 
ENDBRANCH  12  22
ENDBRANCH  16   8
BRANCH  15   7
ATOM      7  N   UNL     1      -5.103   1.675  25.345  0.00  0.00    -0.187 N 
ATOM      9  N   UNL     1      -6.154   2.206  25.979  0.00  0.00    -0.041 NA
ATOM     10  N   UNL     1      -4.860   3.812  25.130  0.00  0.00    -0.071 NA
ATOM     11  N   UNL     1      -6.000   3.519  25.844  0.00  0.00    -0.020 NA
ATOM     19  C   UNL     1      -4.320   2.652  24.832  0.00  0.00    +0.342 A 
BRANCH  19   3
ATOM      3  O   UNL     1      -3.208   2.452  24.149  0.00  0.00    -0.423 OA
BRANCH   3  21
ATOM      5  O   UNL     1      -0.277   2.587  27.976  0.00  0.00    -0.452 OA
ATOM      6  O   UNL     1       1.683   2.678  26.578  0.00  0.00    -0.453 OA
ATOM     21  C   UNL     1      -1.951   2.511  24.734  0.00  0.00    +0.136 A 
ATOM     23  C   UNL     1      -1.856   2.513  26.116  0.00  0.00    +0.096 A 
ATOM     24  C   UNL     1      -0.830   2.564  23.908  0.00  0.00    +0.050 A 
ATOM     27  C   UNL     1      -0.586   2.572  26.651  0.00  0.00    +0.170 A 
ATOM     28  C   UNL     1       0.534   2.625  25.853  0.00  0.00    +0.166 A 
ATOM     29  C   UNL     1       0.445   2.622  24.476  0.00  0.00    +0.053 A 
ATOM     32  C   UNL     1       1.162   2.653  27.923  0.00  0.00    +0.466 C 
ENDBRANCH   3  21
ENDBRANCH  19   3
ENDBRANCH  15   7
TORSDOF 5
ENDMDL
MODEL 4
REMARK VINA RESULT:       3.5      1.648      4.510
REMARK  Name = 11886217
REMARK  5 active torsions:
REMARK  status: ('A' for Active; 'I' for Inactive)
REMARK    1  A    between atoms: O_3  and  C_19
REMARK    2  A    between atoms: O_3  and  C_21
REMARK    3  A    between atoms: N_7  and  C_15
REMARK    4  A    between atoms: N_8  and  C_16
REMARK    5  A    between atoms: N_12  and  C_22
REMARK                            x       y       z     vdW  Elec       q    Type
REMARK                         _______ _______ _______ _____ _____    ______ ____
ROOT
ATOM      1  O   UNL     1      -4.279  -1.423  23.820  0.00  0.00    -0.370 OA
ATOM      2  O   UNL     1      -2.237  -0.599  26.067  0.00  0.00    -0.370 OA
ATOM     13  C   UNL     1      -3.100   0.140  25.182  0.00  0.00    +0.176 C 
ATOM     14  C   UNL     1      -3.109  -0.590  23.853  0.00  0.00    +0.172 C 
ATOM     15  C   UNL     1      -4.533   0.060  25.675  0.00  0.00    +0.171 C 
ATOM     16  C   UNL     1      -1.860  -1.441  23.885  0.00  0.00    +0.131 C 
ATOM     17  C   UNL     1      -5.055  -1.207  25.007  0.00  0.00    +0.190 C 
ATOM     18  C   UNL     1      -1.705  -1.732  25.367  0.00  0.00    +0.185 C 
ENDROOT
BRANCH  16   8
ATOM      4  O   UNL     1       0.886  -1.852  24.588  0.00  0.00    -0.252 OA
ATOM      8  N   UNL     1      -0.722  -0.719  23.373  0.00  0.00    -0.292 N 
ATOM     12  N   UNL     1       1.483  -0.130  23.110  0.00  0.00    -0.269 N 
ATOM     20  C   UNL     1       0.595  -0.983  23.770  0.00  0.00    +0.304 C 
ATOM     34  H   UNL     1      -0.875  -0.031  22.642  0.00  0.00    +0.151 HD
ATOM     35  H   UNL     1       1.075   0.538  22.460  0.00  0.00    +0.156 HD
BRANCH  12  22
ATOM     22  C   UNL     1       2.891  -0.078  23.234  0.00  0.00    +0.035 A 
ATOM     25  C   UNL     1       3.573  -1.192  23.695  0.00  0.00    +0.023 A 
ATOM     26  C   UNL     1       3.560   1.086  22.890  0.00  0.00    +0.023 A 
ATOM     30  C   UNL     1       4.961  -1.142  23.817  0.00  0.00    +0.002 A 
ATOM     31  C   UNL     1       4.948   1.136  23.012  0.00  0.00    +0.002 A 
ATOM     33  C   UNL     1       5.649   0.022  23.475  0.00  0.00    +0.000 A 
ENDBRANCH  12  22
ENDBRANCH  16   8
BRANCH  15   7
ATOM      7  N   UNL     1      -5.296   1.276  25.382  0.00  0.00    -0.187 N 
ATOM      9  N   UNL     1      -6.455   1.215  24.718  0.00  0.00    -0.041 NA
ATOM     10  N   UNL     1      -5.963   3.327  25.239  0.00  0.00    -0.071 NA
ATOM     11  N   UNL     1      -6.860   2.477  24.633  0.00  0.00    -0.020 NA
ATOM     19  C   UNL     1      -5.001   2.559  25.698  0.00  0.00    +0.342 A 
BRANCH  19   3
ATOM      3  O   UNL     1      -3.923   2.949  26.352  0.00  0.00    -0.423 OA
BRANCH   3  21
ATOM      5  O   UNL     1       0.144   2.471  23.805  0.00  0.00    -0.452 OA
ATOM      6  O   UNL     1       0.514   4.852  23.789  0.00  0.00    -0.453 OA
ATOM     21  C   UNL     1      -2.805   3.465  25.711  0.00  0.00    +0.136 A 
ATOM     23  C   UNL     1      -1.928   2.591  25.091  0.00  0.00    +0.096 A 
ATOM     24  C   UNL     1      -2.609   4.844  25.714  0.00  0.00    +0.050 A 
ATOM     27  C   UNL     1      -0.832   3.150  24.467  0.00  0.00    +0.170 A 
ATOM     28  C   UNL     1      -0.620   4.510  24.457  0.00  0.00    +0.166 A 
ATOM     29  C   UNL     1      -1.492   5.385  25.072  0.00  0.00    +0.053 A 
ATOM     32  C   UNL     1       0.993   3.555  23.378  0.00  0.00    +0.466 C 
ENDBRANCH   3  21
ENDBRANCH  19   3
ENDBRANCH  15   7
TORSDOF 5
ENDMDL
MODEL 5
REMARK VINA RESULT:       3.5      2.499      3.398
REMARK  Name = 11886217
REMARK  5 active torsions:
REMARK  status: ('A' for Active; 'I' for Inactive)
REMARK    1  A    between atoms: O_3  and  C_19
REMARK    2  A    between atoms: O_3  and  C_21
REMARK    3  A    between atoms: N_7  and  C_15
REMARK    4  A    between atoms: N_8  and  C_16
REMARK    5  A    between atoms: N_12  and  C_22
REMARK                            x       y       z     vdW  Elec       q    Type
REMARK                         _______ _______ _______ _____ _____    ______ ____
ROOT
ATOM      1  O   UNL     1      -3.239   4.506  23.767  0.00  0.00    -0.370 OA
ATOM      2  O   UNL     1      -2.228   1.619  23.035  0.00  0.00    -0.370 OA
ATOM     13  C   UNL     1      -2.923   2.177  24.166  0.00  0.00    +0.176 C 
ATOM     14  C   UNL     1      -2.359   3.564  24.399  0.00  0.00    +0.172 C 
ATOM     15  C   UNL     1      -4.380   2.409  23.810  0.00  0.00    +0.171 C 
ATOM     16  C   UNL     1      -1.019   3.546  23.698  0.00  0.00    +0.131 C 
ATOM     17  C   UNL     1      -4.370   3.813  23.218  0.00  0.00    +0.190 C 
ATOM     18  C   UNL     1      -1.263   2.569  22.562  0.00  0.00    +0.185 C 
ENDROOT
BRANCH  16   8
ATOM      4  O   UNL     1      -1.029   3.617  26.561  0.00  0.00    -0.252 OA
ATOM      8  N   UNL     1       0.024   3.077  24.575  0.00  0.00    -0.292 N 
ATOM     12  N   UNL     1       1.095   2.619  26.556  0.00  0.00    -0.269 N 
ATOM     20  C   UNL     1      -0.059   3.147  25.971  0.00  0.00    +0.304 C 
ATOM     34  H   UNL     1       0.829   2.613  24.164  0.00  0.00    +0.151 HD
ATOM     35  H   UNL     1       1.808   2.271  25.920  0.00  0.00    +0.156 HD
BRANCH  12  22
ATOM     22  C   UNL     1       1.399   2.508  27.933  0.00  0.00    +0.035 A 
ATOM     25  C   UNL     1       2.721   2.558  28.342  0.00  0.00    +0.023 A 
ATOM     26  C   UNL     1       0.367   2.353  28.844  0.00  0.00    +0.023 A 
ATOM     30  C   UNL     1       3.021   2.449  29.699  0.00  0.00    +0.002 A 
ATOM     31  C   UNL     1       0.667   2.244  30.202  0.00  0.00    +0.002 A 
ATOM     33  C   UNL     1       1.994   2.292  30.629  0.00  0.00    +0.000 A 
ENDBRANCH  12  22
ENDBRANCH  16   8
BRANCH  15   7
ATOM      7  N   UNL     1      -5.274   2.226  24.958  0.00  0.00    -0.187 N 
ATOM      9  N   UNL     1      -5.597   3.256  25.746  0.00  0.00    -0.041 NA
ATOM     10  N   UNL     1      -6.589   1.388  26.454  0.00  0.00    -0.071 NA
ATOM     11  N   UNL     1      -6.406   2.736  26.663  0.00  0.00    -0.020 NA
ATOM     19  C   UNL     1      -5.878   1.094  25.389  0.00  0.00    +0.342 A 
BRANCH  19   3
ATOM      3  O   UNL     1      -5.757  -0.093  24.824  0.00  0.00    -0.423 OA
BRANCH   3  21
ATOM      5  O   UNL     1      -1.170  -0.768  26.152  0.00  0.00    -0.452 OA
ATOM      6  O   UNL     1      -0.954  -2.703  24.731  0.00  0.00    -0.453 OA
ATOM     21  C   UNL     1      -4.550  -0.778  24.777  0.00  0.00    +0.136 A 
ATOM     23  C   UNL     1      -3.496  -0.329  25.555  0.00  0.00    +0.096 A 
ATOM     24  C   UNL     1      -4.446  -1.893  23.948  0.00  0.00    +0.050 A 
ATOM     27  C   UNL     1      -2.318  -1.043  25.474  0.00  0.00    +0.170 A 
ATOM     28  C   UNL     1      -2.194  -2.148  24.663  0.00  0.00    +0.166 A 
ATOM     29  C   UNL     1      -3.242  -2.599  23.886  0.00  0.00    +0.053 A 
ATOM     32  C   UNL     1      -0.311  -1.825  25.677  0.00  0.00    +0.466 C 
ENDBRANCH   3  21
ENDBRANCH  19   3
ENDBRANCH  15   7
TORSDOF 5
ENDMDL
