MODEL 1
REMARK VINA RESULT:      13.1      0.000      0.000
REMARK  Name = 11911727
REMARK  8 active torsions:
REMARK  status: ('A' for Active; 'I' for Inactive)
REMARK    1  A    between atoms: S_1  and  N_6
REMARK    2  A    between atoms: S_1  and  C_19
REMARK    3  A    between atoms: N_6  and  C_14
REMARK    4  A    between atoms: N_7  and  C_15
REMARK    5  A    between atoms: N_11  and  C_36
REMARK    6  A    between atoms: N_11  and  C_37
REMARK    7  A    between atoms: N_11  and  C_38
REMARK    8  A    between atoms: C_23  and  C_28
REMARK                            x       y       z     vdW  Elec       q    Type
REMARK                         _______ _______ _______ _____ _____    ______ ____
ROOT
ATOM      2  O   UNL     1      -3.894  -0.632  26.657  0.00  0.00    -0.370 OA
ATOM      3  O   UNL     1      -4.372  -1.102  23.610  0.00  0.00    -0.370 OA
ATOM     12  C   UNL     1      -3.266  -0.580  24.364  0.00  0.00    +0.170 C 
ATOM     13  C   UNL     1      -3.842   0.230  25.508  0.00  0.00    +0.171 C 
ATOM     14  C   UNL     1      -2.518  -1.703  25.047  0.00  0.00    +0.133 C 
ATOM     15  C   UNL     1      -5.238   0.577  25.049  0.00  0.00    +0.130 C 
ATOM     16  C   UNL     1      -3.328  -1.906  26.316  0.00  0.00    +0.183 C 
ATOM     17  C   UNL     1      -5.598  -0.599  24.160  0.00  0.00    +0.185 C 
ENDROOT
BRANCH  15   7
ATOM      7  N   UNL     1      -5.215   1.800  24.277  0.00  0.00    -0.306 N 
ATOM      8  N   UNL     1      -3.229   2.533  25.288  0.00  0.00    -0.214 NA
ATOM      9  N   UNL     1      -4.326   3.865  23.605  0.00  0.00    -0.223 NA
ATOM     18  C   UNL     1      -4.227   2.761  24.393  0.00  0.00    +0.216 A 
ATOM     23  C   UNL     1      -2.283   3.490  25.376  0.00  0.00    +0.076 A 
ATOM     25  C   UNL     1      -3.345   4.782  23.746  0.00  0.00    +0.116 A 
ATOM     27  C   UNL     1      -2.289   4.647  24.623  0.00  0.00    +0.048 A 
ATOM     40  H   UNL     1      -5.926   1.956  23.570  0.00  0.00    +0.149 HD
BRANCH  23  28
ATOM     28  C   UNL     1      -1.232   3.227  26.331  0.00  0.00    +0.001 A 
ATOM     32  C   UNL     1      -1.517   3.204  27.698  0.00  0.00    +0.012 A 
ATOM     33  C   UNL     1       0.072   2.998  25.890  0.00  0.00    +0.012 A 
ATOM     34  C   UNL     1      -0.502   2.951  28.620  0.00  0.00    +0.024 A 
ATOM     35  C   UNL     1       1.089   2.746  26.813  0.00  0.00    +0.024 A 
ATOM     36  C   UNL     1       0.801   2.722  28.178  0.00  0.00    +0.029 A 
BRANCH  36  11
ATOM     11  N   UNL     1       1.828   2.466  29.110  0.00  0.00    -0.336 N 
ATOM     37  C   UNL     1       1.513   1.938  30.423  0.00  0.00    +0.129 C 
ATOM     38  C   UNL     1       3.211   2.741  28.773  0.00  0.00    +0.129 C 
ENDBRANCH  36  11
ENDBRANCH  23  28
ENDBRANCH  15   7
BRANCH  14   6
ATOM      6  N   UNL     1      -1.161  -1.319  25.348  0.00  0.00    -0.182 NA
ATOM     39  H   UNL     1      -1.008  -0.514  25.966  0.00  0.00    +0.148 HD
BRANCH   6   1
ATOM      1  S   UNL     1       0.118  -1.932  24.412  0.00  0.00    +0.061 S 
ATOM      4  O   UNL     1      -0.418  -2.609  23.248  0.00  0.00    -0.153 OA
ATOM      5  O   UNL     1       1.052  -2.613  25.288  0.00  0.00    -0.153 OA
BRANCH   1  19
ATOM     10  N   UNL     1       3.023  -1.530  23.873  0.00  0.00    -0.253 NA
ATOM     19  C   UNL     1       0.910  -0.449  23.865  0.00  0.00    +0.131 A 
ATOM     20  C   UNL     1       2.280  -0.427  23.659  0.00  0.00    +0.097 A 
ATOM     21  C   UNL     1       0.104   0.666  23.656  0.00  0.00    +0.031 A 
ATOM     22  C   UNL     1       2.856   0.784  23.222  0.00  0.00    +0.002 A 
ATOM     24  C   UNL     1       0.679   1.855  23.225  0.00  0.00    +0.003 A 
ATOM     26  C   UNL     1       2.052   1.916  23.008  0.00  0.00    +0.010 A 
ATOM     29  C   UNL     1       4.242   0.818  23.012  0.00  0.00    +0.011 A 
ATOM     30  C   UNL     1       4.356  -1.456  23.659  0.00  0.00    +0.111 A 
ATOM     31  C   UNL     1       5.008  -0.317  23.232  0.00  0.00    +0.020 A 
ENDBRANCH   1  19
ENDBRANCH   6   1
ENDBRANCH  14   6
TORSDOF 6
ENDMDL
MODEL 2
REMARK VINA RESULT:      14.5      2.953      5.738
REMARK  Name = 11911727
REMARK  8 active torsions:
REMARK  status: ('A' for Active; 'I' for Inactive)
REMARK    1  A    between atoms: S_1  and  N_6
REMARK    2  A    between atoms: S_1  and  C_19
REMARK    3  A    between atoms: N_6  and  C_14
REMARK    4  A    between atoms: N_7  and  C_15
REMARK    5  A    between atoms: N_11  and  C_36
REMARK    6  A    between atoms: N_11  and  C_37
REMARK    7  A    between atoms: N_11  and  C_38
REMARK    8  A    between atoms: C_23  and  C_28
REMARK                            x       y       z     vdW  Elec       q    Type
REMARK                         _______ _______ _______ _____ _____    ______ ____
ROOT
ATOM      2  O   UNL     1      -1.634   3.394  23.152  0.00  0.00    -0.370 OA
ATOM      3  O   UNL     1      -2.025   6.113  24.632  0.00  0.00    -0.370 OA
ATOM     12  C   UNL     1      -1.565   4.819  25.055  0.00  0.00    +0.170 C 
ATOM     13  C   UNL     1      -2.386   3.783  24.313  0.00  0.00    +0.171 C 
ATOM     14  C   UNL     1      -0.152   4.581  24.576  0.00  0.00    +0.133 C 
ATOM     15  C   UNL     1      -3.636   4.526  23.904  0.00  0.00    +0.130 C 
ATOM     16  C   UNL     1      -0.370   4.074  23.160  0.00  0.00    +0.183 C 
ATOM     17  C   UNL     1      -3.137   5.950  23.739  0.00  0.00    +0.185 C 
ENDROOT
BRANCH  15   7
ATOM      7  N   UNL     1      -4.621   4.459  24.961  0.00  0.00    -0.306 N 
ATOM      8  N   UNL     1      -4.589   2.113  24.994  0.00  0.00    -0.214 NA
ATOM      9  N   UNL     1      -6.015   3.352  26.490  0.00  0.00    -0.223 NA
ATOM     18  C   UNL     1      -5.088   3.273  25.498  0.00  0.00    +0.216 A 
ATOM     23  C   UNL     1      -5.066   0.975  25.539  0.00  0.00    +0.076 A 
ATOM     25  C   UNL     1      -6.449   2.176  26.989  0.00  0.00    +0.116 A 
ATOM     27  C   UNL     1      -6.007   0.945  26.550  0.00  0.00    +0.048 A 
ATOM     40  H   UNL     1      -4.962   5.317  25.380  0.00  0.00    +0.149 HD
BRANCH  23  28
ATOM     28  C   UNL     1      -4.522  -0.243  24.991  0.00  0.00    +0.001 A 
ATOM     32  C   UNL     1      -4.350  -0.376  23.611  0.00  0.00    +0.012 A 
ATOM     33  C   UNL     1      -4.167  -1.295  25.838  0.00  0.00    +0.012 A 
ATOM     34  C   UNL     1      -3.825  -1.554  23.081  0.00  0.00    +0.024 A 
ATOM     35  C   UNL     1      -3.642  -2.474  25.308  0.00  0.00    +0.024 A 
ATOM     36  C   UNL     1      -3.471  -2.603  23.929  0.00  0.00    +0.029 A 
BRANCH  36  11
ATOM     11  N   UNL     1      -2.939  -3.795  23.393  0.00  0.00    -0.336 N 
ATOM     37  C   UNL     1      -1.506  -3.961  23.251  0.00  0.00    +0.129 C 
ATOM     38  C   UNL     1      -3.820  -4.864  22.964  0.00  0.00    +0.129 C 
ENDBRANCH  36  11
ENDBRANCH  23  28
ENDBRANCH  15   7
BRANCH  14   6
ATOM      6  N   UNL     1       0.516   3.594  25.388  0.00  0.00    -0.182 NA
ATOM     39  H   UNL     1       1.487   3.351  25.158  0.00  0.00    +0.148 HD
BRANCH   6   1
ATOM      1  S   UNL     1      -0.388   2.602  26.429  0.00  0.00    +0.061 S 
ATOM      4  O   UNL     1      -1.771   3.038  26.429  0.00  0.00    -0.153 OA
ATOM      5  O   UNL     1       0.332   2.458  27.679  0.00  0.00    -0.153 OA
BRANCH   1  19
ATOM     10  N   UNL     1       1.365   1.860  24.134  0.00  0.00    -0.253 NA
ATOM     19  C   UNL     1      -0.308   1.041  25.604  0.00  0.00    +0.131 A 
ATOM     20  C   UNL     1       0.568   0.856  24.546  0.00  0.00    +0.097 A 
ATOM     21  C   UNL     1      -1.150   0.032  26.064  0.00  0.00    +0.031 A 
ATOM     22  C   UNL     1       0.587  -0.412  23.927  0.00  0.00    +0.002 A 
ATOM     24  C   UNL     1      -1.124  -1.214  25.449  0.00  0.00    +0.003 A 
ATOM     26  C   UNL     1      -0.258  -1.437  24.383  0.00  0.00    +0.010 A 
ATOM     29  C   UNL     1       1.469  -0.609  22.855  0.00  0.00    +0.011 A 
ATOM     30  C   UNL     1       2.201   1.628  23.097  0.00  0.00    +0.111 A 
ATOM     31  C   UNL     1       2.291   0.424  22.430  0.00  0.00    +0.020 A 
ENDBRANCH   1  19
ENDBRANCH   6   1
ENDBRANCH  14   6
TORSDOF 6
ENDMDL
MODEL 3
REMARK VINA RESULT:      14.6      2.275      5.019
REMARK  Name = 11911727
REMARK  8 active torsions:
REMARK  status: ('A' for Active; 'I' for Inactive)
REMARK    1  A    between atoms: S_1  and  N_6
REMARK    2  A    between atoms: S_1  and  C_19
REMARK    3  A    between atoms: N_6  and  C_14
REMARK    4  A    between atoms: N_7  and  C_15
REMARK    5  A    between atoms: N_11  and  C_36
REMARK    6  A    between atoms: N_11  and  C_37
REMARK    7  A    between atoms: N_11  and  C_38
REMARK    8  A    between atoms: C_23  and  C_28
REMARK                            x       y       z     vdW  Elec       q    Type
REMARK                         _______ _______ _______ _____ _____    ______ ____
ROOT
ATOM      2  O   UNL     1      -1.236   2.972  23.124  0.00  0.00    -0.370 OA
ATOM      3  O   UNL     1      -0.785   4.374  25.875  0.00  0.00    -0.370 OA
ATOM     12  C   UNL     1      -1.135   3.032  25.500  0.00  0.00    +0.170 C 
ATOM     13  C   UNL     1      -2.053   3.124  24.297  0.00  0.00    +0.171 C 
ATOM     14  C   UNL     1       0.080   2.297  24.980  0.00  0.00    +0.133 C 
ATOM     15  C   UNL     1      -2.614   4.525  24.367  0.00  0.00    +0.130 C 
ATOM     16  C   UNL     1       0.121   2.726  23.524  0.00  0.00    +0.183 C 
ATOM     17  C   UNL     1      -1.494   5.299  25.037  0.00  0.00    +0.185 C 
ENDROOT
BRANCH  15   7
ATOM      7  N   UNL     1      -3.800   4.542  25.195  0.00  0.00    -0.306 N 
ATOM      8  N   UNL     1      -4.031   2.209  25.107  0.00  0.00    -0.214 NA
ATOM      9  N   UNL     1      -5.595   3.561  26.345  0.00  0.00    -0.223 NA
ATOM     18  C   UNL     1      -4.496   3.403  25.561  0.00  0.00    +0.216 A 
ATOM     23  C   UNL     1      -4.733   1.119  25.482  0.00  0.00    +0.076 A 
ATOM     25  C   UNL     1      -6.249   2.429  26.681  0.00  0.00    +0.116 A 
ATOM     27  C   UNL     1      -5.861   1.169  26.275  0.00  0.00    +0.048 A 
ATOM     40  H   UNL     1      -4.125   5.422  25.581  0.00  0.00    +0.149 HD
BRANCH  23  28
ATOM     28  C   UNL     1      -4.221  -0.138  24.991  0.00  0.00    +0.001 A 
ATOM     32  C   UNL     1      -3.139  -0.751  25.628  0.00  0.00    +0.012 A 
ATOM     33  C   UNL     1      -4.804  -0.745  23.878  0.00  0.00    +0.012 A 
ATOM     34  C   UNL     1      -2.644  -1.965  25.153  0.00  0.00    +0.024 A 
ATOM     35  C   UNL     1      -4.309  -1.960  23.402  0.00  0.00    +0.024 A 
ATOM     36  C   UNL     1      -3.228  -2.569  24.040  0.00  0.00    +0.029 A 
BRANCH  36  11
ATOM     11  N   UNL     1      -2.728  -3.797  23.560  0.00  0.00    -0.336 N 
ATOM     37  C   UNL     1      -1.306  -3.976  23.338  0.00  0.00    +0.129 C 
ATOM     38  C   UNL     1      -3.630  -4.894  23.268  0.00  0.00    +0.129 C 
ENDBRANCH  36  11
ENDBRANCH  23  28
ENDBRANCH  15   7
BRANCH  14   6
ATOM      6  N   UNL     1      -0.082   0.869  25.101  0.00  0.00    -0.182 NA
ATOM     39  H   UNL     1      -0.263   0.476  26.032  0.00  0.00    +0.148 HD
BRANCH   6   1
ATOM      1  S   UNL     1       0.390  -0.146  23.824  0.00  0.00    +0.061 S 
ATOM      4  O   UNL     1      -0.487   0.067  22.689  0.00  0.00    -0.153 OA
ATOM      5  O   UNL     1       0.599  -1.484  24.344  0.00  0.00    -0.153 OA
BRANCH   1  19
ATOM     10  N   UNL     1       3.014  -1.550  24.006  0.00  0.00    -0.253 NA
ATOM     19  C   UNL     1       1.982   0.503  23.414  0.00  0.00    +0.131 A 
ATOM     20  C   UNL     1       3.113  -0.285  23.555  0.00  0.00    +0.097 A 
ATOM     21  C   UNL     1       2.037   1.815  22.951  0.00  0.00    +0.031 A 
ATOM     22  C   UNL     1       4.356   0.288  23.212  0.00  0.00    +0.002 A 
ATOM     24  C   UNL     1       3.265   2.371  22.614  0.00  0.00    +0.003 A 
ATOM     26  C   UNL     1       4.423   1.611  22.744  0.00  0.00    +0.010 A 
ATOM     29  C   UNL     1       5.507  -0.500  23.352  0.00  0.00    +0.011 A 
ATOM     30  C   UNL     1       4.148  -2.277  24.127  0.00  0.00    +0.111 A 
ATOM     31  C   UNL     1       5.407  -1.804  23.817  0.00  0.00    +0.020 A 
ENDBRANCH   1  19
ENDBRANCH   6   1
ENDBRANCH  14   6
TORSDOF 6
ENDMDL
MODEL 4
REMARK VINA RESULT:      15.2      2.391      3.411
REMARK  Name = 11911727
REMARK  8 active torsions:
REMARK  status: ('A' for Active; 'I' for Inactive)
REMARK    1  A    between atoms: S_1  and  N_6
REMARK    2  A    between atoms: S_1  and  C_19
REMARK    3  A    between atoms: N_6  and  C_14
REMARK    4  A    between atoms: N_7  and  C_15
REMARK    5  A    between atoms: N_11  and  C_36
REMARK    6  A    between atoms: N_11  and  C_37
REMARK    7  A    between atoms: N_11  and  C_38
REMARK    8  A    between atoms: C_23  and  C_28
REMARK                            x       y       z     vdW  Elec       q    Type
REMARK                         _______ _______ _______ _____ _____    ______ ____
ROOT
ATOM      2  O   UNL     1      -2.383  -1.822  25.989  0.00  0.00    -0.370 OA
ATOM      3  O   UNL     1      -3.311  -1.439  23.035  0.00  0.00    -0.370 OA
ATOM     12  C   UNL     1      -2.404  -0.717  23.883  0.00  0.00    +0.170 C 
ATOM     13  C   UNL     1      -2.989  -0.727  25.282  0.00  0.00    +0.171 C 
ATOM     14  C   UNL     1      -1.102  -1.471  24.023  0.00  0.00    +0.133 C 
ATOM     15  C   UNL     1      -4.460  -0.992  25.065  0.00  0.00    +0.130 C 
ATOM     16  C   UNL     1      -1.413  -2.452  25.140  0.00  0.00    +0.183 C 
ATOM     17  C   UNL     1      -4.465  -1.825  23.797  0.00  0.00    +0.185 C 
ENDROOT
BRANCH  15   7
ATOM      7  N   UNL     1      -5.160   0.255  24.849  0.00  0.00    -0.306 N 
ATOM      8  N   UNL     1      -3.516   1.502  25.964  0.00  0.00    -0.214 NA
ATOM      9  N   UNL     1      -5.453   2.577  25.016  0.00  0.00    -0.223 NA
ATOM     18  C   UNL     1      -4.696   1.482  25.289  0.00  0.00    +0.216 A 
ATOM     23  C   UNL     1      -3.092   2.714  26.379  0.00  0.00    +0.076 A 
ATOM     25  C   UNL     1      -4.970   3.756  25.461  0.00  0.00    +0.116 A 
ATOM     27  C   UNL     1      -3.784   3.887  26.154  0.00  0.00    +0.048 A 
ATOM     40  H   UNL     1      -6.015   0.258  24.302  0.00  0.00    +0.149 HD
BRANCH  23  28
ATOM     28  C   UNL     1      -1.836   2.713  27.091  0.00  0.00    +0.001 A 
ATOM     32  C   UNL     1      -0.717   2.085  26.539  0.00  0.00    +0.012 A 
ATOM     33  C   UNL     1      -1.737   3.339  28.335  0.00  0.00    +0.012 A 
ATOM     34  C   UNL     1       0.495   2.084  27.228  0.00  0.00    +0.024 A 
ATOM     35  C   UNL     1      -0.524   3.337  29.025  0.00  0.00    +0.024 A 
ATOM     36  C   UNL     1       0.592   2.709  28.471  0.00  0.00    +0.029 A 
BRANCH  36  11
ATOM     11  N   UNL     1       1.818   2.708  29.167  0.00  0.00    -0.336 N 
ATOM     37  C   UNL     1       2.927   3.520  28.705  0.00  0.00    +0.129 C 
ATOM     38  C   UNL     1       1.992   1.883  30.347  0.00  0.00    +0.129 C 
ENDBRANCH  36  11
ENDBRANCH  23  28
ENDBRANCH  15   7
BRANCH  14   6
ATOM      6  N   UNL     1      -0.022  -0.586  24.389  0.00  0.00    -0.182 NA
ATOM     39  H   UNL     1       0.203  -0.480  25.385  0.00  0.00    +0.148 HD
BRANCH   6   1
ATOM      1  S   UNL     1       0.588   0.519  23.253  0.00  0.00    +0.061 S 
ATOM      4  O   UNL     1       0.843  -0.168  22.001  0.00  0.00    -0.153 OA
ATOM      5  O   UNL     1       1.632   1.305  23.881  0.00  0.00    -0.153 OA
BRANCH   1  19
ATOM     10  N   UNL     1       0.243   3.282  24.319  0.00  0.00    -0.253 NA
ATOM     19  C   UNL     1      -0.795   1.594  23.013  0.00  0.00    +0.131 A 
ATOM     20  C   UNL     1      -0.801   2.858  23.580  0.00  0.00    +0.097 A 
ATOM     21  C   UNL     1      -1.850   1.114  22.243  0.00  0.00    +0.031 A 
ATOM     22  C   UNL     1      -1.932   3.671  23.354  0.00  0.00    +0.002 A 
ATOM     24  C   UNL     1      -2.960   1.922  22.024  0.00  0.00    +0.003 A 
ATOM     26  C   UNL     1      -3.003   3.197  22.578  0.00  0.00    +0.010 A 
ATOM     29  C   UNL     1      -1.948   4.951  23.924  0.00  0.00    +0.011 A 
ATOM     30  C   UNL     1       0.187   4.524  24.851  0.00  0.00    +0.111 A 
ATOM     31  C   UNL     1      -0.874   5.390  24.685  0.00  0.00    +0.020 A 
ENDBRANCH   1  19
ENDBRANCH   6   1
ENDBRANCH  14   6
TORSDOF 6
ENDMDL
MODEL 5
REMARK VINA RESULT:      15.6      1.320      2.098
REMARK  Name = 11911727
REMARK  8 active torsions:
REMARK  status: ('A' for Active; 'I' for Inactive)
REMARK    1  A    between atoms: S_1  and  N_6
REMARK    2  A    between atoms: S_1  and  C_19
REMARK    3  A    between atoms: N_6  and  C_14
REMARK    4  A    between atoms: N_7  and  C_15
REMARK    5  A    between atoms: N_11  and  C_36
REMARK    6  A    between atoms: N_11  and  C_37
REMARK    7  A    between atoms: N_11  and  C_38
REMARK    8  A    between atoms: C_23  and  C_28
REMARK                            x       y       z     vdW  Elec       q    Type
REMARK                         _______ _______ _______ _____ _____    ______ ____
ROOT
ATOM      2  O   UNL     1      -2.999  -1.232  26.229  0.00  0.00    -0.370 OA
ATOM      3  O   UNL     1      -3.656  -1.381  23.182  0.00  0.00    -0.370 OA
ATOM     12  C   UNL     1      -2.580  -0.792  23.929  0.00  0.00    +0.170 C 
ATOM     13  C   UNL     1      -3.171  -0.234  25.209  0.00  0.00    +0.171 C 
ATOM     14  C   UNL     1      -1.621  -1.860  24.402  0.00  0.00    +0.133 C 
ATOM     15  C   UNL     1      -4.637  -0.055  24.891  0.00  0.00    +0.130 C 
ATOM     16  C   UNL     1      -2.281  -2.348  25.680  0.00  0.00    +0.183 C 
ATOM     17  C   UNL     1      -4.893  -1.151  23.874  0.00  0.00    +0.185 C 
ENDROOT
BRANCH  15   7
ATOM      7  N   UNL     1      -4.859   1.244  24.296  0.00  0.00    -0.306 N 
ATOM      8  N   UNL     1      -2.999   2.182  25.376  0.00  0.00    -0.214 NA
ATOM      9  N   UNL     1      -4.375   3.506  23.906  0.00  0.00    -0.223 NA
ATOM     18  C   UNL     1      -4.053   2.344  24.533  0.00  0.00    +0.216 A 
ATOM     23  C   UNL     1      -2.235   3.273  25.585  0.00  0.00    +0.076 A 
ATOM     25  C   UNL     1      -3.568   4.558  24.161  0.00  0.00    +0.116 A 
ATOM     27  C   UNL     1      -2.473   4.500  24.999  0.00  0.00    +0.048 A 
ATOM     40  H   UNL     1      -5.611   1.363  23.626  0.00  0.00    +0.149 HD
BRANCH  23  28
ATOM     28  C   UNL     1      -1.120   3.079  26.481  0.00  0.00    +0.001 A 
ATOM     32  C   UNL     1       0.167   2.897  25.970  0.00  0.00    +0.012 A 
ATOM     33  C   UNL     1      -1.326   3.070  27.862  0.00  0.00    +0.012 A 
ATOM     34  C   UNL     1       1.243   2.708  26.837  0.00  0.00    +0.024 A 
ATOM     35  C   UNL     1      -0.249   2.880  28.729  0.00  0.00    +0.024 A 
ATOM     36  C   UNL     1       1.035   2.699  28.216  0.00  0.00    +0.029 A 
BRANCH  36  11
ATOM     11  N   UNL     1       2.124   2.508  29.092  0.00  0.00    -0.336 N 
ATOM     37  C   UNL     1       1.917   1.931  30.406  0.00  0.00    +0.129 C 
ATOM     38  C   UNL     1       3.462   2.901  28.697  0.00  0.00    +0.129 C 
ENDBRANCH  36  11
ENDBRANCH  23  28
ENDBRANCH  15   7
BRANCH  14   6
ATOM      6  N   UNL     1      -0.314  -1.310  24.666  0.00  0.00    -0.182 NA
ATOM     39  H   UNL     1       0.033  -1.320  25.632  0.00  0.00    +0.148 HD
BRANCH   6   1
ATOM      1  S   UNL     1       0.448  -0.343  23.496  0.00  0.00    +0.061 S 
ATOM      4  O   UNL     1       0.331   1.053  23.873  0.00  0.00    -0.153 OA
ATOM      5  O   UNL     1       0.026  -0.782  22.180  0.00  0.00    -0.153 OA
BRANCH   1  19
ATOM     10  N   UNL     1       2.860   1.298  22.880  0.00  0.00    -0.253 NA
ATOM     19  C   UNL     1       2.141  -0.817  23.679  0.00  0.00    +0.131 A 
ATOM     20  C   UNL     1       3.153   0.069  23.346  0.00  0.00    +0.097 A 
ATOM     21  C   UNL     1       2.397  -2.096  24.165  0.00  0.00    +0.031 A 
ATOM     22  C   UNL     1       4.485  -0.366  23.514  0.00  0.00    +0.002 A 
ATOM     24  C   UNL     1       3.711  -2.516  24.329  0.00  0.00    +0.003 A 
ATOM     26  C   UNL     1       4.755  -1.654  24.003  0.00  0.00    +0.010 A 
ATOM     29  C   UNL     1       5.516   0.523  23.179  0.00  0.00    +0.011 A 
ATOM     30  C   UNL     1       3.884   2.125  22.568  0.00  0.00    +0.111 A 
ATOM     31  C   UNL     1       5.216   1.790  22.698  0.00  0.00    +0.020 A 
ENDBRANCH   1  19
ENDBRANCH   6   1
ENDBRANCH  14   6
TORSDOF 6
ENDMDL
MODEL 6
REMARK VINA RESULT:      15.7      2.415      5.222
REMARK  Name = 11911727
REMARK  8 active torsions:
REMARK  status: ('A' for Active; 'I' for Inactive)
REMARK    1  A    between atoms: S_1  and  N_6
REMARK    2  A    between atoms: S_1  and  C_19
REMARK    3  A    between atoms: N_6  and  C_14
REMARK    4  A    between atoms: N_7  and  C_15
REMARK    5  A    between atoms: N_11  and  C_36
REMARK    6  A    between atoms: N_11  and  C_37
REMARK    7  A    between atoms: N_11  and  C_38
REMARK    8  A    between atoms: C_23  and  C_28
REMARK                            x       y       z     vdW  Elec       q    Type
REMARK                         _______ _______ _______ _____ _____    ______ ____
ROOT
ATOM      2  O   UNL     1      -1.402   3.081  23.158  0.00  0.00    -0.370 OA
ATOM      3  O   UNL     1      -1.194   5.360  25.278  0.00  0.00    -0.370 OA
ATOM     12  C   UNL     1      -1.183   3.926  25.371  0.00  0.00    +0.170 C 
ATOM     13  C   UNL     1      -2.159   3.400  24.337  0.00  0.00    +0.171 C 
ATOM     14  C   UNL     1       0.154   3.382  24.924  0.00  0.00    +0.133 C 
ATOM     15  C   UNL     1      -3.079   4.568  24.070  0.00  0.00    +0.130 C 
ATOM     16  C   UNL     1      -0.009   3.314  23.415  0.00  0.00    +0.183 C 
ATOM     17  C   UNL     1      -2.178   5.764  24.314  0.00  0.00    +0.185 C 
ENDROOT
BRANCH  15   7
ATOM      7  N   UNL     1      -4.173   4.563  25.015  0.00  0.00    -0.306 N 
ATOM      8  N   UNL     1      -4.292   2.220  25.036  0.00  0.00    -0.214 NA
ATOM      9  N   UNL     1      -5.789   3.547  26.380  0.00  0.00    -0.223 NA
ATOM     18  C   UNL     1      -4.769   3.409  25.492  0.00  0.00    +0.216 A 
ATOM     23  C   UNL     1      -4.895   1.115  25.520  0.00  0.00    +0.076 A 
ATOM     25  C   UNL     1      -6.347   2.400  26.823  0.00  0.00    +0.116 A 
ATOM     27  C   UNL     1      -5.938   1.144  26.425  0.00  0.00    +0.048 A 
ATOM     40  H   UNL     1      -4.503   5.441  25.401  0.00  0.00    +0.149 HD
BRANCH  23  28
ATOM     28  C   UNL     1      -4.372  -0.136  25.025  0.00  0.00    +0.001 A 
ATOM     32  C   UNL     1      -3.753  -1.033  25.899  0.00  0.00    +0.012 A 
ATOM     33  C   UNL     1      -4.482  -0.453  23.670  0.00  0.00    +0.012 A 
ATOM     34  C   UNL     1      -3.247  -2.240  25.420  0.00  0.00    +0.024 A 
ATOM     35  C   UNL     1      -3.975  -1.662  23.190  0.00  0.00    +0.024 A 
ATOM     36  C   UNL     1      -3.357  -2.555  24.066  0.00  0.00    +0.029 A 
BRANCH  36  11
ATOM     11  N   UNL     1      -2.846  -3.777  23.582  0.00  0.00    -0.336 N 
ATOM     37  C   UNL     1      -1.416  -3.967  23.432  0.00  0.00    +0.129 C 
ATOM     38  C   UNL     1      -3.744  -4.854  23.213  0.00  0.00    +0.129 C 
ENDBRANCH  36  11
ENDBRANCH  23  28
ENDBRANCH  15   7
BRANCH  14   6
ATOM      6  N   UNL     1       0.399   2.074  25.483  0.00  0.00    -0.182 NA
ATOM     39  H   UNL     1       1.285   1.914  25.977  0.00  0.00    +0.148 HD
BRANCH   6   1
ATOM      1  S   UNL     1      -0.564   0.758  25.008  0.00  0.00    +0.061 S 
ATOM      4  O   UNL     1      -1.891   1.231  24.665  0.00  0.00    -0.153 OA
ATOM      5  O   UNL     1      -0.396  -0.314  25.970  0.00  0.00    -0.153 OA
BRANCH   1  19
ATOM     10  N   UNL     1       2.328   1.012  24.327  0.00  0.00    -0.253 NA
ATOM     19  C   UNL     1       0.235   0.243  23.517  0.00  0.00    +0.131 A 
ATOM     20  C   UNL     1       1.597   0.434  23.355  0.00  0.00    +0.097 A 
ATOM     21  C   UNL     1      -0.560  -0.350  22.541  0.00  0.00    +0.031 A 
ATOM     22  C   UNL     1       2.178   0.002  22.144  0.00  0.00    +0.002 A 
ATOM     24  C   UNL     1       0.021  -0.774  21.351  0.00  0.00    +0.003 A 
ATOM     26  C   UNL     1       1.387  -0.598  21.151  0.00  0.00    +0.010 A 
ATOM     29  C   UNL     1       3.556   0.191  21.970  0.00  0.00    +0.011 A 
ATOM     30  C   UNL     1       3.654   1.176  24.119  0.00  0.00    +0.111 A 
ATOM     31  C   UNL     1       4.311   0.787  22.970  0.00  0.00    +0.020 A 
ENDBRANCH   1  19
ENDBRANCH   6   1
ENDBRANCH  14   6
TORSDOF 6
ENDMDL
MODEL 7
REMARK VINA RESULT:      16.2      3.063      5.923
REMARK  Name = 11911727
REMARK  8 active torsions:
REMARK  status: ('A' for Active; 'I' for Inactive)
REMARK    1  A    between atoms: S_1  and  N_6
REMARK    2  A    between atoms: S_1  and  C_19
REMARK    3  A    between atoms: N_6  and  C_14
REMARK    4  A    between atoms: N_7  and  C_15
REMARK    5  A    between atoms: N_11  and  C_36
REMARK    6  A    between atoms: N_11  and  C_37
REMARK    7  A    between atoms: N_11  and  C_38
REMARK    8  A    between atoms: C_23  and  C_28
REMARK                            x       y       z     vdW  Elec       q    Type
REMARK                         _______ _______ _______ _____ _____    ______ ____
ROOT
ATOM      2  O   UNL     1      -3.747   2.680  24.361  0.00  0.00    -0.370 OA
ATOM      3  O   UNL     1      -6.687   1.782  24.897  0.00  0.00    -0.370 OA
ATOM     12  C   UNL     1      -5.515   1.856  25.724  0.00  0.00    +0.170 C 
ATOM     13  C   UNL     1      -4.330   1.465  24.863  0.00  0.00    +0.171 C 
ATOM     14  C   UNL     1      -5.233   3.291  26.109  0.00  0.00    +0.133 C 
ATOM     15  C   UNL     1      -4.940   0.671  23.733  0.00  0.00    +0.130 C 
ATOM     16  C   UNL     1      -4.456   3.803  24.908  0.00  0.00    +0.183 C 
ATOM     17  C   UNL     1      -6.320   1.287  23.601  0.00  0.00    +0.185 C 
ENDROOT
BRANCH  15   7
ATOM      7  N   UNL     1      -5.047  -0.722  24.109  0.00  0.00    -0.306 N 
ATOM      8  N   UNL     1      -2.728  -1.052  23.975  0.00  0.00    -0.214 NA
ATOM      9  N   UNL     1      -4.201  -2.857  24.592  0.00  0.00    -0.223 NA
ATOM     18  C   UNL     1      -3.960  -1.569  24.229  0.00  0.00    +0.216 A 
ATOM     23  C   UNL     1      -1.691  -1.905  24.101  0.00  0.00    +0.076 A 
ATOM     25  C   UNL     1      -3.118  -3.654  24.698  0.00  0.00    +0.116 A 
ATOM     27  C   UNL     1      -1.826  -3.230  24.463  0.00  0.00    +0.048 A 
ATOM     40  H   UNL     1      -5.955  -1.104  24.351  0.00  0.00    +0.149 HD
BRANCH  23  28
ATOM     28  C   UNL     1      -0.393  -1.335  23.828  0.00  0.00    +0.001 A 
ATOM     32  C   UNL     1      -0.242  -0.386  22.814  0.00  0.00    +0.012 A 
ATOM     33  C   UNL     1       0.717  -1.733  24.575  0.00  0.00    +0.012 A 
ATOM     34  C   UNL     1       1.012   0.163  22.550  0.00  0.00    +0.024 A 
ATOM     35  C   UNL     1       1.973  -1.184  24.310  0.00  0.00    +0.024 A 
ATOM     36  C   UNL     1       2.119  -0.237  23.297  0.00  0.00    +0.029 A 
BRANCH  36  11
ATOM     11  N   UNL     1       3.388   0.319  23.030  0.00  0.00    -0.336 N 
ATOM     37  C   UNL     1       4.595  -0.380  23.427  0.00  0.00    +0.129 C 
ATOM     38  C   UNL     1       3.502   1.604  22.368  0.00  0.00    +0.129 C 
ENDBRANCH  36  11
ENDBRANCH  23  28
ENDBRANCH  15   7
BRANCH  14   6
ATOM      6  N   UNL     1      -4.442   3.363  27.313  0.00  0.00    -0.182 NA
ATOM     39  H   UNL     1      -4.835   2.972  28.178  0.00  0.00    +0.148 HD
BRANCH   6   1
ATOM      1  S   UNL     1      -3.093   4.392  27.378  0.00  0.00    +0.061 S 
ATOM      4  O   UNL     1      -2.640   4.508  28.751  0.00  0.00    -0.153 OA
ATOM      5  O   UNL     1      -3.376   5.583  26.600  0.00  0.00    -0.153 OA
BRANCH   1  19
ATOM     10  N   UNL     1      -1.472   5.311  25.050  0.00  0.00    -0.253 NA
ATOM     19  C   UNL     1      -1.884   3.464  26.481  0.00  0.00    +0.131 A 
ATOM     20  C   UNL     1      -1.213   4.041  25.416  0.00  0.00    +0.097 A 
ATOM     21  C   UNL     1      -1.649   2.156  26.895  0.00  0.00    +0.031 A 
ATOM     22  C   UNL     1      -0.260   3.251  24.738  0.00  0.00    +0.002 A 
ATOM     24  C   UNL     1      -0.708   1.385  26.223  0.00  0.00    +0.003 A 
ATOM     26  C   UNL     1      -0.014   1.930  25.146  0.00  0.00    +0.010 A 
ATOM     29  C   UNL     1       0.424   3.825  23.658  0.00  0.00    +0.011 A 
ATOM     30  C   UNL     1      -0.790   5.827  24.002  0.00  0.00    +0.111 A 
ATOM     31  C   UNL     1       0.158   5.134  23.280  0.00  0.00    +0.020 A 
ENDBRANCH   1  19
ENDBRANCH   6   1
ENDBRANCH  14   6
TORSDOF 6
ENDMDL
