MODEL 1
REMARK VINA RESULT:       0.7      0.000      0.000
REMARK  Name = 51138118
REMARK  11 active torsions:
REMARK  status: ('A' for Active; 'I' for Inactive)
REMARK    1  A    between atoms: N_4  and  C_23
REMARK    2  A    between atoms: N_5  and  C_24
REMARK    3  A    between atoms: N_6  and  C_26
REMARK    4  A    between atoms: C_7  and  C_12
REMARK    5  A    between atoms: C_8  and  C_18
REMARK    6  A    between atoms: C_12  and  C_15
REMARK    7  A    between atoms: C_15  and  C_21
REMARK    8  A    between atoms: C_15  and  C_22
REMARK    9  A    between atoms: C_23  and  C_31
REMARK   10  A    between atoms: C_24  and  C_25
REMARK   11  A    between atoms: C_25  and  C_26
REMARK                            x       y       z     vdW  Elec       q    Type
REMARK                         _______ _______ _______ _____ _____    ______ ____
ROOT
ATOM      3  N   UNL     1      -1.807  -0.620  24.639  0.00  0.00    -0.299 NA
ATOM      4  N   UNL     1      -2.792   4.236  25.614  0.00  0.00    -0.343 N 
ATOM      7  C   UNL     1      -3.267  -0.483  24.544  0.00  0.00    +0.085 C 
ATOM      8  C   UNL     1      -1.054   0.271  23.768  0.00  0.00    +0.145 C 
ATOM      9  C   UNL     1      -3.842   0.869  24.979  0.00  0.00    -0.021 A 
ATOM     10  C   UNL     1      -3.090   2.069  25.134  0.00  0.00    +0.008 A 
ATOM     11  C   UNL     1      -0.590   1.523  24.511  0.00  0.00    +0.065 C 
ATOM     13  C   UNL     1      -1.705   2.412  24.951  0.00  0.00    -0.020 A 
ATOM     14  C   UNL     1      -3.741   3.245  25.526  0.00  0.00    +0.050 A 
ATOM     16  C   UNL     1      -1.567   3.749  25.266  0.00  0.00    +0.090 A 
ATOM     17  C   UNL     1      -5.241   0.979  25.176  0.00  0.00    +0.006 A 
ATOM     19  C   UNL     1      -5.114   3.322  25.760  0.00  0.00    +0.026 A 
ATOM     20  C   UNL     1      -5.859   2.166  25.564  0.00  0.00    +0.002 A 
ATOM     33  H   UNL     1      -1.497  -0.539  25.607  0.00  0.00    +0.123 HD
ENDROOT
BRANCH   8  18
ATOM      1  O   UNL     1       0.694  -1.320  24.092  0.00  0.00    -0.274 OA
ATOM      5  N   UNL     1       0.541  -0.212  22.050  0.00  0.00    -0.314 N 
ATOM     18  C   UNL     1       0.145  -0.518  23.341  0.00  0.00    +0.230 C 
ATOM     34  H   UNL     1       0.016   0.467  21.509  0.00  0.00    +0.149 HD
BRANCH   5  24
ATOM     24  C   UNL     1       1.686  -0.819  21.410  0.00  0.00    +0.106 C 
BRANCH  24  25
ATOM     25  C   UNL     1       2.907   0.096  21.400  0.00  0.00    +0.038 C 
BRANCH  25  26
ATOM     26  C   UNL     1       3.185   0.769  22.743  0.00  0.00    +0.109 C 
BRANCH  26   6
ATOM      2  O   UNL     1       3.718  -1.950  23.886  0.00  0.00    -0.276 OA
ATOM      6  N   UNL     1       4.374   0.255  23.386  0.00  0.00    -0.301 N 
ATOM     27  C   UNL     1       5.588   1.033  23.464  0.00  0.00    +0.108 C 
ATOM     28  C   UNL     1       6.411   0.285  24.494  0.00  0.00    +0.028 C 
ATOM     29  C   UNL     1       5.967  -1.164  24.335  0.00  0.00    +0.097 C 
ATOM     30  C   UNL     1       4.535  -1.042  23.869  0.00  0.00    +0.216 C 
ENDBRANCH  26   6
ENDBRANCH  25  26
ENDBRANCH  24  25
ENDBRANCH   5  24
ENDBRANCH   8  18
BRANCH   7  12
ATOM     12  C   UNL     1      -3.823  -1.655  25.372  0.00  0.00    +0.026 C 
BRANCH  12  15
ATOM     15  C   UNL     1      -3.707  -3.003  24.653  0.00  0.00    -0.015 C 
ATOM     21  C   UNL     1      -4.495  -3.040  23.342  0.00  0.00    +0.007 C 
ATOM     22  C   UNL     1      -2.231  -3.303  24.378  0.00  0.00    +0.007 C 
ENDBRANCH  12  15
ENDBRANCH   7  12
BRANCH   4  23
ATOM     23  C   UNL     1      -3.042   5.609  26.001  0.00  0.00    +0.148 C 
BRANCH  23  31
ATOM     31  C   UNL     1      -2.126   6.575  25.310  0.00  0.00    -0.013 C 
ATOM     32  C   UNL     1      -1.039   6.211  24.621  0.00  0.00    +0.005 C 
ENDBRANCH  23  31
ENDBRANCH   4  23
TORSDOF 9
ENDMDL
MODEL 2
REMARK VINA RESULT:       1.9      2.247      7.194
REMARK  Name = 51138118
REMARK  11 active torsions:
REMARK  status: ('A' for Active; 'I' for Inactive)
REMARK    1  A    between atoms: N_4  and  C_23
REMARK    2  A    between atoms: N_5  and  C_24
REMARK    3  A    between atoms: N_6  and  C_26
REMARK    4  A    between atoms: C_7  and  C_12
REMARK    5  A    between atoms: C_8  and  C_18
REMARK    6  A    between atoms: C_12  and  C_15
REMARK    7  A    between atoms: C_15  and  C_21
REMARK    8  A    between atoms: C_15  and  C_22
REMARK    9  A    between atoms: C_23  and  C_31
REMARK   10  A    between atoms: C_24  and  C_25
REMARK   11  A    between atoms: C_25  and  C_26
REMARK                            x       y       z     vdW  Elec       q    Type
REMARK                         _______ _______ _______ _____ _____    ______ ____
ROOT
ATOM      3  N   UNL     1      -2.178   1.359  25.496  0.00  0.00    -0.299 NA
ATOM      4  N   UNL     1       2.133   0.171  23.149  0.00  0.00    -0.343 N 
ATOM      7  C   UNL     1      -1.802   0.032  26.002  0.00  0.00    +0.085 C 
ATOM      8  C   UNL     1      -1.164   2.388  25.672  0.00  0.00    +0.145 C 
ATOM      9  C   UNL     1      -0.613  -0.638  25.305  0.00  0.00    -0.021 A 
ATOM     10  C   UNL     1       0.334   0.029  24.476  0.00  0.00    +0.008 A 
ATOM     11  C   UNL     1      -0.329   2.576  24.407  0.00  0.00    +0.065 C 
ATOM     13  C   UNL     1       0.509   1.393  24.055  0.00  0.00    -0.020 A 
ATOM     14  C   UNL     1       1.386  -0.699  23.907  0.00  0.00    +0.050 A 
ATOM     16  C   UNL     1       1.620   1.431  23.236  0.00  0.00    +0.090 A 
ATOM     17  C   UNL     1      -0.372  -2.013  25.549  0.00  0.00    +0.006 A 
ATOM     19  C   UNL     1       1.580  -2.064  24.122  0.00  0.00    +0.026 A 
ATOM     20  C   UNL     1       0.687  -2.709  24.968  0.00  0.00    +0.002 A 
ATOM     33  H   UNL     1      -2.483   1.304  24.524  0.00  0.00    +0.123 HD
ENDROOT
BRANCH   8  18
ATOM      1  O   UNL     1      -2.684   3.749  26.909  0.00  0.00    -0.274 OA
ATOM      5  N   UNL     1      -1.684   4.625  24.998  0.00  0.00    -0.314 N 
ATOM     18  C   UNL     1      -1.927   3.648  25.948  0.00  0.00    +0.230 C 
ATOM     34  H   UNL     1      -1.035   4.443  24.240  0.00  0.00    +0.149 HD
BRANCH   5  24
ATOM     24  C   UNL     1      -2.314   5.926  25.024  0.00  0.00    +0.106 C 
BRANCH  24  25
ATOM     25  C   UNL     1      -3.647   5.948  24.280  0.00  0.00    +0.038 C 
BRANCH  25  26
ATOM     26  C   UNL     1      -3.939   4.666  23.502  0.00  0.00    +0.109 C 
BRANCH  26   6
ATOM      2  O   UNL     1      -3.932   1.674  23.331  0.00  0.00    -0.276 OA
ATOM      6  N   UNL     1      -4.672   3.696  24.285  0.00  0.00    -0.301 N 
ATOM     27  C   UNL     1      -5.484   4.090  25.411  0.00  0.00    +0.108 C 
ATOM     28  C   UNL     1      -6.316   2.853  25.687  0.00  0.00    +0.028 C 
ATOM     29  C   UNL     1      -5.417   1.703  25.247  0.00  0.00    +0.097 C 
ATOM     30  C   UNL     1      -4.584   2.312  24.145  0.00  0.00    +0.216 C 
ENDBRANCH  26   6
ENDBRANCH  25  26
ENDBRANCH  24  25
ENDBRANCH   5  24
ENDBRANCH   8  18
BRANCH   7  12
ATOM     12  C   UNL     1      -3.091  -0.802  25.904  0.00  0.00    +0.026 C 
BRANCH  12  15
ATOM     15  C   UNL     1      -3.126  -1.707  24.669  0.00  0.00    -0.015 C 
ATOM     21  C   UNL     1      -3.270  -3.187  25.026  0.00  0.00    +0.007 C 
ATOM     22  C   UNL     1      -4.283  -1.279  23.762  0.00  0.00    +0.007 C 
ENDBRANCH  12  15
ENDBRANCH   7  12
BRANCH   4  23
ATOM     23  C   UNL     1       3.309  -0.177  22.381  0.00  0.00    +0.148 C 
BRANCH  23  31
ATOM     31  C   UNL     1       4.548   0.497  22.890  0.00  0.00    -0.013 C 
ATOM     32  C   UNL     1       5.381  -0.047  23.784  0.00  0.00    +0.005 C 
ENDBRANCH  23  31
ENDBRANCH   4  23
TORSDOF 9
ENDMDL
MODEL 3
REMARK VINA RESULT:       2.2      2.173      6.677
REMARK  Name = 51138118
REMARK  11 active torsions:
REMARK  status: ('A' for Active; 'I' for Inactive)
REMARK    1  A    between atoms: N_4  and  C_23
REMARK    2  A    between atoms: N_5  and  C_24
REMARK    3  A    between atoms: N_6  and  C_26
REMARK    4  A    between atoms: C_7  and  C_12
REMARK    5  A    between atoms: C_8  and  C_18
REMARK    6  A    between atoms: C_12  and  C_15
REMARK    7  A    between atoms: C_15  and  C_21
REMARK    8  A    between atoms: C_15  and  C_22
REMARK    9  A    between atoms: C_23  and  C_31
REMARK   10  A    between atoms: C_24  and  C_25
REMARK   11  A    between atoms: C_25  and  C_26
REMARK                            x       y       z     vdW  Elec       q    Type
REMARK                         _______ _______ _______ _____ _____    ______ ____
ROOT
ATOM      3  N   UNL     1      -3.190  -0.029  24.602  0.00  0.00    -0.299 NA
ATOM      4  N   UNL     1       1.576  -0.276  22.950  0.00  0.00    -0.343 N 
ATOM      7  C   UNL     1      -2.488  -0.913  25.542  0.00  0.00    +0.085 C 
ATOM      8  C   UNL     1      -2.599   1.293  24.452  0.00  0.00    +0.145 C 
ATOM      9  C   UNL     1      -1.057  -1.300  25.156  0.00  0.00    -0.021 A 
ATOM     10  C   UNL     1      -0.260  -0.631  24.183  0.00  0.00    +0.008 A 
ATOM     11  C   UNL     1      -1.688   1.366  23.228  0.00  0.00    +0.065 C 
ATOM     13  C   UNL     1      -0.471   0.508  23.329  0.00  0.00    -0.020 A 
ATOM     14  C   UNL     1       1.043  -1.077  23.932  0.00  0.00    +0.050 A 
ATOM     16  C   UNL     1       0.678   0.682  22.585  0.00  0.00    +0.090 A 
ATOM     17  C   UNL     1      -0.426  -2.355  25.862  0.00  0.00    +0.006 A 
ATOM     19  C   UNL     1       1.631  -2.148  24.605  0.00  0.00    +0.026 A 
ATOM     20  C   UNL     1       0.875  -2.774  25.589  0.00  0.00    +0.002 A 
ATOM     33  H   UNL     1      -3.311  -0.483  23.697  0.00  0.00    +0.123 HD
ENDROOT
BRANCH   8  18
ATOM      1  O   UNL     1      -3.989   2.750  23.172  0.00  0.00    -0.274 OA
ATOM      5  N   UNL     1      -4.483   2.408  25.421  0.00  0.00    -0.314 N 
ATOM     18  C   UNL     1      -3.758   2.222  24.257  0.00  0.00    +0.230 C 
ATOM     34  H   UNL     1      -4.210   1.920  26.269  0.00  0.00    +0.149 HD
BRANCH   5  24
ATOM     24  C   UNL     1      -5.636   3.275  25.504  0.00  0.00    +0.106 C 
BRANCH  24  25
ATOM     25  C   UNL     1      -5.259   4.728  25.782  0.00  0.00    +0.038 C 
BRANCH  25  26
ATOM     26  C   UNL     1      -4.028   4.886  26.672  0.00  0.00    +0.109 C 
BRANCH  26   6
ATOM      2  O   UNL     1      -1.622   3.114  26.910  0.00  0.00    -0.276 OA
ATOM      6  N   UNL     1      -2.794   4.899  25.917  0.00  0.00    -0.301 N 
ATOM     27  C   UNL     1      -2.607   5.780  24.788  0.00  0.00    +0.108 C 
ATOM     28  C   UNL     1      -1.111   5.718  24.548  0.00  0.00    +0.028 C 
ATOM     29  C   UNL     1      -0.725   4.317  25.006  0.00  0.00    +0.097 C 
ATOM     30  C   UNL     1      -1.734   4.012  26.088  0.00  0.00    +0.216 C 
ENDBRANCH  26   6
ENDBRANCH  25  26
ENDBRANCH  24  25
ENDBRANCH   5  24
ENDBRANCH   8  18
BRANCH   7  12
ATOM     12  C   UNL     1      -3.411  -2.136  25.690  0.00  0.00    +0.026 C 
BRANCH  12  15
ATOM     15  C   UNL     1      -3.863  -2.710  24.343  0.00  0.00    -0.015 C 
ATOM     21  C   UNL     1      -4.412  -1.638  23.400  0.00  0.00    +0.007 C 
ATOM     22  C   UNL     1      -2.684  -3.428  23.680  0.00  0.00    +0.007 C 
ENDBRANCH  12  15
ENDBRANCH   7  12
BRANCH   4  23
ATOM     23  C   UNL     1       2.903  -0.405  22.387  0.00  0.00    +0.148 C 
BRANCH  23  31
ATOM     31  C   UNL     1       3.831   0.678  22.851  0.00  0.00    -0.013 C 
ATOM     32  C   UNL     1       5.001   0.450  23.457  0.00  0.00    +0.005 C 
ENDBRANCH  23  31
ENDBRANCH   4  23
TORSDOF 9
ENDMDL
MODEL 4
REMARK VINA RESULT:       2.8      1.435      1.923
REMARK  Name = 51138118
REMARK  11 active torsions:
REMARK  status: ('A' for Active; 'I' for Inactive)
REMARK    1  A    between atoms: N_4  and  C_23
REMARK    2  A    between atoms: N_5  and  C_24
REMARK    3  A    between atoms: N_6  and  C_26
REMARK    4  A    between atoms: C_7  and  C_12
REMARK    5  A    between atoms: C_8  and  C_18
REMARK    6  A    between atoms: C_12  and  C_15
REMARK    7  A    between atoms: C_15  and  C_21
REMARK    8  A    between atoms: C_15  and  C_22
REMARK    9  A    between atoms: C_23  and  C_31
REMARK   10  A    between atoms: C_24  and  C_25
REMARK   11  A    between atoms: C_25  and  C_26
REMARK                            x       y       z     vdW  Elec       q    Type
REMARK                         _______ _______ _______ _____ _____    ______ ____
ROOT
ATOM      3  N   UNL     1      -1.349   0.073  24.912  0.00  0.00    -0.299 NA
ATOM      4  N   UNL     1      -4.065   4.228  25.842  0.00  0.00    -0.343 N 
ATOM      7  C   UNL     1      -2.751  -0.311  24.696  0.00  0.00    +0.085 C 
ATOM      8  C   UNL     1      -0.899   1.205  24.115  0.00  0.00    +0.145 C 
ATOM      9  C   UNL     1      -3.800   0.733  25.093  0.00  0.00    -0.021 A 
ATOM     10  C   UNL     1      -3.537   2.115  25.320  0.00  0.00    +0.008 A 
ATOM     11  C   UNL     1      -0.967   2.510  24.905  0.00  0.00    +0.065 C 
ATOM     13  C   UNL     1      -2.355   2.931  25.256  0.00  0.00    -0.020 A 
ATOM     14  C   UNL     1      -4.591   2.969  25.666  0.00  0.00    +0.050 A 
ATOM     16  C   UNL     1      -2.725   4.218  25.593  0.00  0.00    +0.090 A 
ATOM     17  C   UNL     1      -5.158   0.334  25.173  0.00  0.00    +0.006 A 
ATOM     19  C   UNL     1      -5.915   2.547  25.785  0.00  0.00    +0.026 A 
ATOM     20  C   UNL     1      -6.184   1.211  25.518  0.00  0.00    +0.002 A 
ATOM     33  H   UNL     1      -1.162   0.222  25.903  0.00  0.00    +0.123 HD
ENDROOT
BRANCH   8  18
ATOM      1  O   UNL     1       1.436   1.690  24.057  0.00  0.00    -0.274 OA
ATOM      5  N   UNL     1       0.677  -0.307  23.134  0.00  0.00    -0.314 N 
ATOM     18  C   UNL     1       0.532   0.907  23.783  0.00  0.00    +0.230 C 
ATOM     34  H   UNL     1      -0.138  -0.885  22.957  0.00  0.00    +0.149 HD
BRANCH   5  24
ATOM     24  C   UNL     1       1.954  -0.817  22.687  0.00  0.00    +0.106 C 
BRANCH  24  25
ATOM     25  C   UNL     1       2.575   0.041  21.588  0.00  0.00    +0.038 C 
BRANCH  25  26
ATOM     26  C   UNL     1       3.885   0.712  21.995  0.00  0.00    +0.109 C 
BRANCH  26   6
ATOM      2  O   UNL     1       5.916   1.683  23.975  0.00  0.00    -0.276 OA
ATOM      6  N   UNL     1       4.582  -0.015  23.033  0.00  0.00    -0.301 N 
ATOM     27  C   UNL     1       4.274  -1.394  23.329  0.00  0.00    +0.108 C 
ATOM     28  C   UNL     1       5.444  -1.832  24.187  0.00  0.00    +0.028 C 
ATOM     29  C   UNL     1       5.870  -0.556  24.904  0.00  0.00    +0.097 C 
ATOM     30  C   UNL     1       5.500   0.534  23.926  0.00  0.00    +0.216 C 
ENDBRANCH  26   6
ENDBRANCH  25  26
ENDBRANCH  24  25
ENDBRANCH   5  24
ENDBRANCH   8  18
BRANCH   7  12
ATOM     12  C   UNL     1      -2.915  -1.635  25.465  0.00  0.00    +0.026 C 
BRANCH  12  15
ATOM     15  C   UNL     1      -3.204  -2.827  24.548  0.00  0.00    -0.015 C 
ATOM     21  C   UNL     1      -4.352  -2.555  23.574  0.00  0.00    +0.007 C 
ATOM     22  C   UNL     1      -1.936  -3.182  23.767  0.00  0.00    +0.007 C 
ENDBRANCH  12  15
ENDBRANCH   7  12
BRANCH   4  23
ATOM     23  C   UNL     1      -4.815   5.408  26.217  0.00  0.00    +0.148 C 
BRANCH  23  31
ATOM     31  C   UNL     1      -6.237   5.359  25.744  0.00  0.00    -0.013 C 
ATOM     32  C   UNL     1      -6.660   5.893  24.593  0.00  0.00    +0.005 C 
ENDBRANCH  23  31
ENDBRANCH   4  23
TORSDOF 9
ENDMDL
