MODEL 1
REMARK VINA RESULT:      -4.6      0.000      0.000
REMARK  Name = 45360757
REMARK  10 active torsions:
REMARK  status: ('A' for Active; 'I' for Inactive)
REMARK    1  A    between atoms: N_6  and  C_9
REMARK    2  A    between atoms: N_6  and  C_17
REMARK    3  A    between atoms: N_7  and  C_22
REMARK    4  A    between atoms: N_7  and  C_23
REMARK    5  A    between atoms: C_10  and  C_15
REMARK    6  A    between atoms: C_15  and  C_16
REMARK    7  A    between atoms: C_16  and  C_18
REMARK    8  A    between atoms: C_17  and  C_19
REMARK    9  A    between atoms: C_22  and  C_26
REMARK   10  A    between atoms: C_23  and  C_27
REMARK                            x       y       z     vdW  Elec       q    Type
REMARK                         _______ _______ _______ _____ _____    ______ ____
ROOT
ATOM      2  O   UNL     1      -0.587   5.187  25.188  0.00  0.00    -0.274 OA
ATOM      4  N   UNL     1      -2.284   1.969  24.883  0.00  0.00    -0.286 NA
ATOM      5  N   UNL     1      -2.708   4.718  24.511  0.00  0.00    -0.313 N 
ATOM      8  C   UNL     1      -1.263   2.893  25.395  0.00  0.00    +0.145 C 
ATOM      9  C   UNL     1      -0.344   1.168  23.953  0.00  0.00    +0.070 C 
ATOM     10  C   UNL     1      -3.645   2.491  24.933  0.00  0.00    +0.075 C 
ATOM     11  C   UNL     1       0.058   2.366  24.815  0.00  0.00    +0.048 C 
ATOM     12  C   UNL     1      -1.798   1.455  23.604  0.00  0.00    +0.104 C 
ATOM     13  C   UNL     1      -3.755   3.791  24.152  0.00  0.00    +0.123 C 
ATOM     14  C   UNL     1      -1.478   4.352  25.004  0.00  0.00    +0.230 C 
ATOM     29  H   UNL     1      -2.845   5.696  24.274  0.00  0.00    +0.149 HD
ENDROOT
BRANCH   9   6
ATOM      6  N   UNL     1       0.508   0.992  22.788  0.00  0.00    -0.308 NA
ATOM     30  H   UNL     1      -0.058   1.082  21.944  0.00  0.00    +0.123 HD
BRANCH   6  17
ATOM     17  C   UNL     1       1.137  -0.323  22.794  0.00  0.00    +0.116 C 
BRANCH  17  19
ATOM      1  F   UNL     1       6.687   0.010  23.709  0.00  0.00    -0.205 F 
ATOM     19  C   UNL     1       2.620  -0.234  23.038  0.00  0.00    -0.033 A 
ATOM     20  C   UNL     1       3.302  -1.318  23.590  0.00  0.00    +0.008 A 
ATOM     21  C   UNL     1       3.311   0.933  22.713  0.00  0.00    +0.008 A 
ATOM     24  C   UNL     1       4.675  -1.235  23.817  0.00  0.00    +0.038 A 
ATOM     25  C   UNL     1       4.686   1.016  22.940  0.00  0.00    +0.038 A 
ATOM     28  C   UNL     1       5.367  -0.069  23.492  0.00  0.00    +0.123 A 
ENDBRANCH  17  19
ENDBRANCH   6  17
ENDBRANCH   9   6
BRANCH  10  15
ATOM     15  C   UNL     1      -4.687   1.477  24.459  0.00  0.00    +0.029 C 
BRANCH  15  16
ATOM     16  C   UNL     1      -4.694   0.237  25.348  0.00  0.00    +0.097 C 
BRANCH  16  18
ATOM      3  O   UNL     1      -4.600  -1.305  23.516  0.00  0.00    -0.276 OA
ATOM      7  N   UNL     1      -3.175  -1.725  25.298  0.00  0.00    -0.302 N 
ATOM     18  C   UNL     1      -4.163  -0.995  24.627  0.00  0.00    +0.216 C 
BRANCH   7  22
ATOM     22  C   UNL     1      -2.628  -1.397  26.612  0.00  0.00    +0.104 C 
ATOM     26  C   UNL     1      -1.227  -0.830  26.503  0.00  0.00    +0.024 C 
ENDBRANCH   7  22
BRANCH   7  23
ATOM     23  C   UNL     1      -2.624  -2.924  24.678  0.00  0.00    +0.104 C 
ATOM     27  C   UNL     1      -1.340  -2.623  23.934  0.00  0.00    +0.024 C 
ENDBRANCH   7  23
ENDBRANCH  16  18
ENDBRANCH  15  16
ENDBRANCH  10  15
TORSDOF 8
ENDMDL
MODEL 2
REMARK VINA RESULT:      -3.1      1.488      2.026
REMARK  Name = 45360757
REMARK  10 active torsions:
REMARK  status: ('A' for Active; 'I' for Inactive)
REMARK    1  A    between atoms: N_6  and  C_9
REMARK    2  A    between atoms: N_6  and  C_17
REMARK    3  A    between atoms: N_7  and  C_22
REMARK    4  A    between atoms: N_7  and  C_23
REMARK    5  A    between atoms: C_10  and  C_15
REMARK    6  A    between atoms: C_15  and  C_16
REMARK    7  A    between atoms: C_16  and  C_18
REMARK    8  A    between atoms: C_17  and  C_19
REMARK    9  A    between atoms: C_22  and  C_26
REMARK   10  A    between atoms: C_23  and  C_27
REMARK                            x       y       z     vdW  Elec       q    Type
REMARK                         _______ _______ _______ _____ _____    ______ ____
ROOT
ATOM      2  O   UNL     1       0.734   2.767  26.804  0.00  0.00    -0.274 OA
ATOM      4  N   UNL     1      -1.976   1.867  24.529  0.00  0.00    -0.286 NA
ATOM      5  N   UNL     1      -0.921   4.059  25.928  0.00  0.00    -0.313 N 
ATOM      8  C   UNL     1      -0.933   1.602  25.529  0.00  0.00    +0.145 C 
ATOM      9  C   UNL     1      -0.425   0.649  23.354  0.00  0.00    +0.070 C 
ATOM     10  C   UNL     1      -2.850   2.988  24.856  0.00  0.00    +0.075 C 
ATOM     11  C   UNL     1       0.110   0.758  24.782  0.00  0.00    +0.048 C 
ATOM     12  C   UNL     1      -1.327   1.869  23.220  0.00  0.00    +0.104 C 
ATOM     13  C   UNL     1      -2.045   4.265  25.045  0.00  0.00    +0.123 C 
ATOM     14  C   UNL     1      -0.290   2.853  26.120  0.00  0.00    +0.230 C 
ATOM     29  H   UNL     1      -0.494   4.882  26.343  0.00  0.00    +0.149 HD
ENDROOT
BRANCH   9   6
ATOM      6  N   UNL     1       0.628   0.593  22.352  0.00  0.00    -0.308 NA
ATOM     30  H   UNL     1       0.207   0.649  21.424  0.00  0.00    +0.123 HD
BRANCH   6  17
ATOM     17  C   UNL     1       1.380  -0.651  22.453  0.00  0.00    +0.116 C 
BRANCH  17  19
ATOM      1  F   UNL     1       6.719   0.249  24.013  0.00  0.00    -0.205 F 
ATOM     19  C   UNL     1       2.807  -0.410  22.870  0.00  0.00    -0.033 A 
ATOM     20  C   UNL     1       3.513  -1.406  23.544  0.00  0.00    +0.008 A 
ATOM     21  C   UNL     1       3.421   0.808  22.581  0.00  0.00    +0.008 A 
ATOM     24  C   UNL     1       4.834  -1.183  23.930  0.00  0.00    +0.038 A 
ATOM     25  C   UNL     1       4.743   1.031  22.969  0.00  0.00    +0.038 A 
ATOM     28  C   UNL     1       5.449   0.035  23.643  0.00  0.00    +0.123 A 
ENDBRANCH  17  19
ENDBRANCH   6  17
ENDBRANCH   9   6
BRANCH  10  15
ATOM     15  C   UNL     1      -3.965   3.190  23.829  0.00  0.00    +0.029 C 
BRANCH  15  16
ATOM     16  C   UNL     1      -4.949   2.025  23.847  0.00  0.00    +0.097 C 
BRANCH  16  18
ATOM      3  O   UNL     1      -5.166   1.634  26.202  0.00  0.00    -0.276 OA
ATOM      7  N   UNL     1      -4.298  -0.107  24.939  0.00  0.00    -0.302 N 
ATOM     18  C   UNL     1      -4.821   1.180  25.108  0.00  0.00    +0.216 C 
BRANCH   7  22
ATOM     22  C   UNL     1      -3.876  -0.687  23.666  0.00  0.00    +0.104 C 
ATOM     26  C   UNL     1      -4.242  -2.154  23.577  0.00  0.00    +0.024 C 
ENDBRANCH   7  22
BRANCH   7  23
ATOM     23  C   UNL     1      -4.134  -0.973  26.099  0.00  0.00    +0.104 C 
ATOM     27  C   UNL     1      -2.679  -1.320  26.333  0.00  0.00    +0.024 C 
ENDBRANCH   7  23
ENDBRANCH  16  18
ENDBRANCH  15  16
ENDBRANCH  10  15
TORSDOF 8
ENDMDL
MODEL 3
REMARK VINA RESULT:      -2.7      1.409      4.298
REMARK  Name = 45360757
REMARK  10 active torsions:
REMARK  status: ('A' for Active; 'I' for Inactive)
REMARK    1  A    between atoms: N_6  and  C_9
REMARK    2  A    between atoms: N_6  and  C_17
REMARK    3  A    between atoms: N_7  and  C_22
REMARK    4  A    between atoms: N_7  and  C_23
REMARK    5  A    between atoms: C_10  and  C_15
REMARK    6  A    between atoms: C_15  and  C_16
REMARK    7  A    between atoms: C_16  and  C_18
REMARK    8  A    between atoms: C_17  and  C_19
REMARK    9  A    between atoms: C_22  and  C_26
REMARK   10  A    between atoms: C_23  and  C_27
REMARK                            x       y       z     vdW  Elec       q    Type
REMARK                         _______ _______ _______ _____ _____    ______ ____
ROOT
ATOM      2  O   UNL     1      -2.938  -3.086  25.803  0.00  0.00    -0.274 OA
ATOM      4  N   UNL     1      -3.129  -0.074  23.749  0.00  0.00    -0.286 NA
ATOM      5  N   UNL     1      -3.998  -1.114  26.206  0.00  0.00    -0.313 N 
ATOM      8  C   UNL     1      -2.925  -1.508  23.994  0.00  0.00    +0.145 C 
ATOM      9  C   UNL     1      -0.890  -0.361  23.330  0.00  0.00    +0.070 C 
ATOM     10  C   UNL     1      -4.329   0.477  24.368  0.00  0.00    +0.075 C 
ATOM     11  C   UNL     1      -1.438  -1.742  23.691  0.00  0.00    +0.048 C 
ATOM     12  C   UNL     1      -1.857   0.594  24.017  0.00  0.00    +0.104 C 
ATOM     13  C   UNL     1      -4.312   0.255  25.873  0.00  0.00    +0.123 C 
ATOM     14  C   UNL     1      -3.264  -1.962  25.411  0.00  0.00    +0.230 C 
ATOM     29  H   UNL     1      -4.235  -1.436  27.140  0.00  0.00    +0.149 HD
ENDROOT
BRANCH   9   6
ATOM      6  N   UNL     1       0.495  -0.173  23.731  0.00  0.00    -0.308 NA
ATOM     30  H   UNL     1       0.580   0.713  24.230  0.00  0.00    +0.123 HD
BRANCH   6  17
ATOM     17  C   UNL     1       1.377  -0.147  22.572  0.00  0.00    +0.116 C 
BRANCH  17  19
ATOM      1  F   UNL     1       6.809  -0.140  24.069  0.00  0.00    -0.205 F 
ATOM     19  C   UNL     1       2.828  -0.145  22.972  0.00  0.00    -0.033 A 
ATOM     20  C   UNL     1       3.609   0.991  22.758  0.00  0.00    +0.008 A 
ATOM     21  C   UNL     1       3.392  -1.280  23.556  0.00  0.00    +0.008 A 
ATOM     24  C   UNL     1       4.953   0.992  23.128  0.00  0.00    +0.038 A 
ATOM     25  C   UNL     1       4.738  -1.278  23.926  0.00  0.00    +0.038 A 
ATOM     28  C   UNL     1       5.517  -0.141  23.712  0.00  0.00    +0.123 A 
ENDBRANCH  17  19
ENDBRANCH   6  17
ENDBRANCH   9   6
BRANCH  10  15
ATOM     15  C   UNL     1      -4.546   1.953  24.033  0.00  0.00    +0.029 C 
BRANCH  15  16
ATOM     16  C   UNL     1      -4.221   2.843  25.228  0.00  0.00    +0.097 C 
BRANCH  16  18
ATOM      3  O   UNL     1      -3.661   4.889  24.113  0.00  0.00    -0.276 OA
ATOM      7  N   UNL     1      -1.997   3.929  25.413  0.00  0.00    -0.302 N 
ATOM     18  C   UNL     1      -3.282   3.984  24.860  0.00  0.00    +0.216 C 
BRANCH   7  22
ATOM     22  C   UNL     1      -1.504   2.879  26.301  0.00  0.00    +0.104 C 
ATOM     26  C   UNL     1      -0.005   2.700  26.169  0.00  0.00    +0.024 C 
ENDBRANCH   7  22
BRANCH   7  23
ATOM     23  C   UNL     1      -1.036   4.979  25.100  0.00  0.00    +0.104 C 
ATOM     27  C   UNL     1      -0.326   4.709  23.789  0.00  0.00    +0.024 C 
ENDBRANCH   7  23
ENDBRANCH  16  18
ENDBRANCH  15  16
ENDBRANCH  10  15
TORSDOF 8
ENDMDL
MODEL 4
REMARK VINA RESULT:      -1.9      2.464      5.928
REMARK  Name = 45360757
REMARK  10 active torsions:
REMARK  status: ('A' for Active; 'I' for Inactive)
REMARK    1  A    between atoms: N_6  and  C_9
REMARK    2  A    between atoms: N_6  and  C_17
REMARK    3  A    between atoms: N_7  and  C_22
REMARK    4  A    between atoms: N_7  and  C_23
REMARK    5  A    between atoms: C_10  and  C_15
REMARK    6  A    between atoms: C_15  and  C_16
REMARK    7  A    between atoms: C_16  and  C_18
REMARK    8  A    between atoms: C_17  and  C_19
REMARK    9  A    between atoms: C_22  and  C_26
REMARK   10  A    between atoms: C_23  and  C_27
REMARK                            x       y       z     vdW  Elec       q    Type
REMARK                         _______ _______ _______ _____ _____    ______ ____
ROOT
ATOM      2  O   UNL     1      -3.175   4.734  27.137  0.00  0.00    -0.274 OA
ATOM      4  N   UNL     1      -2.471   3.029  23.987  0.00  0.00    -0.286 NA
ATOM      5  N   UNL     1      -1.370   3.492  26.526  0.00  0.00    -0.313 N 
ATOM      8  C   UNL     1      -3.126   4.026  24.844  0.00  0.00    +0.145 C 
ATOM      9  C   UNL     1      -4.661   2.340  24.007  0.00  0.00    +0.070 C 
ATOM     10  C   UNL     1      -1.025   2.945  24.160  0.00  0.00    +0.075 C 
ATOM     11  C   UNL     1      -4.605   3.612  24.855  0.00  0.00    +0.048 C 
ATOM     12  C   UNL     1      -3.242   1.793  24.097  0.00  0.00    +0.104 C 
ATOM     13  C   UNL     1      -0.670   2.628  25.604  0.00  0.00    +0.123 C 
ATOM     14  C   UNL     1      -2.577   4.096  26.266  0.00  0.00    +0.230 C 
ATOM     29  H   UNL     1      -1.005   3.563  27.471  0.00  0.00    +0.149 HD
ENDROOT
BRANCH   9   6
ATOM      6  N   UNL     1      -5.675   1.399  24.456  0.00  0.00    -0.308 NA
ATOM     30  H   UNL     1      -6.510   1.916  24.732  0.00  0.00    +0.123 HD
BRANCH   6  17
ATOM     17  C   UNL     1      -5.203   0.626  25.597  0.00  0.00    +0.116 C 
BRANCH  17  19
ATOM      1  F   UNL     1      -1.546  -3.373  24.055  0.00  0.00    -0.205 F 
ATOM     19  C   UNL     1      -4.226  -0.443  25.185  0.00  0.00    -0.033 A 
ATOM     20  C   UNL     1      -2.982  -0.528  25.810  0.00  0.00    +0.008 A 
ATOM     21  C   UNL     1      -4.565  -1.347  24.178  0.00  0.00    +0.008 A 
ATOM     24  C   UNL     1      -2.077  -1.518  25.428  0.00  0.00    +0.038 A 
ATOM     25  C   UNL     1      -3.658  -2.336  23.796  0.00  0.00    +0.038 A 
ATOM     28  C   UNL     1      -2.415  -2.422  24.421  0.00  0.00    +0.123 A 
ENDBRANCH  17  19
ENDBRANCH   6  17
ENDBRANCH   9   6
BRANCH  10  15
ATOM     15  C   UNL     1      -0.370   1.949  23.202  0.00  0.00    +0.029 C 
BRANCH  15  16
ATOM     16  C   UNL     1       1.094   1.720  23.562  0.00  0.00    +0.097 C 
BRANCH  16  18
ATOM      3  O   UNL     1       0.707  -0.645  23.542  0.00  0.00    -0.276 OA
ATOM      7  N   UNL     1       2.849   0.058  22.996  0.00  0.00    -0.302 N 
ATOM     18  C   UNL     1       1.516   0.269  23.369  0.00  0.00    +0.216 C 
BRANCH   7  22
ATOM     22  C   UNL     1       3.842   1.108  22.780  0.00  0.00    +0.104 C 
ATOM     26  C   UNL     1       5.151   0.782  23.470  0.00  0.00    +0.024 C 
ENDBRANCH   7  22
BRANCH   7  23
ATOM     23  C   UNL     1       3.333  -1.303  22.803  0.00  0.00    +0.104 C 
ATOM     27  C   UNL     1       4.283  -1.716  23.907  0.00  0.00    +0.024 C 
ENDBRANCH   7  23
ENDBRANCH  16  18
ENDBRANCH  15  16
ENDBRANCH  10  15
TORSDOF 8
ENDMDL
MODEL 5
REMARK VINA RESULT:      -1.5      2.835      6.352
REMARK  Name = 45360757
REMARK  10 active torsions:
REMARK  status: ('A' for Active; 'I' for Inactive)
REMARK    1  A    between atoms: N_6  and  C_9
REMARK    2  A    between atoms: N_6  and  C_17
REMARK    3  A    between atoms: N_7  and  C_22
REMARK    4  A    between atoms: N_7  and  C_23
REMARK    5  A    between atoms: C_10  and  C_15
REMARK    6  A    between atoms: C_15  and  C_16
REMARK    7  A    between atoms: C_16  and  C_18
REMARK    8  A    between atoms: C_17  and  C_19
REMARK    9  A    between atoms: C_22  and  C_26
REMARK   10  A    between atoms: C_23  and  C_27
REMARK                            x       y       z     vdW  Elec       q    Type
REMARK                         _______ _______ _______ _____ _____    ______ ____
ROOT
ATOM      2  O   UNL     1      -1.658   5.456  25.375  0.00  0.00    -0.274 OA
ATOM      4  N   UNL     1      -1.409   2.135  23.880  0.00  0.00    -0.286 NA
ATOM      5  N   UNL     1      -0.328   3.701  25.943  0.00  0.00    -0.313 N 
ATOM      8  C   UNL     1      -1.742   3.565  23.899  0.00  0.00    +0.145 C 
ATOM      9  C   UNL     1      -3.702   2.136  23.783  0.00  0.00    +0.070 C 
ATOM     10  C   UNL     1      -0.076   1.822  24.386  0.00  0.00    +0.075 C 
ATOM     11  C   UNL     1      -3.275   3.604  23.802  0.00  0.00    +0.048 C 
ATOM     12  C   UNL     1      -2.542   1.420  24.463  0.00  0.00    +0.104 C 
ATOM     13  C   UNL     1       0.094   2.326  25.810  0.00  0.00    +0.123 C 
ATOM     14  C   UNL     1      -1.262   4.311  25.140  0.00  0.00    +0.230 C 
ATOM     29  H   UNL     1      -0.001   4.215  26.755  0.00  0.00    +0.149 HD
ENDROOT
BRANCH   9   6
ATOM      6  N   UNL     1      -4.985   1.907  24.429  0.00  0.00    -0.308 NA
ATOM     30  H   UNL     1      -5.353   2.797  24.764  0.00  0.00    +0.123 HD
BRANCH   6  17
ATOM     17  C   UNL     1      -4.846   0.999  25.560  0.00  0.00    +0.116 C 
BRANCH  17  19
ATOM      1  F   UNL     1      -2.867  -4.036  23.982  0.00  0.00    -0.205 F 
ATOM     19  C   UNL     1      -4.317  -0.346  25.138  0.00  0.00    -0.033 A 
ATOM     20  C   UNL     1      -4.799  -0.952  23.978  0.00  0.00    +0.008 A 
ATOM     21  C   UNL     1      -3.346  -0.986  25.908  0.00  0.00    +0.008 A 
ATOM     24  C   UNL     1      -4.310  -2.198  23.588  0.00  0.00    +0.038 A 
ATOM     25  C   UNL     1      -2.857  -2.233  25.518  0.00  0.00    +0.038 A 
ATOM     28  C   UNL     1      -3.339  -2.838  24.357  0.00  0.00    +0.123 A 
ENDBRANCH  17  19
ENDBRANCH   6  17
ENDBRANCH   9   6
BRANCH  10  15
ATOM     15  C   UNL     1       0.262   0.335  24.285  0.00  0.00    +0.029 C 
BRANCH  15  16
ATOM     16  C   UNL     1       1.096   0.041  23.042  0.00  0.00    +0.097 C 
BRANCH  16  18
ATOM      3  O   UNL     1       2.473   2.003  23.039  0.00  0.00    -0.276 OA
ATOM      7  N   UNL     1       3.576  -0.037  23.093  0.00  0.00    -0.302 N 
ATOM     18  C   UNL     1       2.433   0.770  23.058  0.00  0.00    +0.216 C 
BRANCH   7  22
ATOM     22  C   UNL     1       3.578  -1.498  23.116  0.00  0.00    +0.104 C 
ATOM     26  C   UNL     1       4.729  -2.037  23.941  0.00  0.00    +0.024 C 
ENDBRANCH   7  22
BRANCH   7  23
ATOM     23  C   UNL     1       4.894   0.585  23.098  0.00  0.00    +0.104 C 
ATOM     27  C   UNL     1       5.489   0.613  24.491  0.00  0.00    +0.024 C 
ENDBRANCH   7  23
ENDBRANCH  16  18
ENDBRANCH  15  16
ENDBRANCH  10  15
TORSDOF 8
ENDMDL
MODEL 6
REMARK VINA RESULT:      -1.5      2.595      7.084
REMARK  Name = 45360757
REMARK  10 active torsions:
REMARK  status: ('A' for Active; 'I' for Inactive)
REMARK    1  A    between atoms: N_6  and  C_9
REMARK    2  A    between atoms: N_6  and  C_17
REMARK    3  A    between atoms: N_7  and  C_22
REMARK    4  A    between atoms: N_7  and  C_23
REMARK    5  A    between atoms: C_10  and  C_15
REMARK    6  A    between atoms: C_15  and  C_16
REMARK    7  A    between atoms: C_16  and  C_18
REMARK    8  A    between atoms: C_17  and  C_19
REMARK    9  A    between atoms: C_22  and  C_26
REMARK   10  A    between atoms: C_23  and  C_27
REMARK                            x       y       z     vdW  Elec       q    Type
REMARK                         _______ _______ _______ _____ _____    ______ ____
ROOT
ATOM      2  O   UNL     1      -3.582  -3.504  25.029  0.00  0.00    -0.274 OA
ATOM      4  N   UNL     1      -1.904  -0.268  25.232  0.00  0.00    -0.286 NA
ATOM      5  N   UNL     1      -1.767  -2.732  23.896  0.00  0.00    -0.313 N 
ATOM      8  C   UNL     1      -2.755  -1.360  25.723  0.00  0.00    +0.145 C 
ATOM      9  C   UNL     1      -3.993   0.680  25.273  0.00  0.00    +0.070 C 
ATOM     10  C   UNL     1      -0.627  -0.705  24.677  0.00  0.00    +0.075 C 
ATOM     11  C   UNL     1      -4.162  -0.748  25.793  0.00  0.00    +0.048 C 
ATOM     12  C   UNL     1      -2.744   0.596  24.407  0.00  0.00    +0.104 C 
ATOM     13  C   UNL     1      -0.841  -1.685  23.533  0.00  0.00    +0.123 C 
ATOM     14  C   UNL     1      -2.754  -2.607  24.844  0.00  0.00    +0.230 C 
ATOM     29  H   UNL     1      -1.765  -3.576  23.331  0.00  0.00    +0.149 HD
ENDROOT
BRANCH   9   6
ATOM      6  N   UNL     1      -5.162   1.170  24.560  0.00  0.00    -0.308 NA
ATOM     30  H   UNL     1      -4.984   1.123  23.557  0.00  0.00    +0.123 HD
BRANCH   6  17
ATOM     17  C   UNL     1      -5.456   2.551  24.922  0.00  0.00    +0.116 C 
BRANCH  17  19
ATOM      1  F   UNL     1      -0.785   5.692  25.182  0.00  0.00    -0.205 F 
ATOM     19  C   UNL     1      -4.208   3.390  24.991  0.00  0.00    -0.033 A 
ATOM     20  C   UNL     1      -3.561   3.776  23.818  0.00  0.00    +0.008 A 
ATOM     21  C   UNL     1      -3.699   3.781  26.230  0.00  0.00    +0.008 A 
ATOM     24  C   UNL     1      -2.405   4.553  23.882  0.00  0.00    +0.038 A 
ATOM     25  C   UNL     1      -2.542   4.558  26.294  0.00  0.00    +0.038 A 
ATOM     28  C   UNL     1      -1.896   4.944  25.120  0.00  0.00    +0.123 A 
ENDBRANCH  17  19
ENDBRANCH   6  17
ENDBRANCH   9   6
BRANCH  10  15
ATOM     15  C   UNL     1       0.261   0.461  24.242  0.00  0.00    +0.029 C 
BRANCH  15  16
ATOM     16  C   UNL     1       1.141   0.072  23.058  0.00  0.00    +0.097 C 
BRANCH  16  18
ATOM      3  O   UNL     1       2.539   2.019  23.057  0.00  0.00    -0.276 OA
ATOM      7  N   UNL     1       3.620  -0.033  23.121  0.00  0.00    -0.302 N 
ATOM     18  C   UNL     1       2.486   0.787  23.079  0.00  0.00    +0.216 C 
BRANCH   7  22
ATOM     22  C   UNL     1       3.605  -1.494  23.148  0.00  0.00    +0.104 C 
ATOM     26  C   UNL     1       4.778  -2.045  23.933  0.00  0.00    +0.024 C 
ENDBRANCH   7  22
BRANCH   7  23
ATOM     23  C   UNL     1       4.944   0.575  23.132  0.00  0.00    +0.104 C 
ATOM     27  C   UNL     1       5.503   0.663  24.537  0.00  0.00    +0.024 C 
ENDBRANCH   7  23
ENDBRANCH  16  18
ENDBRANCH  15  16
ENDBRANCH  10  15
TORSDOF 8
ENDMDL
MODEL 7
REMARK VINA RESULT:      -1.4      1.871      3.094
REMARK  Name = 45360757
REMARK  10 active torsions:
REMARK  status: ('A' for Active; 'I' for Inactive)
REMARK    1  A    between atoms: N_6  and  C_9
REMARK    2  A    between atoms: N_6  and  C_17
REMARK    3  A    between atoms: N_7  and  C_22
REMARK    4  A    between atoms: N_7  and  C_23
REMARK    5  A    between atoms: C_10  and  C_15
REMARK    6  A    between atoms: C_15  and  C_16
REMARK    7  A    between atoms: C_16  and  C_18
REMARK    8  A    between atoms: C_17  and  C_19
REMARK    9  A    between atoms: C_22  and  C_26
REMARK   10  A    between atoms: C_23  and  C_27
REMARK                            x       y       z     vdW  Elec       q    Type
REMARK                         _______ _______ _______ _____ _____    ______ ____
ROOT
ATOM      2  O   UNL     1       0.731   2.436  27.171  0.00  0.00    -0.274 OA
ATOM      4  N   UNL     1      -1.635   1.654  24.504  0.00  0.00    -0.286 NA
ATOM      5  N   UNL     1      -0.035   3.745  25.475  0.00  0.00    -0.313 N 
ATOM      8  C   UNL     1      -1.005   1.477  25.818  0.00  0.00    +0.145 C 
ATOM      9  C   UNL     1      -0.552  -0.359  24.295  0.00  0.00    +0.070 C 
ATOM     10  C   UNL     1      -2.002   3.032  24.194  0.00  0.00    +0.075 C 
ATOM     11  C   UNL     1      -0.294   0.119  25.724  0.00  0.00    +0.048 C 
ATOM     12  C   UNL     1      -0.817   0.933  23.532  0.00  0.00    +0.104 C 
ATOM     13  C   UNL     1      -0.785   3.943  24.257  0.00  0.00    +0.123 C 
ATOM     14  C   UNL     1      -0.017   2.576  26.199  0.00  0.00    +0.230 C 
ATOM     29  H   UNL     1       0.613   4.476  25.751  0.00  0.00    +0.149 HD
ENDROOT
BRANCH   9   6
ATOM      6  N   UNL     1       0.544  -1.141  23.747  0.00  0.00    -0.308 NA
ATOM     30  H   UNL     1       1.201  -1.364  24.496  0.00  0.00    +0.123 HD
BRANCH   6  17
ATOM     17  C   UNL     1       1.249  -0.401  22.709  0.00  0.00    +0.116 C 
BRANCH  17  19
ATOM      1  F   UNL     1       6.752   0.065  23.827  0.00  0.00    -0.205 F 
ATOM     19  C   UNL     1       2.719  -0.276  23.008  0.00  0.00    -0.033 A 
ATOM     20  C   UNL     1       3.407  -1.346  23.580  0.00  0.00    +0.008 A 
ATOM     21  C   UNL     1       3.392   0.909  22.712  0.00  0.00    +0.008 A 
ATOM     24  C   UNL     1       4.769  -1.231  23.857  0.00  0.00    +0.038 A 
ATOM     25  C   UNL     1       4.755   1.024  22.991  0.00  0.00    +0.038 A 
ATOM     28  C   UNL     1       5.442  -0.046  23.562  0.00  0.00    +0.123 A 
ENDBRANCH  17  19
ENDBRANCH   6  17
ENDBRANCH   9   6
BRANCH  10  15
ATOM     15  C   UNL     1      -2.719   3.167  22.851  0.00  0.00    +0.029 C 
BRANCH  15  16
ATOM     16  C   UNL     1      -4.227   2.999  23.011  0.00  0.00    +0.097 C 
BRANCH  16  18
ATOM      3  O   UNL     1      -4.458   0.718  23.709  0.00  0.00    -0.276 OA
ATOM      7  N   UNL     1      -5.051   2.340  25.257  0.00  0.00    -0.302 N 
ATOM     18  C   UNL     1      -4.583   1.907  24.011  0.00  0.00    +0.216 C 
BRANCH   7  22
ATOM     22  C   UNL     1      -5.217   3.735  25.659  0.00  0.00    +0.104 C 
ATOM     26  C   UNL     1      -3.998   4.246  26.400  0.00  0.00    +0.024 C 
ENDBRANCH   7  22
BRANCH   7  23
ATOM     23  C   UNL     1      -5.424   1.356  26.264  0.00  0.00    +0.104 C 
ATOM     27  C   UNL     1      -6.780   1.663  26.866  0.00  0.00    +0.024 C 
ENDBRANCH   7  23
ENDBRANCH  16  18
ENDBRANCH  15  16
ENDBRANCH  10  15
TORSDOF 8
ENDMDL
MODEL 8
REMARK VINA RESULT:      -0.9      3.429      6.397
REMARK  Name = 45360757
REMARK  10 active torsions:
REMARK  status: ('A' for Active; 'I' for Inactive)
REMARK    1  A    between atoms: N_6  and  C_9
REMARK    2  A    between atoms: N_6  and  C_17
REMARK    3  A    between atoms: N_7  and  C_22
REMARK    4  A    between atoms: N_7  and  C_23
REMARK    5  A    between atoms: C_10  and  C_15
REMARK    6  A    between atoms: C_15  and  C_16
REMARK    7  A    between atoms: C_16  and  C_18
REMARK    8  A    between atoms: C_17  and  C_19
REMARK    9  A    between atoms: C_22  and  C_26
REMARK   10  A    between atoms: C_23  and  C_27
REMARK                            x       y       z     vdW  Elec       q    Type
REMARK                         _______ _______ _______ _____ _____    ______ ____
ROOT
ATOM      2  O   UNL     1       2.667   0.475  22.496  0.00  0.00    -0.274 OA
ATOM      4  N   UNL     1      -0.514  -0.182  24.162  0.00  0.00    -0.286 NA
ATOM      5  N   UNL     1       2.030  -1.298  23.772  0.00  0.00    -0.313 N 
ATOM      8  C   UNL     1       0.362   0.447  23.164  0.00  0.00    +0.145 C 
ATOM      9  C   UNL     1      -0.502   2.025  24.796  0.00  0.00    +0.070 C 
ATOM     10  C   UNL     1      -0.346  -1.625  24.285  0.00  0.00    +0.075 C 
ATOM     11  C   UNL     1       0.368   1.936  23.541  0.00  0.00    +0.048 C 
ATOM     12  C   UNL     1      -0.425   0.620  25.380  0.00  0.00    +0.104 C 
ATOM     13  C   UNL     1       1.092  -1.974  24.636  0.00  0.00    +0.123 C 
ATOM     14  C   UNL     1       1.783  -0.106  23.133  0.00  0.00    +0.230 C 
ATOM     29  H   UNL     1       2.976  -1.666  23.727  0.00  0.00    +0.149 HD
ENDROOT
BRANCH   9   6
ATOM      6  N   UNL     1      -0.068   3.061  25.719  0.00  0.00    -0.308 NA
ATOM     30  H   UNL     1      -0.376   2.819  26.661  0.00  0.00    +0.123 HD
BRANCH   6  17
ATOM     17  C   UNL     1      -0.633   4.355  25.357  0.00  0.00    +0.116 C 
BRANCH  17  19
ATOM      1  F   UNL     1      -6.266   4.291  25.476  0.00  0.00    -0.205 F 
ATOM     19  C   UNL     1      -2.138   4.338  25.389  0.00  0.00    -0.033 A 
ATOM     20  C   UNL     1      -2.807   4.033  26.575  0.00  0.00    +0.008 A 
ATOM     21  C   UNL     1      -2.863   4.626  24.233  0.00  0.00    +0.008 A 
ATOM     24  C   UNL     1      -4.201   4.017  26.604  0.00  0.00    +0.038 A 
ATOM     25  C   UNL     1      -4.258   4.610  24.263  0.00  0.00    +0.038 A 
ATOM     28  C   UNL     1      -4.926   4.306  25.448  0.00  0.00    +0.123 A 
ENDBRANCH  17  19
ENDBRANCH   6  17
ENDBRANCH   9   6
BRANCH  10  15
ATOM     15  C   UNL     1      -1.322  -2.254  25.280  0.00  0.00    +0.029 C 
BRANCH  15  16
ATOM     16  C   UNL     1      -2.755  -2.187  24.763  0.00  0.00    +0.097 C 
BRANCH  16  18
ATOM      3  O   UNL     1      -3.860  -1.196  26.646  0.00  0.00    -0.276 OA
ATOM      7  N   UNL     1      -3.947  -0.013  24.652  0.00  0.00    -0.302 N 
ATOM     18  C   UNL     1      -3.567  -1.098  25.452  0.00  0.00    +0.216 C 
BRANCH   7  22
ATOM     22  C   UNL     1      -3.625   0.147  23.236  0.00  0.00    +0.104 C 
ATOM     26  C   UNL     1      -3.256   1.579  22.910  0.00  0.00    +0.024 C 
ENDBRANCH   7  22
BRANCH   7  23
ATOM     23  C   UNL     1      -4.735   1.066  25.235  0.00  0.00    +0.104 C 
ATOM     27  C   UNL     1      -6.184   0.991  24.801  0.00  0.00    +0.024 C 
ENDBRANCH   7  23
ENDBRANCH  16  18
ENDBRANCH  15  16
ENDBRANCH  10  15
TORSDOF 8
ENDMDL
