MODEL 1
REMARK VINA RESULT:      -0.8      0.000      0.000
REMARK  Name = 11912177
REMARK  10 active torsions:
REMARK  status: ('A' for Active; 'I' for Inactive)
REMARK    1  A    between atoms: O_3  and  C_24
REMARK    2  A    between atoms: O_3  and  C_27
REMARK    3  A    between atoms: N_5  and  C_18
REMARK    4  A    between atoms: N_5  and  C_19
REMARK    5  A    between atoms: N_6  and  C_20
REMARK    6  A    between atoms: C_8  and  C_14
REMARK    7  A    between atoms: C_9  and  C_13
REMARK    8  A    between atoms: C_13  and  C_15
REMARK    9  A    between atoms: C_14  and  C_16
REMARK   10  A    between atoms: C_18  and  C_23
REMARK                            x       y       z     vdW  Elec       q    Type
REMARK                         _______ _______ _______ _____ _____    ______ ____
ROOT
ATOM      2  O   UNL     1      -0.409  -1.194  25.927  0.00  0.00    -0.252 OA
ATOM      4  N   UNL     1      -2.338  -1.028  24.666  0.00  0.00    -0.285 N 
ATOM      6  N   UNL     1      -0.221  -0.972  23.627  0.00  0.00    -0.269 N 
ATOM      8  C   UNL     1      -4.895   0.328  24.620  0.00  0.00    +0.004 C 
ATOM      9  C   UNL     1      -3.962   0.333  23.379  0.00  0.00    +0.010 C 
ATOM     10  C   UNL     1      -4.106   0.124  25.927  0.00  0.00    +0.023 C 
ATOM     11  C   UNL     1      -3.076  -0.923  23.398  0.00  0.00    +0.113 C 
ATOM     12  C   UNL     1      -3.198  -1.102  25.848  0.00  0.00    +0.109 C 
ATOM     17  C   UNL     1      -0.936  -1.084  24.818  0.00  0.00    +0.306 C 
ATOM     28  H   UNL     1      -0.652  -1.304  22.771  0.00  0.00    +0.156 HD
ENDROOT
BRANCH   6  20
ATOM     20  C   UNL     1       1.072  -0.421  23.448  0.00  0.00    +0.038 A 
ATOM     21  C   UNL     1       2.201  -1.219  23.626  0.00  0.00    +0.069 A 
ATOM     22  C   UNL     1       1.215   0.921  23.092  0.00  0.00    +0.023 A 
ATOM     24  C   UNL     1       3.474  -0.677  23.450  0.00  0.00    +0.122 A 
ATOM     25  C   UNL     1       2.488   1.464  22.916  0.00  0.00    +0.005 A 
ATOM     26  C   UNL     1       3.617   0.664  23.095  0.00  0.00    +0.046 A 
BRANCH  24   3
ATOM      3  O   UNL     1       4.577  -1.457  23.622  0.00  0.00    -0.495 OA
ATOM     27  C   UNL     1       5.737  -0.828  24.164  0.00  0.00    +0.277 C 
ENDBRANCH  24   3
ENDBRANCH   6  20
BRANCH   9  13
ATOM     13  C   UNL     1      -3.102   1.595  23.249  0.00  0.00    +0.002 C 
ATOM     15  C   UNL     1      -2.446   1.670  21.886  0.00  0.00    +0.004 C 
ENDBRANCH   9  13
BRANCH   8  14
ATOM     14  C   UNL     1      -5.777   1.572  24.712  0.00  0.00    +0.100 C 
BRANCH  14  16
ATOM      1  O   UNL     1      -5.557   2.471  26.923  0.00  0.00    -0.276 OA
ATOM      5  N   UNL     1      -4.445   3.593  25.224  0.00  0.00    -0.291 N 
ATOM     16  C   UNL     1      -5.261   2.574  25.729  0.00  0.00    +0.216 C 
ATOM     19  C   UNL     1      -4.109   3.694  23.810  0.00  0.00    +0.133 C 
BRANCH   5  18
ATOM     18  C   UNL     1      -3.870   4.631  26.076  0.00  0.00    +0.226 C 
BRANCH  18  23
ATOM      7  N   UNL     1      -1.414   5.187  25.346  0.00  0.00    -0.195 NA
ATOM     23  C   UNL     1      -2.501   4.940  25.667  0.00  0.00    +0.082 C 
ENDBRANCH  18  23
ENDBRANCH   5  18
ENDBRANCH  14  16
ENDBRANCH   8  14
TORSDOF 7
ENDMDL
MODEL 2
REMARK VINA RESULT:       1.6      2.417      7.819
REMARK  Name = 11912177
REMARK  10 active torsions:
REMARK  status: ('A' for Active; 'I' for Inactive)
REMARK    1  A    between atoms: O_3  and  C_24
REMARK    2  A    between atoms: O_3  and  C_27
REMARK    3  A    between atoms: N_5  and  C_18
REMARK    4  A    between atoms: N_5  and  C_19
REMARK    5  A    between atoms: N_6  and  C_20
REMARK    6  A    between atoms: C_8  and  C_14
REMARK    7  A    between atoms: C_9  and  C_13
REMARK    8  A    between atoms: C_13  and  C_15
REMARK    9  A    between atoms: C_14  and  C_16
REMARK   10  A    between atoms: C_18  and  C_23
REMARK                            x       y       z     vdW  Elec       q    Type
REMARK                         _______ _______ _______ _____ _____    ______ ____
ROOT
ATOM      2  O   UNL     1      -3.662  -1.185  23.896  0.00  0.00    -0.252 OA
ATOM      4  N   UNL     1      -1.433  -0.894  24.433  0.00  0.00    -0.285 N 
ATOM      6  N   UNL     1      -3.095   0.410  25.483  0.00  0.00    -0.269 N 
ATOM      8  C   UNL     1       1.171  -0.634  23.196  0.00  0.00    +0.004 C 
ATOM      9  C   UNL     1       0.678   0.392  24.251  0.00  0.00    +0.010 C 
ATOM     10  C   UNL     1      -0.004  -1.326  22.481  0.00  0.00    +0.023 C 
ATOM     11  C   UNL     1      -0.332  -0.283  25.193  0.00  0.00    +0.113 C 
ATOM     12  C   UNL     1      -1.000  -1.915  23.478  0.00  0.00    +0.109 C 
ATOM     17  C   UNL     1      -2.807  -0.601  24.567  0.00  0.00    +0.306 C 
ATOM     28  H   UNL     1      -2.470   0.543  26.269  0.00  0.00    +0.156 HD
ENDROOT
BRANCH   6  20
ATOM     20  C   UNL     1      -4.182   1.318  25.447  0.00  0.00    +0.038 A 
ATOM     21  C   UNL     1      -3.945   2.692  25.495  0.00  0.00    +0.069 A 
ATOM     22  C   UNL     1      -5.490   0.839  25.363  0.00  0.00    +0.023 A 
ATOM     24  C   UNL     1      -5.015   3.586  25.459  0.00  0.00    +0.122 A 
ATOM     25  C   UNL     1      -6.560   1.733  25.327  0.00  0.00    +0.005 A 
ATOM     26  C   UNL     1      -6.322   3.107  25.376  0.00  0.00    +0.046 A 
BRANCH  24   3
ATOM      3  O   UNL     1      -4.783   4.927  25.505  0.00  0.00    -0.495 OA
ATOM     27  C   UNL     1      -3.434   5.346  25.701  0.00  0.00    +0.277 C 
ENDBRANCH  24   3
ENDBRANCH   6  20
BRANCH   9  13
ATOM     13  C   UNL     1       0.080   1.669  23.650  0.00  0.00    +0.002 C 
ATOM     15  C   UNL     1      -0.290   2.662  24.732  0.00  0.00    +0.004 C 
ENDBRANCH   9  13
BRANCH   8  14
ATOM     14  C   UNL     1       2.142  -0.032  22.181  0.00  0.00    +0.100 C 
BRANCH  14  16
ATOM      1  O   UNL     1       3.539   1.818  22.784  0.00  0.00    -0.276 OA
ATOM      5  N   UNL     1       4.217  -0.280  23.505  0.00  0.00    -0.291 N 
ATOM     16  C   UNL     1       3.353   0.600  22.842  0.00  0.00    +0.216 C 
ATOM     19  C   UNL     1       3.976  -1.716  23.560  0.00  0.00    +0.133 C 
BRANCH   5  18
ATOM     18  C   UNL     1       5.424   0.175  24.190  0.00  0.00    +0.226 C 
BRANCH  18  23
ATOM      7  N   UNL     1       7.568  -0.434  22.808  0.00  0.00    -0.195 NA
ATOM     23  C   UNL     1       6.619  -0.167  23.421  0.00  0.00    +0.082 C 
ENDBRANCH  18  23
ENDBRANCH   5  18
ENDBRANCH  14  16
ENDBRANCH   8  14
TORSDOF 7
ENDMDL
MODEL 3
REMARK VINA RESULT:       2.2      2.068      3.868
REMARK  Name = 11912177
REMARK  10 active torsions:
REMARK  status: ('A' for Active; 'I' for Inactive)
REMARK    1  A    between atoms: O_3  and  C_24
REMARK    2  A    between atoms: O_3  and  C_27
REMARK    3  A    between atoms: N_5  and  C_18
REMARK    4  A    between atoms: N_5  and  C_19
REMARK    5  A    between atoms: N_6  and  C_20
REMARK    6  A    between atoms: C_8  and  C_14
REMARK    7  A    between atoms: C_9  and  C_13
REMARK    8  A    between atoms: C_13  and  C_15
REMARK    9  A    between atoms: C_14  and  C_16
REMARK   10  A    between atoms: C_18  and  C_23
REMARK                            x       y       z     vdW  Elec       q    Type
REMARK                         _______ _______ _______ _____ _____    ______ ____
ROOT
ATOM      2  O   UNL     1       0.753   4.206  23.452  0.00  0.00    -0.252 OA
ATOM      4  N   UNL     1      -0.733   3.866  25.189  0.00  0.00    -0.285 N 
ATOM      6  N   UNL     1       0.830   2.197  24.609  0.00  0.00    -0.269 N 
ATOM      8  C   UNL     1      -3.532   4.180  25.859  0.00  0.00    +0.004 C 
ATOM      9  C   UNL     1      -2.799   2.831  26.087  0.00  0.00    +0.010 C 
ATOM     10  C   UNL     1      -2.862   5.013  24.750  0.00  0.00    +0.023 C 
ATOM     11  C   UNL     1      -1.300   3.090  26.303  0.00  0.00    +0.113 C 
ATOM     12  C   UNL     1      -1.363   5.173  24.995  0.00  0.00    +0.109 C 
ATOM     17  C   UNL     1       0.332   3.473  24.351  0.00  0.00    +0.306 C 
ATOM     28  H   UNL     1       0.768   1.836  25.554  0.00  0.00    +0.156 HD
ENDROOT
BRANCH   6  20
ATOM     20  C   UNL     1       1.419   1.300  23.683  0.00  0.00    +0.038 A 
ATOM     21  C   UNL     1       2.801   1.298  23.497  0.00  0.00    +0.069 A 
ATOM     22  C   UNL     1       0.616   0.418  22.958  0.00  0.00    +0.023 A 
ATOM     24  C   UNL     1       3.381   0.414  22.586  0.00  0.00    +0.122 A 
ATOM     25  C   UNL     1       1.195  -0.465  22.048  0.00  0.00    +0.005 A 
ATOM     26  C   UNL     1       2.578  -0.466  21.862  0.00  0.00    +0.046 A 
BRANCH  24   3
ATOM      3  O   UNL     1       4.730   0.411  22.405  0.00  0.00    -0.495 OA
ATOM     27  C   UNL     1       5.535   0.060  23.530  0.00  0.00    +0.277 C 
ENDBRANCH  24   3
ENDBRANCH   6  20
BRANCH   9  13
ATOM     13  C   UNL     1      -3.011   1.808  24.965  0.00  0.00    +0.002 C 
ATOM     15  C   UNL     1      -2.091   0.616  25.132  0.00  0.00    +0.004 C 
ENDBRANCH   9  13
BRANCH   8  14
ATOM     14  C   UNL     1      -5.025   4.014  25.580  0.00  0.00    +0.100 C 
BRANCH  14  16
ATOM      1  O   UNL     1      -5.891   2.303  27.018  0.00  0.00    -0.276 OA
ATOM      5  N   UNL     1      -5.517   1.716  24.806  0.00  0.00    -0.291 N 
ATOM     16  C   UNL     1      -5.517   2.609  25.883  0.00  0.00    +0.216 C 
ATOM     19  C   UNL     1      -5.072   2.102  23.472  0.00  0.00    +0.133 C 
BRANCH   5  18
ATOM     18  C   UNL     1      -5.963   0.331  24.935  0.00  0.00    +0.226 C 
BRANCH  18  23
ATOM      7  N   UNL     1      -4.247  -1.310  23.822  0.00  0.00    -0.195 NA
ATOM     23  C   UNL     1      -5.008  -0.583  24.313  0.00  0.00    +0.082 C 
ENDBRANCH  18  23
ENDBRANCH   5  18
ENDBRANCH  14  16
ENDBRANCH   8  14
TORSDOF 7
ENDMDL
MODEL 4
REMARK VINA RESULT:       3.0      2.845      5.198
REMARK  Name = 11912177
REMARK  10 active torsions:
REMARK  status: ('A' for Active; 'I' for Inactive)
REMARK    1  A    between atoms: O_3  and  C_24
REMARK    2  A    between atoms: O_3  and  C_27
REMARK    3  A    between atoms: N_5  and  C_18
REMARK    4  A    between atoms: N_5  and  C_19
REMARK    5  A    between atoms: N_6  and  C_20
REMARK    6  A    between atoms: C_8  and  C_14
REMARK    7  A    between atoms: C_9  and  C_13
REMARK    8  A    between atoms: C_13  and  C_15
REMARK    9  A    between atoms: C_14  and  C_16
REMARK   10  A    between atoms: C_18  and  C_23
REMARK                            x       y       z     vdW  Elec       q    Type
REMARK                         _______ _______ _______ _____ _____    ______ ____
ROOT
ATOM      2  O   UNL     1      -5.384   0.493  26.092  0.00  0.00    -0.252 OA
ATOM      4  N   UNL     1      -4.849   2.287  24.736  0.00  0.00    -0.285 N 
ATOM      6  N   UNL     1      -4.641   0.078  23.935  0.00  0.00    -0.269 N 
ATOM      8  C   UNL     1      -3.414   4.800  24.780  0.00  0.00    +0.004 C 
ATOM      9  C   UNL     1      -3.160   3.751  23.665  0.00  0.00    +0.010 C 
ATOM     10  C   UNL     1      -3.949   4.147  26.068  0.00  0.00    +0.023 C 
ATOM     11  C   UNL     1      -4.422   2.895  23.467  0.00  0.00    +0.113 C 
ATOM     12  C   UNL     1      -5.160   3.259  25.785  0.00  0.00    +0.109 C 
ATOM     17  C   UNL     1      -4.997   0.907  24.997  0.00  0.00    +0.306 C 
ATOM     28  H   UNL     1      -4.746   0.430  22.990  0.00  0.00    +0.156 HD
ENDROOT
BRANCH   6  20
ATOM     20  C   UNL     1      -4.118  -1.237  24.008  0.00  0.00    +0.038 A 
ATOM     21  C   UNL     1      -2.825  -1.447  24.489  0.00  0.00    +0.069 A 
ATOM     22  C   UNL     1      -4.895  -2.321  23.600  0.00  0.00    +0.023 A 
ATOM     24  C   UNL     1      -2.310  -2.741  24.562  0.00  0.00    +0.122 A 
ATOM     25  C   UNL     1      -4.380  -3.616  23.673  0.00  0.00    +0.005 A 
ATOM     26  C   UNL     1      -3.087  -3.825  24.154  0.00  0.00    +0.046 A 
BRANCH  24   3
ATOM      3  O   UNL     1      -1.049  -2.947  25.032  0.00  0.00    -0.495 OA
ATOM     27  C   UNL     1      -0.284  -1.789  25.366  0.00  0.00    +0.277 C 
ENDBRANCH  24   3
ENDBRANCH   6  20
BRANCH   9  13
ATOM     13  C   UNL     1      -1.939   2.858  23.913  0.00  0.00    +0.002 C 
ATOM     15  C   UNL     1      -1.833   1.773  22.861  0.00  0.00    +0.004 C 
ENDBRANCH   9  13
BRANCH   8  14
ATOM     14  C   UNL     1      -2.190   5.663  25.082  0.00  0.00    +0.100 C 
BRANCH  14  16
ATOM      1  O   UNL     1      -0.043   5.169  24.141  0.00  0.00    -0.276 OA
ATOM      5  N   UNL     1      -0.737   3.841  25.912  0.00  0.00    -0.291 N 
ATOM     16  C   UNL     1      -0.892   4.881  24.989  0.00  0.00    +0.216 C 
ATOM     19  C   UNL     1      -1.755   3.521  26.905  0.00  0.00    +0.133 C 
BRANCH   5  18
ATOM     18  C   UNL     1       0.456   2.999  25.950  0.00  0.00    +0.226 C 
BRANCH  18  23
ATOM      7  N   UNL     1       1.120   2.442  28.425  0.00  0.00    -0.195 NA
ATOM     23  C   UNL     1       0.828   2.687  27.329  0.00  0.00    +0.082 C 
ENDBRANCH  18  23
ENDBRANCH   5  18
ENDBRANCH  14  16
ENDBRANCH   8  14
TORSDOF 7
ENDMDL
