MODEL 1
REMARK VINA RESULT:       8.8      0.000      0.000
REMARK  Name = 11911979
REMARK  2 active torsions:
REMARK  status: ('A' for Active; 'I' for Inactive)
REMARK    1  A    between atoms: N_4  and  C_12
REMARK    2  A    between atoms: C_20  and  C_22
REMARK                            x       y       z     vdW  Elec       q    Type
REMARK                         _______ _______ _______ _____ _____    ______ ____
ROOT
ATOM      3  O   UNL     1      -4.335  -6.886  10.475  0.00  0.00    -0.267 OA
ATOM      4  N   UNL     1      -8.416  -9.638  11.425  0.00  0.00    -0.298 NA
ATOM      5  N   UNL     1      -5.846  -8.559   9.875  0.00  0.00    -0.311 N 
ATOM      6  C   UNL     1      -8.331  -8.092   9.453  0.00  0.00    +0.024 C 
ATOM      7  C   UNL     1      -7.468 -10.373   9.233  0.00  0.00    +0.050 C 
ATOM      8  C   UNL     1      -8.241  -9.278   8.502  0.00  0.00    +0.017 C 
ATOM      9  C   UNL     1      -9.062  -8.508  10.748  0.00  0.00    +0.090 C 
ATOM     10  C   UNL     1      -8.234 -10.778  10.513  0.00  0.00    +0.094 C 
ATOM     11  C   UNL     1      -6.916  -7.562   9.719  0.00  0.00    +0.130 C 
ATOM     13  C   UNL     1      -6.067  -9.906   9.578  0.00  0.00    +0.026 A 
ATOM     16  C   UNL     1      -5.049 -10.781   9.617  0.00  0.00    +0.022 A 
ATOM     17  C   UNL     1      -4.574  -8.070  10.236  0.00  0.00    +0.260 A 
ATOM     20  C   UNL     1      -3.465  -9.084  10.303  0.00  0.00    +0.053 A 
ATOM     21  C   UNL     1      -3.728 -10.361   9.991  0.00  0.00    +0.016 A 
ENDROOT
BRANCH  20  22
ATOM      1  S   UNL     1      -1.922  -7.721  12.076  0.00  0.00    -0.088 S 
ATOM     22  C   UNL     1      -2.146  -8.694  10.690  0.00  0.00    +0.026 A 
ATOM     23  C   UNL     1      -0.943  -8.997  10.085  0.00  0.00    +0.024 A 
ATOM     24  C   UNL     1       0.188  -8.427  10.760  0.00  0.00    -0.010 A 
ATOM     25  C   UNL     1      -0.210  -7.693  11.882  0.00  0.00    +0.020 A 
ATOM     26  C   UNL     1       1.570  -8.501  10.464  0.00  0.00    +0.009 A 
ATOM     27  C   UNL     1       0.730  -7.039  12.704  0.00  0.00    +0.015 A 
ATOM     28  C   UNL     1       2.504  -7.854  11.278  0.00  0.00    +0.001 A 
ATOM     29  C   UNL     1       2.085  -7.132  12.387  0.00  0.00    +0.001 A 
ENDBRANCH  20  22
BRANCH   4  12
ATOM      2  O   UNL     1      -9.746  -9.643  15.407  0.00  0.00    -0.380 OA
ATOM     12  C   UNL     1      -9.165 -10.035  12.614  0.00  0.00    +0.061 C 
ATOM     14  C   UNL     1      -8.208 -10.483  13.723  0.00  0.00    +0.047 C 
ATOM     15  C   UNL     1     -10.049  -8.888  13.117  0.00  0.00    +0.047 C 
ATOM     18  C   UNL     1      -8.982 -10.779  15.003  0.00  0.00    +0.161 C 
ATOM     19  C   UNL     1     -10.720  -9.273  14.431  0.00  0.00    +0.161 C 
ENDBRANCH   4  12
TORSDOF 2
ENDMDL
