MODEL 1
REMARK VINA RESULT:      -1.9      0.000      0.000
REMARK  Name = 40777113
REMARK  6 active torsions:
REMARK  status: ('A' for Active; 'I' for Inactive)
REMARK    1  A    between atoms: N_5  and  C_15
REMARK    2  A    between atoms: C_9  and  C_16
REMARK    3  A    between atoms: C_10  and  C_15
REMARK    4  A    between atoms: C_18  and  C_21
REMARK    5  A    between atoms: C_19  and  C_22
REMARK    6  A    between atoms: C_20  and  C_23
REMARK                            x       y       z     vdW  Elec       q    Type
REMARK                         _______ _______ _______ _____ _____    ______ ____
ROOT
ATOM      4  N   UNL     1      -2.470  -2.239  23.578  0.00  0.00    -0.297 NA
ATOM      8  C   UNL     1      -2.724  -1.419  26.037  0.00  0.00    +0.002 C 
ATOM      9  C   UNL     1      -3.822  -0.787  25.137  0.00  0.00    +0.055 C 
ATOM     10  C   UNL     1      -1.162  -1.750  24.089  0.00  0.00    +0.074 C 
ATOM     11  C   UNL     1      -1.334  -1.072  25.465  0.00  0.00    +0.024 C 
ATOM     12  C   UNL     1      -2.889  -2.950  25.932  0.00  0.00    +0.019 C 
ATOM     13  C   UNL     1      -3.485  -1.159  23.665  0.00  0.00    +0.094 C 
ATOM     14  C   UNL     1      -2.909  -3.357  24.448  0.00  0.00    +0.085 C 
ENDROOT
BRANCH   9  16
ATOM      6  N   UNL     1      -5.383   1.021  25.660  0.00  0.00    -0.237 NA
ATOM      7  N   UNL     1      -4.725   3.338  25.617  0.00  0.00    -0.232 NA
ATOM     16  C   UNL     1      -4.124   0.695  25.304  0.00  0.00    +0.050 A 
ATOM     17  C   UNL     1      -3.123   1.622  25.090  0.00  0.00    +0.052 A 
ATOM     18  C   UNL     1      -3.485   2.941  25.262  0.00  0.00    +0.076 A 
ATOM     19  C   UNL     1      -5.612   2.341  25.796  0.00  0.00    +0.127 A 
ATOM     22  C   UNL     1      -6.994   2.742  26.187  0.00  0.00    +0.088 C 
BRANCH  18  21
ATOM      1 BR   UNL     1      -0.423   2.127  25.705  0.00  0.00    -0.050 Br
ATOM     21  C   UNL     1      -2.532   4.008  25.067  0.00  0.00    +0.014 A 
ATOM     24  C   UNL     1      -1.160   3.811  25.222  0.00  0.00    +0.027 A 
ATOM     25  C   UNL     1      -3.021   5.265  24.711  0.00  0.00    +0.011 A 
ATOM     27  C   UNL     1      -0.276   4.872  25.021  0.00  0.00    +0.016 A 
ATOM     28  C   UNL     1      -2.137   6.326  24.511  0.00  0.00    +0.001 A 
ATOM     31  C   UNL     1      -0.764   6.129  24.667  0.00  0.00    +0.001 A 
ENDBRANCH  18  21
ENDBRANCH   9  16
BRANCH  10  15
ATOM     15  C   UNL     1      -0.450  -0.838  23.088  0.00  0.00    +0.123 C 
BRANCH  15   5
ATOM      2  O   UNL     1       1.727  -0.272  21.303  0.00  0.00    -0.267 OA
ATOM      5  N   UNL     1       0.924  -0.662  23.446  0.00  0.00    -0.307 N 
ATOM     20  C   UNL     1       1.921  -0.388  22.510  0.00  0.00    +0.279 C 
ATOM     32  H   UNL     1       1.181  -0.751  24.424  0.00  0.00    +0.149 HD
BRANCH  20  23
ATOM      3  O   UNL     1       3.838  -1.328  23.686  0.00  0.00    -0.458 OA
ATOM     23  C   UNL     1       3.304  -0.260  23.039  0.00  0.00    +0.189 A 
ATOM     26  C   UNL     1       4.201   0.782  23.002  0.00  0.00    +0.054 A 
ATOM     29  C   UNL     1       5.362   0.323  23.669  0.00  0.00    +0.042 A 
ATOM     30  C   UNL     1       5.091  -0.966  24.066  0.00  0.00    +0.196 A 
ENDBRANCH  20  23
ENDBRANCH  15   5
ENDBRANCH  10  15
TORSDOF 5
ENDMDL
MODEL 2
REMARK VINA RESULT:       1.5      1.580      5.027
REMARK  Name = 40777113
REMARK  6 active torsions:
REMARK  status: ('A' for Active; 'I' for Inactive)
REMARK    1  A    between atoms: N_5  and  C_15
REMARK    2  A    between atoms: C_9  and  C_16
REMARK    3  A    between atoms: C_10  and  C_15
REMARK    4  A    between atoms: C_18  and  C_21
REMARK    5  A    between atoms: C_19  and  C_22
REMARK    6  A    between atoms: C_20  and  C_23
REMARK                            x       y       z     vdW  Elec       q    Type
REMARK                         _______ _______ _______ _____ _____    ______ ____
ROOT
ATOM      4  N   UNL     1       0.395   3.128  25.204  0.00  0.00    -0.297 NA
ATOM      8  C   UNL     1      -1.853   4.212  24.458  0.00  0.00    +0.002 C 
ATOM      9  C   UNL     1      -2.098   3.177  25.591  0.00  0.00    +0.055 C 
ATOM     10  C   UNL     1       0.269   3.070  23.723  0.00  0.00    +0.074 C 
ATOM     11  C   UNL     1      -1.140   3.517  23.279  0.00  0.00    +0.024 C 
ATOM     12  C   UNL     1      -0.876   5.266  25.021  0.00  0.00    +0.019 C 
ATOM     13  C   UNL     1      -0.755   2.434  25.839  0.00  0.00    +0.094 C 
ATOM     14  C   UNL     1       0.355   4.554  25.608  0.00  0.00    +0.085 C 
ENDROOT
BRANCH   9  16
ATOM      6  N   UNL     1      -4.495   2.711  25.727  0.00  0.00    -0.237 NA
ATOM      7  N   UNL     1      -5.412   0.544  25.208  0.00  0.00    -0.232 NA
ATOM     16  C   UNL     1      -3.270   2.218  25.447  0.00  0.00    +0.050 A 
ATOM     17  C   UNL     1      -3.041   0.917  25.046  0.00  0.00    +0.052 A 
ATOM     18  C   UNL     1      -4.160   0.118  24.944  0.00  0.00    +0.076 A 
ATOM     19  C   UNL     1      -5.506   1.832  25.589  0.00  0.00    +0.127 A 
ATOM     22  C   UNL     1      -6.875   2.339  25.893  0.00  0.00    +0.088 C 
BRANCH  18  21
ATOM      1 BR   UNL     1      -1.490  -1.378  25.877  0.00  0.00    -0.050 Br
ATOM     21  C   UNL     1      -4.055  -1.263  24.536  0.00  0.00    +0.014 A 
ATOM     24  C   UNL     1      -2.952  -2.050  24.866  0.00  0.00    +0.027 A 
ATOM     25  C   UNL     1      -5.102  -1.806  23.791  0.00  0.00    +0.011 A 
ATOM     27  C   UNL     1      -2.896  -3.382  24.451  0.00  0.00    +0.016 A 
ATOM     28  C   UNL     1      -5.046  -3.137  23.375  0.00  0.00    +0.001 A 
ATOM     31  C   UNL     1      -3.942  -3.925  23.706  0.00  0.00    +0.001 A 
ENDBRANCH  18  21
ENDBRANCH   9  16
BRANCH  10  15
ATOM     15  C   UNL     1       0.635   1.695  23.161  0.00  0.00    +0.123 C 
BRANCH  15   5
ATOM      2  O   UNL     1       2.325  -0.197  21.814  0.00  0.00    -0.267 OA
ATOM      5  N   UNL     1       1.971   1.334  23.523  0.00  0.00    -0.307 N 
ATOM     20  C   UNL     1       2.724   0.401  22.810  0.00  0.00    +0.279 C 
ATOM     32  H   UNL     1       2.381   1.772  24.342  0.00  0.00    +0.149 HD
BRANCH  20  23
ATOM      3  O   UNL     1       4.348  -1.144  23.766  0.00  0.00    -0.458 OA
ATOM     23  C   UNL     1       4.085   0.116  23.332  0.00  0.00    +0.189 A 
ATOM     26  C   UNL     1       5.195   0.917  23.470  0.00  0.00    +0.054 A 
ATOM     29  C   UNL     1       6.205   0.095  24.025  0.00  0.00    +0.042 A 
ATOM     30  C   UNL     1       5.640  -1.149  24.186  0.00  0.00    +0.196 A 
ENDBRANCH  20  23
ENDBRANCH  15   5
ENDBRANCH  10  15
TORSDOF 5
ENDMDL
