MODEL 1
REMARK VINA RESULT:       7.6      0.000      0.000
REMARK  Name = 7675083
REMARK  6 active torsions:
REMARK  status: ('A' for Active; 'I' for Inactive)
REMARK    1  A    between atoms: S_1  and  N_8
REMARK    2  A    between atoms: S_1  and  C_22
REMARK    3  A    between atoms: N_10  and  C_18
REMARK    4  A    between atoms: C_13  and  C_17
REMARK    5  A    between atoms: C_21  and  C_25
REMARK    6  A    between atoms: C_35  and  C_36
REMARK                            x       y       z     vdW  Elec       q    Type
REMARK                         _______ _______ _______ _____ _____    ______ ____
ROOT
ATOM      6  O   UNL     1       1.163  -0.489  20.781  0.00  0.00    -0.270 OA
ATOM      8  N   UNL     1      -2.002  -0.608  24.736  0.00  0.00    -0.162 NA
ATOM      9  N   UNL     1       0.237  -0.727  22.914  0.00  0.00    -0.294 N 
ATOM     13  C   UNL     1      -2.208  -0.376  23.280  0.00  0.00    +0.183 C 
ATOM     14  C   UNL     1      -1.112  -0.985  22.410  0.00  0.00    +0.138 C 
ATOM     15  C   UNL     1      -0.782  -1.385  25.081  0.00  0.00    +0.129 C 
ATOM     16  C   UNL     1       0.417  -0.774  24.370  0.00  0.00    +0.125 C 
ATOM     21  C   UNL     1       1.281  -0.533  22.004  0.00  0.00    +0.247 C 
ENDROOT
BRANCH  21  25
ATOM     25  C   UNL     1       2.641  -0.368  22.540  0.00  0.00    +0.037 A 
ATOM     28  C   UNL     1       3.240  -1.404  23.257  0.00  0.00    +0.014 A 
ATOM     29  C   UNL     1       3.333   0.825  22.331  0.00  0.00    +0.014 A 
ATOM     33  C   UNL     1       4.529  -1.248  23.763  0.00  0.00    +0.019 A 
ATOM     34  C   UNL     1       4.623   0.982  22.837  0.00  0.00    +0.019 A 
ATOM     35  C   UNL     1       5.222  -0.055  23.554  0.00  0.00    +0.052 A 
BRANCH  35  36
ATOM     12  N   UNL     1       7.616   0.235  24.494  0.00  0.00    -0.191 NA
ATOM     36  C   UNL     1       6.543   0.105  24.073  0.00  0.00    +0.099 C 
ENDBRANCH  35  36
ENDBRANCH  21  25
BRANCH  13  17
ATOM      3  O   UNL     1      -3.071   1.677  22.427  0.00  0.00    -0.274 OA
ATOM     10  N   UNL     1      -1.257   1.734  23.885  0.00  0.00    -0.303 N 
ATOM     17  C   UNL     1      -2.247   1.113  23.144  0.00  0.00    +0.234 C 
ATOM     37  H   UNL     1      -0.648   1.167  24.470  0.00  0.00    +0.149 HD
BRANCH  10  18
ATOM      7  O   UNL     1       0.449   2.779  25.747  0.00  0.00    -0.274 OA
ATOM     11  N   UNL     1      -0.656   4.778  25.724  0.00  0.00    -0.314 N 
ATOM     18  C   UNL     1      -1.068   3.162  23.908  0.00  0.00    +0.159 C 
ATOM     19  C   UNL     1      -2.384   3.887  23.668  0.00  0.00    +0.033 C 
ATOM     20  C   UNL     1      -2.187   5.381  23.871  0.00  0.00    +0.021 C 
ATOM     23  C   UNL     1      -0.382   3.522  25.221  0.00  0.00    +0.233 C 
ATOM     24  C   UNL     1      -1.750   5.632  25.302  0.00  0.00    +0.104 C 
ATOM     38  H   UNL     1      -0.161   5.052  26.567  0.00  0.00    +0.149 HD
ENDBRANCH  10  18
ENDBRANCH  13  17
BRANCH   8   1
ATOM      1  S   UNL     1      -3.396  -0.940  25.669  0.00  0.00    +0.062 S 
ATOM      4  O   UNL     1      -3.001  -1.167  27.043  0.00  0.00    -0.153 OA
ATOM      5  O   UNL     1      -4.218  -1.899  24.961  0.00  0.00    -0.153 OA
BRANCH   1  22
ATOM      2  F   UNL     1      -6.084   4.299  25.409  0.00  0.00    -0.205 F 
ATOM     22  C   UNL     1      -4.201   0.629  25.590  0.00  0.00    +0.106 A 
ATOM     26  C   UNL     1      -5.476   0.732  25.034  0.00  0.00    +0.031 A 
ATOM     27  C   UNL     1      -3.563   1.766  26.087  0.00  0.00    +0.031 A 
ATOM     30  C   UNL     1      -6.111   1.971  24.972  0.00  0.00    +0.040 A 
ATOM     31  C   UNL     1      -4.199   3.006  26.025  0.00  0.00    +0.040 A 
ATOM     32  C   UNL     1      -5.474   3.108  25.468  0.00  0.00    +0.124 A 
ENDBRANCH   1  22
ENDBRANCH   8   1
TORSDOF 6
ENDMDL
MODEL 2
REMARK VINA RESULT:       9.3      1.200      1.354
REMARK  Name = 7675083
REMARK  6 active torsions:
REMARK  status: ('A' for Active; 'I' for Inactive)
REMARK    1  A    between atoms: S_1  and  N_8
REMARK    2  A    between atoms: S_1  and  C_22
REMARK    3  A    between atoms: N_10  and  C_18
REMARK    4  A    between atoms: C_13  and  C_17
REMARK    5  A    between atoms: C_21  and  C_25
REMARK    6  A    between atoms: C_35  and  C_36
REMARK                            x       y       z     vdW  Elec       q    Type
REMARK                         _______ _______ _______ _____ _____    ______ ____
ROOT
ATOM      6  O   UNL     1       1.107   0.049  21.108  0.00  0.00    -0.270 OA
ATOM      8  N   UNL     1      -1.727  -0.926  25.195  0.00  0.00    -0.162 NA
ATOM      9  N   UNL     1       0.350  -0.658  23.205  0.00  0.00    -0.294 N 
ATOM     13  C   UNL     1      -2.043  -0.363  23.853  0.00  0.00    +0.183 C 
ATOM     14  C   UNL     1      -1.043  -0.774  22.775  0.00  0.00    +0.138 C 
ATOM     15  C   UNL     1      -0.510  -1.778  25.247  0.00  0.00    +0.129 C 
ATOM     16  C   UNL     1       0.647  -1.039  24.591  0.00  0.00    +0.125 C 
ATOM     21  C   UNL     1       1.323  -0.276  22.275  0.00  0.00    +0.247 C 
ENDROOT
BRANCH  21  25
ATOM     25  C   UNL     1       2.727  -0.258  22.714  0.00  0.00    +0.037 A 
ATOM     28  C   UNL     1       3.283  -1.384  23.322  0.00  0.00    +0.014 A 
ATOM     29  C   UNL     1       3.503   0.885  22.521  0.00  0.00    +0.014 A 
ATOM     33  C   UNL     1       4.614  -1.367  23.736  0.00  0.00    +0.019 A 
ATOM     34  C   UNL     1       4.834   0.903  22.935  0.00  0.00    +0.019 A 
ATOM     35  C   UNL     1       5.391  -0.224  23.543  0.00  0.00    +0.052 A 
BRANCH  35  36
ATOM     12  N   UNL     1       7.863  -0.192  24.311  0.00  0.00    -0.191 NA
ATOM     36  C   UNL     1       6.755  -0.206  23.967  0.00  0.00    +0.099 C 
ENDBRANCH  35  36
ENDBRANCH  21  25
BRANCH  13  17
ATOM      3  O   UNL     1      -2.741   1.868  23.385  0.00  0.00    -0.274 OA
ATOM     10  N   UNL     1      -1.166   1.506  25.061  0.00  0.00    -0.303 N 
ATOM     17  C   UNL     1      -2.042   1.117  24.062  0.00  0.00    +0.234 C 
ATOM     37  H   UNL     1      -0.660   0.793  25.579  0.00  0.00    +0.149 HD
BRANCH  10  18
ATOM      7  O   UNL     1      -3.145   2.758  26.470  0.00  0.00    -0.274 OA
ATOM     11  N   UNL     1      -2.491   4.802  25.687  0.00  0.00    -0.314 N 
ATOM     18  C   UNL     1      -0.964   2.881  25.441  0.00  0.00    +0.159 C 
ATOM     19  C   UNL     1      -0.292   3.660  24.320  0.00  0.00    +0.033 C 
ATOM     20  C   UNL     1      -0.252   5.137  24.679  0.00  0.00    +0.021 C 
ATOM     23  C   UNL     1      -2.310   3.447  25.881  0.00  0.00    +0.233 C 
ATOM     24  C   UNL     1      -1.672   5.646  24.838  0.00  0.00    +0.104 C 
ATOM     38  H   UNL     1      -3.359   5.202  26.030  0.00  0.00    +0.149 HD
ENDBRANCH  10  18
ENDBRANCH  13  17
BRANCH   8   1
ATOM      1  S   UNL     1      -3.050  -1.441  26.146  0.00  0.00    +0.062 S 
ATOM      4  O   UNL     1      -2.777  -1.143  27.536  0.00  0.00    -0.153 OA
ATOM      5  O   UNL     1      -3.436  -2.774  25.732  0.00  0.00    -0.153 OA
BRANCH   1  22
ATOM      2  F   UNL     1      -7.194   2.311  24.277  0.00  0.00    -0.205 F 
ATOM     22  C   UNL     1      -4.291  -0.317  25.586  0.00  0.00    +0.106 A 
ATOM     26  C   UNL     1      -4.836  -0.460  24.310  0.00  0.00    +0.031 A 
ATOM     27  C   UNL     1      -4.726   0.712  26.420  0.00  0.00    +0.031 A 
ATOM     30  C   UNL     1      -5.816   0.428  23.868  0.00  0.00    +0.040 A 
ATOM     31  C   UNL     1      -5.707   1.601  25.977  0.00  0.00    +0.040 A 
ATOM     32  C   UNL     1      -6.252   1.458  24.701  0.00  0.00    +0.124 A 
ENDBRANCH   1  22
ENDBRANCH   8   1
TORSDOF 6
ENDMDL
