MODEL 1
REMARK VINA RESULT:      10.5      0.000      0.000
REMARK  Name = 11885076
REMARK  15 active torsions:
REMARK  status: ('A' for Active; 'I' for Inactive)
REMARK    1  A    between atoms: O_2  and  C_14
REMARK    2  A    between atoms: O_3  and  C_19
REMARK    3  A    between atoms: N_7  and  C_25
REMARK    4  A    between atoms: N_7  and  C_26
REMARK    5  A    between atoms: C_9  and  C_17
REMARK    6  A    between atoms: C_11  and  C_19
REMARK    7  A    between atoms: C_11  and  C_20
REMARK    8  A    between atoms: C_12  and  C_22
REMARK    9  A    between atoms: C_22  and  C_23
REMARK   10  A    between atoms: C_25  and  C_28
REMARK   11  A    between atoms: C_27  and  C_29
REMARK   12  A    between atoms: C_29  and  C_30
REMARK   13  A    between atoms: C_30  and  C_33
REMARK   14  A    between atoms: C_33  and  C_37
REMARK   15  A    between atoms: C_37  and  C_38
REMARK                            x       y       z     vdW  Elec       q    Type
REMARK                         _______ _______ _______ _____ _____    ______ ____
ROOT
ATOM      1  S   UNL     1      -0.971  -1.214  23.601  0.00  0.00    -0.057 S 
ATOM      5  O   UNL     1       2.986   1.225  23.248  0.00  0.00    -0.275 OA
ATOM      6  N   UNL     1       0.094   1.125  23.902  0.00  0.00    -0.229 NA
ATOM      8  N   UNL     1       1.547  -0.642  23.142  0.00  0.00    -0.265 N 
ATOM      9  C   UNL     1      -3.434   2.497  24.633  0.00  0.00    -0.019 C 
ATOM     10  C   UNL     1      -3.921   1.123  25.273  0.00  0.00    +0.011 C 
ATOM     11  C   UNL     1      -5.440   1.024  25.688  0.00  0.00    +0.021 C 
ATOM     12  C   UNL     1      -1.838   2.534  24.702  0.00  0.00    +0.054 C 
ATOM     13  C   UNL     1      -3.988   3.679  25.468  0.00  0.00    +0.010 C 
ATOM     14  C   UNL     1      -5.840   2.305  26.474  0.00  0.00    +0.123 C 
ATOM     15  C   UNL     1      -3.415  -0.099  24.452  0.00  0.00    +0.049 C 
ATOM     16  C   UNL     1      -5.483   3.595  25.743  0.00  0.00    +0.032 C 
ATOM     17  C   UNL     1      -3.889   2.669  23.163  0.00  0.00    +0.012 C 
ATOM     18  C   UNL     1      -1.244   1.232  24.232  0.00  0.00    +0.058 A 
ATOM     20  C   UNL     1      -5.626  -0.184  26.649  0.00  0.00    +0.016 C 
ATOM     21  C   UNL     1      -1.964   0.059  24.144  0.00  0.00    +0.015 A 
ATOM     24  C   UNL     1       0.349  -0.116  23.548  0.00  0.00    +0.165 A 
ATOM     27  C   UNL     1       2.773   0.040  23.017  0.00  0.00    +0.219 C 
ATOM     41  H   UNL     1       1.525  -1.632  22.912  0.00  0.00    +0.157 HD
ENDROOT
BRANCH  14   2
ATOM      2  O   UNL     1      -7.240   2.308  26.752  0.00  0.00    -0.391 OA
ATOM     39  H   UNL     1      -7.615   1.491  26.384  0.00  0.00    +0.210 HD
ENDBRANCH  14   2
BRANCH  11  19
ATOM     19  C   UNL     1      -6.410   0.773  24.513  0.00  0.00    +0.165 C 
BRANCH  19   3
ATOM      3  O   UNL     1      -7.309   1.858  24.455  0.00  0.00    -0.394 OA
ATOM     40  H   UNL     1      -7.173   2.389  25.258  0.00  0.00    +0.209 HD
ENDBRANCH  19   3
ENDBRANCH  11  19
BRANCH  12  22
ATOM     22  C   UNL     1      -1.197   3.734  23.992  0.00  0.00    +0.106 C 
BRANCH  22  23
ATOM      4  O   UNL     1      -0.043   5.702  24.729  0.00  0.00    -0.276 OA
ATOM      7  N   UNL     1       0.355   3.747  25.912  0.00  0.00    -0.300 N 
ATOM     23  C   UNL     1      -0.250   4.496  24.897  0.00  0.00    +0.216 C 
ATOM     26  C   UNL     1       0.096   2.324  26.092  0.00  0.00    +0.132 C 
BRANCH   7  25
ATOM     25  C   UNL     1       1.291   4.334  26.868  0.00  0.00    +0.142 C 
BRANCH  25  28
ATOM     28  C   UNL     1       1.533   3.431  28.044  0.00  0.00    -0.030 A 
ATOM     31  C   UNL     1       0.463   3.008  28.831  0.00  0.00    +0.005 A 
ATOM     32  C   UNL     1       2.830   3.013  28.346  0.00  0.00    +0.005 A 
ATOM     34  C   UNL     1       0.688   2.169  29.922  0.00  0.00    +0.000 A 
ATOM     35  C   UNL     1       3.055   2.174  29.437  0.00  0.00    +0.000 A 
ATOM     36  C   UNL     1       1.984   1.752  30.225  0.00  0.00    +0.000 A 
ENDBRANCH  25  28
ENDBRANCH   7  25
ENDBRANCH  22  23
ENDBRANCH  12  22
BRANCH  27  29
ATOM     29  C   UNL     1       3.875  -0.896  22.539  0.00  0.00    +0.096 C 
BRANCH  29  30
ATOM     30  C   UNL     1       4.565  -1.629  23.687  0.00  0.00    +0.009 C 
BRANCH  30  33
ATOM     33  C   UNL     1       5.509  -0.701  24.452  0.00  0.00    +0.000 C 
BRANCH  33  37
ATOM     37  C   UNL     1       6.281   0.215  23.502  0.00  0.00    -0.003 C 
ATOM     38  C   UNL     1       7.529  -0.467  22.964  0.00  0.00    +0.004 C 
ENDBRANCH  33  37
ENDBRANCH  30  33
ENDBRANCH  29  30
ENDBRANCH  27  29
TORSDOF 11
ENDMDL
MODEL 2
REMARK VINA RESULT:      10.7      2.840      4.419
REMARK  Name = 11885076
REMARK  15 active torsions:
REMARK  status: ('A' for Active; 'I' for Inactive)
REMARK    1  A    between atoms: O_2  and  C_14
REMARK    2  A    between atoms: O_3  and  C_19
REMARK    3  A    between atoms: N_7  and  C_25
REMARK    4  A    between atoms: N_7  and  C_26
REMARK    5  A    between atoms: C_9  and  C_17
REMARK    6  A    between atoms: C_11  and  C_19
REMARK    7  A    between atoms: C_11  and  C_20
REMARK    8  A    between atoms: C_12  and  C_22
REMARK    9  A    between atoms: C_22  and  C_23
REMARK   10  A    between atoms: C_25  and  C_28
REMARK   11  A    between atoms: C_27  and  C_29
REMARK   12  A    between atoms: C_29  and  C_30
REMARK   13  A    between atoms: C_30  and  C_33
REMARK   14  A    between atoms: C_33  and  C_37
REMARK   15  A    between atoms: C_37  and  C_38
REMARK                            x       y       z     vdW  Elec       q    Type
REMARK                         _______ _______ _______ _____ _____    ______ ____
ROOT
ATOM      1  S   UNL     1       0.559   2.259  25.161  0.00  0.00    -0.057 S 
ATOM      5  O   UNL     1       1.467  -0.128  21.262  0.00  0.00    -0.275 OA
ATOM      6  N   UNL     1      -0.483   1.264  23.011  0.00  0.00    -0.229 NA
ATOM      8  N   UNL     1       1.886   0.943  23.322  0.00  0.00    -0.265 N 
ATOM      9  C   UNL     1      -3.944   2.285  24.370  0.00  0.00    -0.019 C 
ATOM     10  C   UNL     1      -3.355   3.542  25.148  0.00  0.00    +0.011 C 
ATOM     11  C   UNL     1      -4.355   4.354  26.058  0.00  0.00    +0.021 C 
ATOM     12  C   UNL     1      -2.916   1.897  23.209  0.00  0.00    +0.054 C 
ATOM     13  C   UNL     1      -5.296   2.670  23.717  0.00  0.00    +0.010 C 
ATOM     14  C   UNL     1      -5.669   4.614  25.269  0.00  0.00    +0.123 C 
ATOM     15  C   UNL     1      -2.008   3.198  25.848  0.00  0.00    +0.049 C 
ATOM     16  C   UNL     1      -6.271   3.347  24.670  0.00  0.00    +0.032 C 
ATOM     17  C   UNL     1      -4.166   1.059  25.289  0.00  0.00    +0.012 C 
ATOM     18  C   UNL     1      -1.500   1.868  23.725  0.00  0.00    +0.058 A 
ATOM     20  C   UNL     1      -3.731   5.741  26.386  0.00  0.00    +0.016 C 
ATOM     21  C   UNL     1      -1.111   2.472  24.903  0.00  0.00    +0.015 A 
ATOM     24  C   UNL     1       0.645   1.402  23.675  0.00  0.00    +0.165 A 
ATOM     27  C   UNL     1       2.223   0.220  22.161  0.00  0.00    +0.219 C 
ATOM     41  H   UNL     1       2.628   1.160  23.982  0.00  0.00    +0.157 HD
ENDROOT
BRANCH  14   2
ATOM      2  O   UNL     1      -6.645   5.233  26.106  0.00  0.00    -0.391 OA
ATOM     39  H   UNL     1      -6.684   4.729  26.936  0.00  0.00    +0.210 HD
ENDBRANCH  14   2
BRANCH  11  19
ATOM     19  C   UNL     1      -4.653   3.700  27.425  0.00  0.00    +0.165 C 
BRANCH  19   3
ATOM      3  O   UNL     1      -5.748   2.828  27.257  0.00  0.00    -0.394 OA
ATOM     40  H   UNL     1      -5.398   1.922  27.251  0.00  0.00    +0.209 HD
ENDBRANCH  19   3
ENDBRANCH  11  19
BRANCH  12  22
ATOM     22  C   UNL     1      -3.265   0.610  22.452  0.00  0.00    +0.106 C 
BRANCH  22  23
ATOM      4  O   UNL     1      -1.501  -0.885  23.089  0.00  0.00    -0.276 OA
ATOM      7  N   UNL     1      -3.642  -1.425  23.798  0.00  0.00    -0.300 N 
ATOM     23  C   UNL     1      -2.707  -0.625  23.133  0.00  0.00    +0.216 C 
ATOM     26  C   UNL     1      -5.062  -1.099  23.838  0.00  0.00    +0.132 C 
BRANCH   7  25
ATOM     25  C   UNL     1      -3.267  -2.647  24.505  0.00  0.00    +0.142 C 
BRANCH  25  28
ATOM     28  C   UNL     1      -1.939  -2.512  25.195  0.00  0.00    -0.030 A 
ATOM     31  C   UNL     1      -0.898  -3.385  24.881  0.00  0.00    +0.005 A 
ATOM     32  C   UNL     1      -1.748  -1.512  26.149  0.00  0.00    +0.005 A 
ATOM     34  C   UNL     1       0.334  -3.260  25.521  0.00  0.00    +0.000 A 
ATOM     35  C   UNL     1      -0.515  -1.386  26.789  0.00  0.00    +0.000 A 
ATOM     36  C   UNL     1       0.526  -2.261  26.475  0.00  0.00    +0.000 A 
ENDBRANCH  25  28
ENDBRANCH   7  25
ENDBRANCH  22  23
ENDBRANCH  12  22
BRANCH  27  29
ATOM     29  C   UNL     1       3.711  -0.106  22.130  0.00  0.00    +0.096 C 
BRANCH  29  30
ATOM     30  C   UNL     1       4.556   0.931  22.867  0.00  0.00    +0.009 C 
BRANCH  30  33
ATOM     33  C   UNL     1       5.805   0.297  23.480  0.00  0.00    +0.000 C 
BRANCH  33  37
ATOM     37  C   UNL     1       5.439  -0.719  24.562  0.00  0.00    -0.003 C 
ATOM     38  C   UNL     1       4.688  -1.906  23.979  0.00  0.00    +0.004 C 
ENDBRANCH  33  37
ENDBRANCH  30  33
ENDBRANCH  29  30
ENDBRANCH  27  29
TORSDOF 11
ENDMDL
MODEL 3
REMARK VINA RESULT:      11.3      2.530      4.228
REMARK  Name = 11885076
REMARK  15 active torsions:
REMARK  status: ('A' for Active; 'I' for Inactive)
REMARK    1  A    between atoms: O_2  and  C_14
REMARK    2  A    between atoms: O_3  and  C_19
REMARK    3  A    between atoms: N_7  and  C_25
REMARK    4  A    between atoms: N_7  and  C_26
REMARK    5  A    between atoms: C_9  and  C_17
REMARK    6  A    between atoms: C_11  and  C_19
REMARK    7  A    between atoms: C_11  and  C_20
REMARK    8  A    between atoms: C_12  and  C_22
REMARK    9  A    between atoms: C_22  and  C_23
REMARK   10  A    between atoms: C_25  and  C_28
REMARK   11  A    between atoms: C_27  and  C_29
REMARK   12  A    between atoms: C_29  and  C_30
REMARK   13  A    between atoms: C_30  and  C_33
REMARK   14  A    between atoms: C_33  and  C_37
REMARK   15  A    between atoms: C_37  and  C_38
REMARK                            x       y       z     vdW  Elec       q    Type
REMARK                         _______ _______ _______ _____ _____    ______ ____
ROOT
ATOM      1  S   UNL     1       1.978  -1.567  22.360  0.00  0.00    -0.057 S 
ATOM      5  O   UNL     1       5.318   1.309  23.876  0.00  0.00    -0.275 OA
ATOM      6  N   UNL     1       2.475   0.464  23.884  0.00  0.00    -0.229 NA
ATOM      8  N   UNL     1       4.339  -0.468  22.673  0.00  0.00    -0.265 N 
ATOM      9  C   UNL     1      -1.318   0.754  24.517  0.00  0.00    -0.019 C 
ATOM     10  C   UNL     1      -1.543  -0.815  24.359  0.00  0.00    +0.011 C 
ATOM     11  C   UNL     1      -3.033  -1.332  24.404  0.00  0.00    +0.021 C 
ATOM     12  C   UNL     1       0.220   0.996  24.880  0.00  0.00    +0.054 C 
ATOM     13  C   UNL     1      -2.186   1.284  25.686  0.00  0.00    +0.010 C 
ATOM     14  C   UNL     1      -3.769  -0.670  25.603  0.00  0.00    +0.123 C 
ATOM     15  C   UNL     1      -0.714  -1.392  23.175  0.00  0.00    +0.049 C 
ATOM     16  C   UNL     1      -3.643   0.850  25.620  0.00  0.00    +0.032 C 
ATOM     17  C   UNL     1      -1.674   1.544  23.234  0.00  0.00    +0.012 C 
ATOM     18  C   UNL     1       1.123   0.193  23.980  0.00  0.00    +0.058 A 
ATOM     20  C   UNL     1      -3.029  -2.867  24.655  0.00  0.00    +0.016 C 
ATOM     21  C   UNL     1       0.687  -0.885  23.238  0.00  0.00    +0.015 A 
ATOM     24  C   UNL     1       3.025  -0.395  23.053  0.00  0.00    +0.165 A 
ATOM     27  C   UNL     1       5.391   0.367  23.094  0.00  0.00    +0.219 C 
ATOM     41  H   UNL     1       4.554  -1.214  22.015  0.00  0.00    +0.157 HD
ENDROOT
BRANCH  14   2
ATOM      2  O   UNL     1      -5.153  -1.015  25.597  0.00  0.00    -0.391 OA
ATOM     39  H   UNL     1      -5.663  -0.188  25.613  0.00  0.00    +0.210 HD
ENDBRANCH  14   2
BRANCH  11  19
ATOM     19  C   UNL     1      -3.822  -1.128  23.092  0.00  0.00    +0.165 C 
BRANCH  19   3
ATOM      3  O   UNL     1      -4.666  -2.244  22.918  0.00  0.00    -0.394 OA
ATOM     40  H   UNL     1      -4.104  -3.037  22.939  0.00  0.00    +0.209 HD
ENDBRANCH  19   3
ENDBRANCH  11  19
BRANCH  12  22
ATOM     22  C   UNL     1       0.639   2.472  24.924  0.00  0.00    +0.106 C 
BRANCH  22  23
ATOM      4  O   UNL     1      -0.858   3.118  26.682  0.00  0.00    -0.276 OA
ATOM      7  N   UNL     1      -0.868   4.421  24.763  0.00  0.00    -0.300 N 
ATOM     23  C   UNL     1      -0.426   3.351  25.549  0.00  0.00    +0.216 C 
ATOM     26  C   UNL     1      -0.343   4.678  23.428  0.00  0.00    +0.132 C 
BRANCH   7  25
ATOM     25  C   UNL     1      -1.888   5.362  25.220  0.00  0.00    +0.142 C 
BRANCH  25  28
ATOM     28  C   UNL     1      -3.236   4.712  25.344  0.00  0.00    -0.030 A 
ATOM     31  C   UNL     1      -3.805   4.519  26.603  0.00  0.00    +0.005 A 
ATOM     32  C   UNL     1      -3.921   4.304  24.199  0.00  0.00    +0.005 A 
ATOM     34  C   UNL     1      -5.057   3.917  26.718  0.00  0.00    +0.000 A 
ATOM     35  C   UNL     1      -5.174   3.702  24.314  0.00  0.00    +0.000 A 
ATOM     36  C   UNL     1      -5.742   3.509  25.574  0.00  0.00    +0.000 A 
ENDBRANCH  25  28
ENDBRANCH   7  25
ENDBRANCH  22  23
ENDBRANCH  12  22
BRANCH  27  29
ATOM     29  C   UNL     1       6.708  -0.039  22.447  0.00  0.00    +0.096 C 
BRANCH  29  30
ATOM     30  C   UNL     1       7.762  -0.460  23.469  0.00  0.00    +0.009 C 
BRANCH  30  33
ATOM     33  C   UNL     1       9.148  -0.557  22.831  0.00  0.00    +0.000 C 
BRANCH  33  37
ATOM     37  C   UNL     1       9.898   0.772  22.926  0.00  0.00    -0.003 C 
ATOM     38  C   UNL     1       9.790   1.373  24.318  0.00  0.00    +0.004 C 
ENDBRANCH  33  37
ENDBRANCH  30  33
ENDBRANCH  29  30
ENDBRANCH  27  29
TORSDOF 11
ENDMDL
MODEL 4
REMARK VINA RESULT:      13.9      2.561      5.512
REMARK  Name = 11885076
REMARK  15 active torsions:
REMARK  status: ('A' for Active; 'I' for Inactive)
REMARK    1  A    between atoms: O_2  and  C_14
REMARK    2  A    between atoms: O_3  and  C_19
REMARK    3  A    between atoms: N_7  and  C_25
REMARK    4  A    between atoms: N_7  and  C_26
REMARK    5  A    between atoms: C_9  and  C_17
REMARK    6  A    between atoms: C_11  and  C_19
REMARK    7  A    between atoms: C_11  and  C_20
REMARK    8  A    between atoms: C_12  and  C_22
REMARK    9  A    between atoms: C_22  and  C_23
REMARK   10  A    between atoms: C_25  and  C_28
REMARK   11  A    between atoms: C_27  and  C_29
REMARK   12  A    between atoms: C_29  and  C_30
REMARK   13  A    between atoms: C_30  and  C_33
REMARK   14  A    between atoms: C_33  and  C_37
REMARK   15  A    between atoms: C_37  and  C_38
REMARK                            x       y       z     vdW  Elec       q    Type
REMARK                         _______ _______ _______ _____ _____    ______ ____
ROOT
ATOM      1  S   UNL     1       1.456   3.441  23.118  0.00  0.00    -0.057 S 
ATOM      5  O   UNL     1       3.286  -0.799  23.750  0.00  0.00    -0.275 OA
ATOM      6  N   UNL     1       1.043   1.102  24.144  0.00  0.00    -0.229 NA
ATOM      8  N   UNL     1       3.150   1.442  23.023  0.00  0.00    -0.265 N 
ATOM      9  C   UNL     1      -2.216   2.487  25.669  0.00  0.00    -0.019 C 
ATOM     10  C   UNL     1      -2.434   3.512  24.470  0.00  0.00    +0.011 C 
ATOM     11  C   UNL     1      -3.642   4.518  24.599  0.00  0.00    +0.021 C 
ATOM     12  C   UNL     1      -1.260   1.317  25.149  0.00  0.00    +0.054 C 
ATOM     13  C   UNL     1      -3.579   1.864  26.068  0.00  0.00    +0.010 C 
ATOM     14  C   UNL     1      -4.910   3.739  25.048  0.00  0.00    +0.123 C 
ATOM     15  C   UNL     1      -1.096   4.189  24.051  0.00  0.00    +0.049 C 
ATOM     16  C   UNL     1      -4.683   2.888  26.293  0.00  0.00    +0.032 C 
ATOM     17  C   UNL     1      -1.586   3.149  26.919  0.00  0.00    +0.012 C 
ATOM     18  C   UNL     1      -0.071   1.875  24.411  0.00  0.00    +0.058 A 
ATOM     20  C   UNL     1      -3.945   5.127  23.200  0.00  0.00    +0.016 C 
ATOM     21  C   UNL     1      -0.025   3.160  23.911  0.00  0.00    +0.015 A 
ATOM     24  C   UNL     1       1.915   1.825  23.474  0.00  0.00    +0.165 A 
ATOM     27  C   UNL     1       3.756   0.180  23.181  0.00  0.00    +0.219 C 
ATOM     41  H   UNL     1       3.667   2.161  22.524  0.00  0.00    +0.157 HD
ENDROOT
BRANCH  14   2
ATOM      2  O   UNL     1      -5.990   4.638  25.300  0.00  0.00    -0.391 OA
ATOM     39  H   UNL     1      -6.215   4.571  26.243  0.00  0.00    +0.210 HD
ENDBRANCH  14   2
BRANCH  11  19
ATOM     19  C   UNL     1      -3.377   5.723  25.527  0.00  0.00    +0.165 C 
BRANCH  19   3
ATOM      3  O   UNL     1      -2.037   6.123  25.343  0.00  0.00    -0.394 OA
ATOM     40  H   UNL     1      -1.945   6.410  24.419  0.00  0.00    +0.209 HD
ENDBRANCH  19   3
ENDBRANCH  11  19
BRANCH  12  22
ATOM     22  C   UNL     1      -0.831   0.316  26.230  0.00  0.00    +0.106 C 
BRANCH  22  23
ATOM      4  O   UNL     1      -2.506  -1.274  26.877  0.00  0.00    -0.276 OA
ATOM      7  N   UNL     1      -1.126  -1.864  25.109  0.00  0.00    -0.300 N 
ATOM     23  C   UNL     1      -1.572  -1.002  26.117  0.00  0.00    +0.216 C 
ATOM     26  C   UNL     1      -0.021  -1.523  24.222  0.00  0.00    +0.132 C 
BRANCH   7  25
ATOM     25  C   UNL     1      -1.735  -3.170  24.868  0.00  0.00    +0.142 C 
BRANCH  25  28
ATOM     28  C   UNL     1      -3.099  -3.050  24.251  0.00  0.00    -0.030 A 
ATOM     31  C   UNL     1      -3.725  -1.805  24.181  0.00  0.00    +0.005 A 
ATOM     32  C   UNL     1      -3.739  -4.182  23.748  0.00  0.00    +0.005 A 
ATOM     34  C   UNL     1      -4.991  -1.693  23.608  0.00  0.00    +0.000 A 
ATOM     35  C   UNL     1      -5.006  -4.070  23.174  0.00  0.00    +0.000 A 
ATOM     36  C   UNL     1      -5.632  -2.825  23.104  0.00  0.00    +0.000 A 
ENDBRANCH  25  28
ENDBRANCH   7  25
ENDBRANCH  22  23
ENDBRANCH  12  22
BRANCH  27  29
ATOM     29  C   UNL     1       5.134   0.149  22.534  0.00  0.00    +0.096 C 
BRANCH  29  30
ATOM     30  C   UNL     1       6.242  -0.204  23.525  0.00  0.00    +0.009 C 
BRANCH  30  33
ATOM     33  C   UNL     1       7.549  -0.535  22.804  0.00  0.00    +0.000 C 
BRANCH  33  37
ATOM     37  C   UNL     1       8.714   0.284  23.362  0.00  0.00    -0.003 C 
ATOM     38  C   UNL     1      10.043  -0.169  22.778  0.00  0.00    +0.004 C 
ENDBRANCH  33  37
ENDBRANCH  30  33
ENDBRANCH  29  30
ENDBRANCH  27  29
TORSDOF 11
ENDMDL
