MODEL 1
REMARK VINA RESULT:      -3.8      0.000      0.000
REMARK  Name = 25314763
REMARK  10 active torsions:
REMARK  status: ('A' for Active; 'I' for Inactive)
REMARK    1  A    between atoms: O_3  and  C_13
REMARK    2  A    between atoms: O_4  and  C_18
REMARK    3  A    between atoms: O_4  and  C_20
REMARK    4  A    between atoms: O_6  and  C_23
REMARK    5  A    between atoms: O_6  and  C_26
REMARK    6  A    between atoms: N_7  and  C_11
REMARK    7  A    between atoms: N_7  and  C_16
REMARK    8  A    between atoms: N_8  and  C_10
REMARK    9  A    between atoms: N_9  and  C_19
REMARK   10  A    between atoms: C_16  and  C_18
REMARK                            x       y       z     vdW  Elec       q    Type
REMARK                         _______ _______ _______ _____ _____    ______ ____
ROOT
ATOM      1  O   UNL     1      -5.116  -7.796  10.724  0.00  0.00    -0.342 OA
ATOM      2  O   UNL     1      -4.175  -8.900   8.915  0.00  0.00    -0.347 OA
ATOM     10  C   UNL     1      -6.263  -9.906  10.940  0.00  0.00    +0.136 C 
ATOM     11  C   UNL     1      -6.538  -8.388   8.868  0.00  0.00    +0.141 C 
ATOM     12  C   UNL     1      -4.925  -9.159  11.117  0.00  0.00    +0.170 C 
ATOM     13  C   UNL     1      -6.867  -9.746   9.528  0.00  0.00    +0.159 C 
ATOM     14  C   UNL     1      -5.140  -7.905   9.295  0.00  0.00    +0.270 C 
ATOM     15  C   UNL     1      -3.845  -9.578  10.137  0.00  0.00    +0.196 C 
ENDROOT
BRANCH  10   8
ATOM      5  O   UNL     1      -6.354 -10.711  13.687  0.00  0.00    -0.252 OA
ATOM      8  N   UNL     1      -7.209  -9.461  11.940  0.00  0.00    -0.291 N 
ATOM      9  N   UNL     1      -8.210  -9.307  13.996  0.00  0.00    -0.269 N 
ATOM     17  C   UNL     1      -7.182  -9.906  13.264  0.00  0.00    +0.304 C 
ATOM     28  H   UNL     1      -7.971  -8.857  11.648  0.00  0.00    +0.151 HD
ATOM     30  H   UNL     1      -8.812  -8.660  13.492  0.00  0.00    +0.156 HD
BRANCH   9  19
ATOM     19  C   UNL     1      -8.525  -9.490  15.363  0.00  0.00    +0.038 A 
ATOM     21  C   UNL     1      -7.503  -9.656  16.297  0.00  0.00    +0.069 A 
ATOM     22  C   UNL     1      -9.857  -9.508  15.776  0.00  0.00    +0.023 A 
ATOM     23  C   UNL     1      -7.813  -9.838  17.645  0.00  0.00    +0.122 A 
ATOM     24  C   UNL     1     -10.168  -9.691  17.124  0.00  0.00    +0.005 A 
ATOM     25  C   UNL     1      -9.145  -9.856  18.059  0.00  0.00    +0.046 A 
BRANCH  23   6
ATOM      6  O   UNL     1      -6.815  -9.998  18.558  0.00  0.00    -0.495 OA
ATOM     26  C   UNL     1      -5.606 -10.602  18.098  0.00  0.00    +0.277 C 
ENDBRANCH  23   6
ENDBRANCH   9  19
ENDBRANCH  10   8
BRANCH  13   3
ATOM      3  O   UNL     1      -6.345 -10.781   8.683  0.00  0.00    -0.388 OA
ATOM     29  H   UNL     1      -5.538 -10.438   8.264  0.00  0.00    +0.210 HD
ENDBRANCH  13   3
BRANCH  11   7
ATOM      7  N   UNL     1      -7.542  -7.390   9.241  0.00  0.00    -0.305 NA
ATOM     27  H   UNL     1      -7.101  -6.474   9.320  0.00  0.00    +0.123 HD
BRANCH   7  16
ATOM     16  C   UNL     1      -8.592  -7.318   8.237  0.00  0.00    +0.109 C 
BRANCH  16  18
ATOM     18  C   UNL     1      -9.899  -6.854   8.861  0.00  0.00    +0.174 C 
BRANCH  18   4
ATOM      4  O   UNL     1     -10.572  -7.983   9.402  0.00  0.00    -0.382 OA
ATOM     20  C   UNL     1     -10.599  -9.065   8.481  0.00  0.00    +0.194 C 
ENDBRANCH  18   4
ENDBRANCH  16  18
ENDBRANCH   7  16
ENDBRANCH  11   7
TORSDOF 8
ENDMDL
MODEL 2
REMARK VINA RESULT:      -3.5     27.003     29.642
REMARK  Name = 25314763
REMARK  10 active torsions:
REMARK  status: ('A' for Active; 'I' for Inactive)
REMARK    1  A    between atoms: O_3  and  C_13
REMARK    2  A    between atoms: O_4  and  C_18
REMARK    3  A    between atoms: O_4  and  C_20
REMARK    4  A    between atoms: O_6  and  C_23
REMARK    5  A    between atoms: O_6  and  C_26
REMARK    6  A    between atoms: N_7  and  C_11
REMARK    7  A    between atoms: N_7  and  C_16
REMARK    8  A    between atoms: N_8  and  C_10
REMARK    9  A    between atoms: N_9  and  C_19
REMARK   10  A    between atoms: C_16  and  C_18
REMARK                            x       y       z     vdW  Elec       q    Type
REMARK                         _______ _______ _______ _____ _____    ______ ____
ROOT
ATOM      1  O   UNL     1      14.360  -5.608  30.933  0.00  0.00    -0.342 OA
ATOM      2  O   UNL     1      13.374  -7.304  32.170  0.00  0.00    -0.347 OA
ATOM     10  C   UNL     1      15.074  -7.494  29.612  0.00  0.00    +0.136 C 
ATOM     11  C   UNL     1      15.787  -7.181  32.075  0.00  0.00    +0.141 C 
ATOM     12  C   UNL     1      13.889  -6.588  30.002  0.00  0.00    +0.170 C 
ATOM     13  C   UNL     1      15.806  -8.097  30.831  0.00  0.00    +0.159 C 
ATOM     14  C   UNL     1      14.474  -6.380  32.136  0.00  0.00    +0.270 C 
ATOM     15  C   UNL     1      12.830  -7.278  30.841  0.00  0.00    +0.196 C 
ENDROOT
BRANCH  10   8
ATOM      5  O   UNL     1      14.835  -6.971  26.806  0.00  0.00    -0.252 OA
ATOM      8  N   UNL     1      16.006  -6.755  28.787  0.00  0.00    -0.291 N 
ATOM      9  N   UNL     1      16.868  -5.801  26.890  0.00  0.00    -0.269 N 
ATOM     17  C   UNL     1      15.811  -6.545  27.420  0.00  0.00    +0.304 C 
ATOM     28  H   UNL     1      16.876  -6.440  29.207  0.00  0.00    +0.151 HD
ATOM     30  H   UNL     1      17.602  -5.526  27.538  0.00  0.00    +0.156 HD
BRANCH   9  19
ATOM     19  C   UNL     1      17.049  -5.380  25.551  0.00  0.00    +0.038 A 
ATOM     21  C   UNL     1      17.044  -4.020  25.243  0.00  0.00    +0.069 A 
ATOM     22  C   UNL     1      17.230  -6.324  24.541  0.00  0.00    +0.023 A 
ATOM     23  C   UNL     1      17.220  -3.605  23.923  0.00  0.00    +0.122 A 
ATOM     24  C   UNL     1      17.405  -5.909  23.221  0.00  0.00    +0.005 A 
ATOM     25  C   UNL     1      17.401  -4.549  22.912  0.00  0.00    +0.046 A 
BRANCH  23   6
ATOM      6  O   UNL     1      17.218  -2.277  23.620  0.00  0.00    -0.495 OA
ATOM     26  C   UNL     1      16.156  -1.802  22.793  0.00  0.00    +0.277 C 
ENDBRANCH  23   6
ENDBRANCH   9  19
ENDBRANCH  10   8
BRANCH  13   3
ATOM      3  O   UNL     1      15.168  -9.331  31.187  0.00  0.00    -0.388 OA
ATOM     29  H   UNL     1      14.238  -9.134  31.386  0.00  0.00    +0.210 HD
ENDBRANCH  13   3
BRANCH  11   7
ATOM      7  N   UNL     1      16.926  -6.262  32.043  0.00  0.00    -0.305 NA
ATOM     27  H   UNL     1      17.091  -5.953  31.085  0.00  0.00    +0.123 HD
BRANCH   7  16
ATOM     16  C   UNL     1      16.669  -5.096  32.873  0.00  0.00    +0.109 C 
BRANCH  16  18
ATOM     18  C   UNL     1      17.208  -3.837  32.212  0.00  0.00    +0.174 C 
BRANCH  18   4
ATOM      4  O   UNL     1      16.144  -2.907  32.066  0.00  0.00    -0.382 OA
ATOM     20  C   UNL     1      16.611  -1.648  31.599  0.00  0.00    +0.194 C 
ENDBRANCH  18   4
ENDBRANCH  16  18
ENDBRANCH   7  16
ENDBRANCH  11   7
TORSDOF 8
ENDMDL
MODEL 3
REMARK VINA RESULT:      -1.6     15.114     18.013
REMARK  Name = 25314763
REMARK  10 active torsions:
REMARK  status: ('A' for Active; 'I' for Inactive)
REMARK    1  A    between atoms: O_3  and  C_13
REMARK    2  A    between atoms: O_4  and  C_18
REMARK    3  A    between atoms: O_4  and  C_20
REMARK    4  A    between atoms: O_6  and  C_23
REMARK    5  A    between atoms: O_6  and  C_26
REMARK    6  A    between atoms: N_7  and  C_11
REMARK    7  A    between atoms: N_7  and  C_16
REMARK    8  A    between atoms: N_8  and  C_10
REMARK    9  A    between atoms: N_9  and  C_19
REMARK   10  A    between atoms: C_16  and  C_18
REMARK                            x       y       z     vdW  Elec       q    Type
REMARK                         _______ _______ _______ _____ _____    ______ ____
ROOT
ATOM      1  O   UNL     1      -4.195   2.859  26.656  0.00  0.00    -0.342 OA
ATOM      2  O   UNL     1      -6.132   3.610  25.627  0.00  0.00    -0.347 OA
ATOM     10  C   UNL     1      -3.275   3.420  24.499  0.00  0.00    +0.136 C 
ATOM     11  C   UNL     1      -5.079   1.596  24.801  0.00  0.00    +0.141 C 
ATOM     12  C   UNL     1      -3.829   3.969  25.830  0.00  0.00    +0.170 C 
ATOM     13  C   UNL     1      -4.230   2.421  23.809  0.00  0.00    +0.159 C 
ATOM     14  C   UNL     1      -5.421   2.434  26.047  0.00  0.00    +0.270 C 
ATOM     15  C   UNL     1      -5.167   4.671  25.704  0.00  0.00    +0.196 C 
ENDROOT
BRANCH  10   8
ATOM      5  O   UNL     1      -1.627   2.144  22.535  0.00  0.00    -0.252 OA
ATOM      8  N   UNL     1      -1.985   2.804  24.721  0.00  0.00    -0.291 N 
ATOM      9  N   UNL     1      -0.045   1.694  24.211  0.00  0.00    -0.269 N 
ATOM     17  C   UNL     1      -1.244   2.201  23.702  0.00  0.00    +0.304 C 
ATOM     28  H   UNL     1      -1.639   2.740  25.674  0.00  0.00    +0.151 HD
ATOM     30  H   UNL     1       0.119   1.825  25.206  0.00  0.00    +0.156 HD
BRANCH   9  19
ATOM     19  C   UNL     1       0.978   1.014  23.509  0.00  0.00    +0.038 A 
ATOM     21  C   UNL     1       2.311   1.374  23.701  0.00  0.00    +0.069 A 
ATOM     22  C   UNL     1       0.653  -0.015  22.625  0.00  0.00    +0.023 A 
ATOM     23  C   UNL     1       3.320   0.705  23.008  0.00  0.00    +0.122 A 
ATOM     24  C   UNL     1       1.661  -0.684  21.932  0.00  0.00    +0.005 A 
ATOM     25  C   UNL     1       2.995  -0.324  22.123  0.00  0.00    +0.046 A 
BRANCH  23   6
ATOM      6  O   UNL     1       4.623   1.054  23.196  0.00  0.00    -0.495 OA
ATOM     26  C   UNL     1       5.524   0.016  23.581  0.00  0.00    +0.277 C 
ENDBRANCH  23   6
ENDBRANCH   9  19
ENDBRANCH  10   8
BRANCH  13   3
ATOM      3  O   UNL     1      -5.130   3.152  22.965  0.00  0.00    -0.388 OA
ATOM     29  H   UNL     1      -4.658   3.358  22.141  0.00  0.00    +0.210 HD
ENDBRANCH  13   3
BRANCH  11   7
ATOM      7  N   UNL     1      -4.356   0.388  25.202  0.00  0.00    -0.305 NA
ATOM     27  H   UNL     1      -4.993  -0.253  25.673  0.00  0.00    +0.123 HD
BRANCH   7  16
ATOM     16  C   UNL     1      -3.794  -0.283  24.039  0.00  0.00    +0.109 C 
BRANCH  16  18
ATOM     18  C   UNL     1      -4.189  -1.751  24.024  0.00  0.00    +0.174 C 
BRANCH  18   4
ATOM      4  O   UNL     1      -3.289  -2.474  24.854  0.00  0.00    -0.382 OA
ATOM     20  C   UNL     1      -1.935  -2.197  24.522  0.00  0.00    +0.194 C 
ENDBRANCH  18   4
ENDBRANCH  16  18
ENDBRANCH   7  16
ENDBRANCH  11   7
TORSDOF 8
ENDMDL
MODEL 4
REMARK VINA RESULT:       0.2     26.776     29.329
REMARK  Name = 25314763
REMARK  10 active torsions:
REMARK  status: ('A' for Active; 'I' for Inactive)
REMARK    1  A    between atoms: O_3  and  C_13
REMARK    2  A    between atoms: O_4  and  C_18
REMARK    3  A    between atoms: O_4  and  C_20
REMARK    4  A    between atoms: O_6  and  C_23
REMARK    5  A    between atoms: O_6  and  C_26
REMARK    6  A    between atoms: N_7  and  C_11
REMARK    7  A    between atoms: N_7  and  C_16
REMARK    8  A    between atoms: N_8  and  C_10
REMARK    9  A    between atoms: N_9  and  C_19
REMARK   10  A    between atoms: C_16  and  C_18
REMARK                            x       y       z     vdW  Elec       q    Type
REMARK                         _______ _______ _______ _____ _____    ______ ____
ROOT
ATOM      1  O   UNL     1      13.014  -5.607  30.729  0.00  0.00    -0.342 OA
ATOM      2  O   UNL     1      11.732  -6.930  32.138  0.00  0.00    -0.347 OA
ATOM     10  C   UNL     1      14.037  -7.741  30.267  0.00  0.00    +0.136 C 
ATOM     11  C   UNL     1      14.087  -6.663  32.614  0.00  0.00    +0.141 C 
ATOM     12  C   UNL     1      12.796  -6.851  30.055  0.00  0.00    +0.170 C 
ATOM     13  C   UNL     1      14.424  -7.901  31.754  0.00  0.00    +0.159 C 
ATOM     14  C   UNL     1      12.808  -5.979  32.099  0.00  0.00    +0.270 C 
ATOM     15  C   UNL     1      11.551  -7.339  30.773  0.00  0.00    +0.196 C 
ENDROOT
BRANCH  10   8
ATOM      5  O   UNL     1      14.111  -7.214  27.453  0.00  0.00    -0.252 OA
ATOM      8  N   UNL     1      15.155  -7.212  29.516  0.00  0.00    -0.291 N 
ATOM      9  N   UNL     1      16.326  -6.471  27.690  0.00  0.00    -0.269 N 
ATOM     17  C   UNL     1      15.105  -6.984  28.138  0.00  0.00    +0.304 C 
ATOM     28  H   UNL     1      16.037  -7.071  29.999  0.00  0.00    +0.151 HD
ATOM     30  H   UNL     1      17.050  -6.340  28.391  0.00  0.00    +0.156 HD
BRANCH   9  19
ATOM     19  C   UNL     1      16.684  -6.110  26.370  0.00  0.00    +0.038 A 
ATOM     21  C   UNL     1      16.753  -4.764  26.011  0.00  0.00    +0.069 A 
ATOM     22  C   UNL     1      16.965  -7.099  25.428  0.00  0.00    +0.023 A 
ATOM     23  C   UNL     1      17.105  -4.408  24.709  0.00  0.00    +0.122 A 
ATOM     24  C   UNL     1      17.315  -6.743  24.125  0.00  0.00    +0.005 A 
ATOM     25  C   UNL     1      17.386  -5.397  23.765  0.00  0.00    +0.046 A 
BRANCH  23   6
ATOM      6  O   UNL     1      17.175  -3.094  24.357  0.00  0.00    -0.495 OA
ATOM     26  C   UNL     1      16.793  -2.758  23.024  0.00  0.00    +0.277 C 
ENDBRANCH  23   6
ENDBRANCH   9  19
ENDBRANCH  10   8
BRANCH  13   3
ATOM      3  O   UNL     1      13.709  -9.019  32.298  0.00  0.00    -0.388 OA
ATOM     29  H   UNL     1      12.865  -9.089  31.820  0.00  0.00    +0.210 HD
ENDBRANCH  13   3
BRANCH  11   7
ATOM      7  N   UNL     1      15.201  -5.712  32.588  0.00  0.00    -0.305 NA
ATOM     27  H   UNL     1      15.050  -4.989  33.290  0.00  0.00    +0.123 HD
BRANCH   7  16
ATOM     16  C   UNL     1      16.458  -6.387  32.873  0.00  0.00    +0.109 C 
BRANCH  16  18
ATOM     18  C   UNL     1      16.283  -7.896  32.812  0.00  0.00    +0.174 C 
BRANCH  18   4
ATOM      4  O   UNL     1      17.402  -8.458  32.140  0.00  0.00    -0.382 OA
ATOM     20  C   UNL     1      17.211  -9.842  31.878  0.00  0.00    +0.194 C 
ENDBRANCH  18   4
ENDBRANCH  16  18
ENDBRANCH   7  16
ENDBRANCH  11   7
TORSDOF 8
ENDMDL
