MODEL 1
REMARK VINA RESULT:      -5.3      0.000      0.000
REMARK  Name = 71693244
REMARK  8 active torsions:
REMARK  status: ('A' for Active; 'I' for Inactive)
REMARK    1  A    between atoms: O_2  and  C_10
REMARK    2  A    between atoms: N_6  and  C_16
REMARK    3  A    between atoms: CA_7  and  C_10
REMARK    4  A    between atoms: C_8  and  C_9
REMARK    5  A    between atoms: C_15  and  C_19
REMARK    6  A    between atoms: C_15  and  C_21
REMARK    7  A    between atoms: C_15  and  C_22
REMARK    8  A    between atoms: C_19  and  C_20
REMARK                            x       y       z     vdW  Elec       q    Type
REMARK                         _______ _______ _______ _____ _____    ______ ____
ROOT
ATOM      9  C   UNL     1      -1.722   1.469  24.693  0.00  0.00    -0.017 A 
ATOM     13  C   UNL     1      -0.890   2.587  24.773  0.00  0.00    +0.008 A 
ATOM     14  C   UNL     1      -1.213   0.253  24.234  0.00  0.00    +0.008 A 
ATOM     16  C   UNL     1       0.956   1.274  23.936  0.00  0.00    +0.033 A 
ATOM     17  C   UNL     1       0.448   2.489  24.394  0.00  0.00    +0.023 A 
ATOM     18  C   UNL     1       0.126   0.156  23.856  0.00  0.00    +0.023 A 
ENDROOT
BRANCH   9   8
ATOM      1  O   UNL     1      -3.757   2.654  24.363  0.00  0.00    -0.361 OA
ATOM      3  O   UNL     1      -7.223   1.968  24.978  0.00  0.00    -0.273 OA
ATOM      5  N   UNL     1      -5.414   0.558  25.040  0.00  0.00    -0.306 N 
ATOM      7  CA  UNL     1      -3.994   0.309  24.806  0.00  0.00    +0.131 C 
ATOM      8  C   UNL     1      -3.174   1.574  25.103  0.00  0.00    +0.171 C 
ATOM     11  C   UNL     1      -5.048   2.970  24.839  0.00  0.00    +0.256 C 
ATOM     12  C   UNL     1      -6.006   1.797  24.934  0.00  0.00    +0.239 C 
ATOM     23  H   UNL     1      -6.030  -0.248  25.108  0.00  0.00    +0.149 HD
BRANCH   7  10
ATOM     10  C   UNL     1      -3.538  -0.892  25.631  0.00  0.00    +0.181 C 
BRANCH  10   2
ATOM      2  O   UNL     1      -3.802  -2.071  24.892  0.00  0.00    -0.393 OA
ATOM     25  H   UNL     1      -4.714  -2.340  25.098  0.00  0.00    +0.209 HD
ENDBRANCH  10   2
ENDBRANCH   7  10
ENDBRANCH   9   8
BRANCH  16   6
ATOM      4  O   UNL     1       2.224  -0.168  21.628  0.00  0.00    -0.275 OA
ATOM      6  N   UNL     1       2.314   1.175  23.552  0.00  0.00    -0.285 N 
ATOM     20  C   UNL     1       2.840   0.495  22.456  0.00  0.00    +0.217 C 
ATOM     24  H   UNL     1       2.965   1.674  24.155  0.00  0.00    +0.155 HD
BRANCH  20  19
ATOM     19  C   UNL     1       4.358   0.643  22.411  0.00  0.00    +0.099 C 
BRANCH  19  15
ATOM     15  C   UNL     1       5.084  -0.037  23.582  0.00  0.00    -0.008 C 
ATOM     21  C   UNL     1       6.582  -0.132  23.287  0.00  0.00    +0.008 C 
ATOM     22  C   UNL     1       4.520  -1.435  23.851  0.00  0.00    +0.008 C 
ENDBRANCH  19  15
ENDBRANCH  20  19
ENDBRANCH  16   6
TORSDOF 6
ENDMDL
MODEL 2
REMARK VINA RESULT:      -4.5      1.189      2.380
REMARK  Name = 71693244
REMARK  8 active torsions:
REMARK  status: ('A' for Active; 'I' for Inactive)
REMARK    1  A    between atoms: O_2  and  C_10
REMARK    2  A    between atoms: N_6  and  C_16
REMARK    3  A    between atoms: CA_7  and  C_10
REMARK    4  A    between atoms: C_8  and  C_9
REMARK    5  A    between atoms: C_15  and  C_19
REMARK    6  A    between atoms: C_15  and  C_21
REMARK    7  A    between atoms: C_15  and  C_22
REMARK    8  A    between atoms: C_19  and  C_20
REMARK                            x       y       z     vdW  Elec       q    Type
REMARK                         _______ _______ _______ _____ _____    ______ ____
ROOT
ATOM      9  C   UNL     1      -1.859   1.667  24.311  0.00  0.00    -0.017 A 
ATOM     13  C   UNL     1      -1.342   0.446  23.877  0.00  0.00    +0.008 A 
ATOM     14  C   UNL     1      -1.011   2.761  24.489  0.00  0.00    +0.008 A 
ATOM     16  C   UNL     1       0.870   1.412  23.798  0.00  0.00    +0.033 A 
ATOM     17  C   UNL     1       0.024   0.319  23.622  0.00  0.00    +0.023 A 
ATOM     18  C   UNL     1       0.354   2.633  24.232  0.00  0.00    +0.023 A 
ENDROOT
BRANCH   9   8
ATOM      1  O   UNL     1      -3.764   0.624  25.282  0.00  0.00    -0.361 OA
ATOM      3  O   UNL     1      -6.960   1.758  26.450  0.00  0.00    -0.273 OA
ATOM      5  N   UNL     1      -5.100   2.965  25.859  0.00  0.00    -0.306 N 
ATOM      7  CA  UNL     1      -3.693   3.014  25.471  0.00  0.00    +0.131 C 
ATOM      8  C   UNL     1      -3.340   1.806  24.590  0.00  0.00    +0.171 C 
ATOM     11  C   UNL     1      -5.170   0.564  25.389  0.00  0.00    +0.256 C 
ATOM     12  C   UNL     1      -5.827   1.801  25.973  0.00  0.00    +0.239 C 
ATOM     23  H   UNL     1      -5.515   3.812  26.239  0.00  0.00    +0.149 HD
BRANCH   7  10
ATOM     10  C   UNL     1      -3.393   4.345  24.787  0.00  0.00    +0.181 C 
BRANCH  10   2
ATOM      2  O   UNL     1      -3.982   4.330  23.499  0.00  0.00    -0.393 OA
ATOM     25  H   UNL     1      -4.720   4.963  23.514  0.00  0.00    +0.209 HD
ENDBRANCH  10   2
ENDBRANCH   7  10
ENDBRANCH   9   8
BRANCH  16   6
ATOM      4  O   UNL     1       2.312  -0.106  21.646  0.00  0.00    -0.275 OA
ATOM      6  N   UNL     1       2.256   1.283  23.538  0.00  0.00    -0.285 N 
ATOM     20  C   UNL     1       2.864   0.569  22.509  0.00  0.00    +0.217 C 
ATOM     24  H   UNL     1       2.859   1.788  24.184  0.00  0.00    +0.155 HD
BRANCH  20  19
ATOM     19  C   UNL     1       4.382   0.693  22.594  0.00  0.00    +0.099 C 
BRANCH  19  15
ATOM     15  C   UNL     1       5.008  -0.111  23.744  0.00  0.00    -0.008 C 
ATOM     21  C   UNL     1       6.516  -0.248  23.530  0.00  0.00    +0.008 C 
ATOM     22  C   UNL     1       4.374  -1.501  23.861  0.00  0.00    +0.008 C 
ENDBRANCH  19  15
ENDBRANCH  20  19
ENDBRANCH  16   6
TORSDOF 6
ENDMDL
