MODEL 1
REMARK VINA RESULT:      -1.0      0.000      0.000
REMARK  Name = 28990909
REMARK  8 active torsions:
REMARK  status: ('A' for Active; 'I' for Inactive)
REMARK    1  A    between atoms: S_1  and  N_7
REMARK    2  A    between atoms: S_1  and  C_28
REMARK    3  A    between atoms: N_5  and  C_16
REMARK    4  A    between atoms: N_7  and  C_20
REMARK    5  A    between atoms: N_8  and  C_27
REMARK    6  A    between atoms: C_16  and  C_19
REMARK    7  A    between atoms: C_28  and  C_31
REMARK    8  A    between atoms: C_31  and  C_32
REMARK                            x       y       z     vdW  Elec       q    Type
REMARK                         _______ _______ _______ _____ _____    ______ ____
ROOT
ATOM      2  O   UNL     1       0.212  -0.736  22.200  0.00  0.00    -0.266 OA
ATOM      5  N   UNL     1      -4.181  -0.374  24.589  0.00  0.00    -0.297 NA
ATOM      6  N   UNL     1      -1.081  -0.978  24.130  0.00  0.00    -0.310 N 
ATOM      9  C   UNL     1      -3.061  -2.598  24.286  0.00  0.00    +0.024 C 
ATOM     10  C   UNL     1      -2.475  -1.207  26.215  0.00  0.00    +0.050 C 
ATOM     11  C   UNL     1      -2.713  -2.647  25.769  0.00  0.00    +0.017 C 
ATOM     12  C   UNL     1      -4.326  -1.739  24.068  0.00  0.00    +0.090 C 
ATOM     13  C   UNL     1      -3.762  -0.379  25.999  0.00  0.00    +0.094 C 
ATOM     14  C   UNL     1      -1.848  -2.068  23.510  0.00  0.00    +0.130 C 
ATOM     15  C   UNL     1      -1.315  -0.592  25.454  0.00  0.00    +0.026 A 
ATOM     17  C   UNL     1      -0.531   0.329  26.037  0.00  0.00    +0.024 A 
ATOM     18  C   UNL     1      -0.042  -0.417  23.362  0.00  0.00    +0.274 A 
ATOM     20  C   UNL     1       0.795   0.623  24.040  0.00  0.00    +0.112 A 
ATOM     21  C   UNL     1       0.543   0.949  25.313  0.00  0.00    +0.031 A 
ENDROOT
BRANCH  20   7
ATOM      7  N   UNL     1       1.802   1.201  23.326  0.00  0.00    -0.215 N 
ATOM     33  H   UNL     1       2.220   2.016  23.798  0.00  0.00    +0.173 HD
BRANCH   7   1
ATOM      1  S   UNL     1       2.958   0.126  22.681  0.00  0.00    +0.043 S 
ATOM      3  O   UNL     1       2.983  -1.093  23.468  0.00  0.00    -0.155 OA
ATOM      4  O   UNL     1       2.822   0.083  21.237  0.00  0.00    -0.155 OA
BRANCH   1  28
ATOM     28  C   UNL     1       4.445   1.023  23.053  0.00  0.00    +0.188 C 
BRANCH  28  31
ATOM     31  C   UNL     1       5.642   0.092  23.154  0.00  0.00    +0.021 C 
ATOM     32  C   UNL     1       5.721  -0.565  24.522  0.00  0.00    +0.005 C 
ENDBRANCH  28  31
ENDBRANCH   1  28
ENDBRANCH   7   1
ENDBRANCH  20   7
BRANCH   5  16
ATOM     16  C   UNL     1      -5.414   0.388  24.412  0.00  0.00    +0.121 C 
BRANCH  16  19
ATOM      8  N   UNL     1      -5.639   3.925  25.401  0.00  0.00    -0.349 N 
ATOM     19  C   UNL     1      -5.227   1.843  24.750  0.00  0.00    -0.008 A 
ATOM     22  C   UNL     1      -4.019   2.588  24.652  0.00  0.00    +0.004 A 
ATOM     23  C   UNL     1      -6.205   2.693  25.214  0.00  0.00    +0.091 A 
ATOM     24  C   UNL     1      -4.305   3.890  25.066  0.00  0.00    +0.049 A 
ATOM     25  C   UNL     1      -2.705   2.277  24.248  0.00  0.00    +0.010 A 
ATOM     26  C   UNL     1      -3.338   4.901  25.096  0.00  0.00    +0.026 A 
ATOM     27  C   UNL     1      -6.355   5.087  25.881  0.00  0.00    +0.149 C 
ATOM     29  C   UNL     1      -1.727   3.278  24.274  0.00  0.00    +0.001 A 
ATOM     30  C   UNL     1      -2.042   4.571  24.692  0.00  0.00    +0.002 A 
ENDBRANCH  16  19
ENDBRANCH   5  16
TORSDOF 6
ENDMDL
MODEL 2
REMARK VINA RESULT:       0.7      1.761      4.632
REMARK  Name = 28990909
REMARK  8 active torsions:
REMARK  status: ('A' for Active; 'I' for Inactive)
REMARK    1  A    between atoms: S_1  and  N_7
REMARK    2  A    between atoms: S_1  and  C_28
REMARK    3  A    between atoms: N_5  and  C_16
REMARK    4  A    between atoms: N_7  and  C_20
REMARK    5  A    between atoms: N_8  and  C_27
REMARK    6  A    between atoms: C_16  and  C_19
REMARK    7  A    between atoms: C_28  and  C_31
REMARK    8  A    between atoms: C_31  and  C_32
REMARK                            x       y       z     vdW  Elec       q    Type
REMARK                         _______ _______ _______ _____ _____    ______ ____
ROOT
ATOM      2  O   UNL     1       0.792   2.278  26.339  0.00  0.00    -0.266 OA
ATOM      5  N   UNL     1      -4.065   1.907  25.155  0.00  0.00    -0.297 NA
ATOM      6  N   UNL     1      -1.057   2.971  25.091  0.00  0.00    -0.310 N 
ATOM      9  C   UNL     1      -3.143   4.013  26.156  0.00  0.00    +0.024 C 
ATOM     10  C   UNL     1      -3.050   3.691  23.729  0.00  0.00    +0.050 C 
ATOM     11  C   UNL     1      -3.284   4.732  24.820  0.00  0.00    +0.017 C 
ATOM     12  C   UNL     1      -4.180   2.873  26.253  0.00  0.00    +0.090 C 
ATOM     13  C   UNL     1      -4.112   2.574  23.845  0.00  0.00    +0.094 C 
ATOM     14  C   UNL     1      -1.700   3.510  26.298  0.00  0.00    +0.130 C 
ATOM     15  C   UNL     1      -1.653   3.107  23.833  0.00  0.00    +0.026 A 
ATOM     17  C   UNL     1      -1.000   2.706  22.730  0.00  0.00    +0.024 A 
ATOM     18  C   UNL     1       0.222   2.404  25.254  0.00  0.00    +0.274 A 
ATOM     20  C   UNL     1       0.907   1.948  24.003  0.00  0.00    +0.112 A 
ATOM     21  C   UNL     1       0.305   2.112  22.820  0.00  0.00    +0.031 A 
ENDROOT
BRANCH  20   7
ATOM      7  N   UNL     1       2.141   1.380  24.119  0.00  0.00    -0.215 N 
ATOM     33  H   UNL     1       2.313   0.968  25.047  0.00  0.00    +0.173 HD
BRANCH   7   1
ATOM      1  S   UNL     1       2.610   0.366  22.830  0.00  0.00    +0.043 S 
ATOM      3  O   UNL     1       1.445  -0.316  22.298  0.00  0.00    -0.155 OA
ATOM      4  O   UNL     1       3.519   1.086  21.959  0.00  0.00    -0.155 OA
BRANCH   1  28
ATOM     28  C   UNL     1       3.563  -0.836  23.723  0.00  0.00    +0.188 C 
BRANCH  28  31
ATOM     31  C   UNL     1       5.050  -0.670  23.461  0.00  0.00    +0.021 C 
ATOM     32  C   UNL     1       5.658   0.394  24.360  0.00  0.00    +0.005 C 
ENDBRANCH  28  31
ENDBRANCH   1  28
ENDBRANCH   7   1
ENDBRANCH  20   7
BRANCH   5  16
ATOM     16  C   UNL     1      -5.096   0.876  25.254  0.00  0.00    +0.121 C 
BRANCH  16  19
ATOM      8  N   UNL     1      -4.526  -2.494  23.891  0.00  0.00    -0.349 N 
ATOM     19  C   UNL     1      -4.593  -0.465  24.788  0.00  0.00    -0.008 A 
ATOM     22  C   UNL     1      -3.270  -0.970  24.928  0.00  0.00    +0.004 A 
ATOM     23  C   UNL     1      -5.342  -1.425  24.146  0.00  0.00    +0.091 A 
ATOM     24  C   UNL     1      -3.255  -2.244  24.357  0.00  0.00    +0.049 A 
ATOM     25  C   UNL     1      -2.081  -0.463  25.488  0.00  0.00    +0.010 A 
ATOM     26  C   UNL     1      -2.105  -3.039  24.319  0.00  0.00    +0.026 A 
ATOM     27  C   UNL     1      -4.954  -3.707  23.227  0.00  0.00    +0.149 C 
ATOM     29  C   UNL     1      -0.922  -1.247  25.456  0.00  0.00    +0.001 A 
ATOM     30  C   UNL     1      -0.936  -2.516  24.880  0.00  0.00    +0.002 A 
ENDBRANCH  16  19
ENDBRANCH   5  16
TORSDOF 6
ENDMDL
