MODEL 1
REMARK VINA RESULT:      -5.5      0.000      0.000
REMARK  Name = 25390186
REMARK  9 active torsions:
REMARK  status: ('A' for Active; 'I' for Inactive)
REMARK    1  A    between atoms: O_3  and  C_10
REMARK    2  A    between atoms: O_4  and  C_11
REMARK    3  A    between atoms: N_7  and  C_15
REMARK    4  A    between atoms: N_8  and  C_18
REMARK    5  A    between atoms: N_9  and  C_20
REMARK    6  A    between atoms: C_12  and  C_14
REMARK    7  A    between atoms: C_13  and  C_15
REMARK    8  A    between atoms: C_14  and  C_16
REMARK    9  A    between atoms: C_18  and  C_19
REMARK                            x       y       z     vdW  Elec       q    Type
REMARK                         _______ _______ _______ _____ _____    ______ ____
ROOT
ATOM      2  O   UNL     1      -3.158   3.431  23.370  0.00  0.00    -0.366 OA
ATOM     10  C   UNL     1      -2.817   3.410  25.703  0.00  0.00    +0.175 C 
ATOM     11  C   UNL     1      -1.460   3.335  25.033  0.00  0.00    +0.176 C 
ATOM     12  C   UNL     1      -3.674   3.991  24.591  0.00  0.00    +0.158 C 
ATOM     13  C   UNL     1      -1.829   2.916  23.614  0.00  0.00    +0.167 C 
ENDROOT
BRANCH  10   3
ATOM      3  O   UNL     1      -2.827   4.221  26.858  0.00  0.00    -0.387 OA
ATOM     31  H   UNL     1      -3.519   3.878  27.449  0.00  0.00    +0.210 HD
ENDBRANCH  10   3
BRANCH  11   4
ATOM      4  O   UNL     1      -0.867   4.632  24.972  0.00  0.00    -0.387 OA
ATOM     32  H   UNL     1      -1.565   5.280  25.171  0.00  0.00    +0.210 HD
ENDBRANCH  11   4
BRANCH  12  14
ATOM     14  C   UNL     1      -5.147   3.651  24.727  0.00  0.00    +0.130 C 
BRANCH  14  16
ATOM      5  O   UNL     1      -5.879   2.202  26.520  0.00  0.00    -0.276 OA
ATOM      8  N   UNL     1      -4.949   1.260  24.610  0.00  0.00    -0.311 N 
ATOM     16  C   UNL     1      -5.377   2.313  25.405  0.00  0.00    +0.216 C 
ATOM     34  H   UNL     1      -4.562   1.457  23.692  0.00  0.00    +0.149 HD
BRANCH   8  18
ATOM     18  C   UNL     1      -5.049  -0.124  25.014  0.00  0.00    +0.139 C 
BRANCH  18  19
ATOM      1  F   UNL     1       0.002  -2.582  25.395  0.00  0.00    -0.205 F 
ATOM     19  C   UNL     1      -3.702  -0.779  25.115  0.00  0.00    -0.030 A 
ATOM     21  C   UNL     1      -2.768  -0.313  26.039  0.00  0.00    +0.008 A 
ATOM     22  C   UNL     1      -3.385  -1.855  24.286  0.00  0.00    +0.008 A 
ATOM     23  C   UNL     1      -1.516  -0.921  26.134  0.00  0.00    +0.038 A 
ATOM     24  C   UNL     1      -2.134  -2.464  24.380  0.00  0.00    +0.038 A 
ATOM     27  C   UNL     1      -1.199  -1.997  25.304  0.00  0.00    +0.123 A 
ENDBRANCH  18  19
ENDBRANCH   8  18
ENDBRANCH  14  16
ENDBRANCH  12  14
BRANCH  13  15
ATOM     15  C   UNL     1      -1.874   1.405  23.431  0.00  0.00    +0.140 C 
BRANCH  15   7
ATOM      6  O   UNL     1       0.662   1.132  24.733  0.00  0.00    -0.253 OA
ATOM      7  N   UNL     1      -0.660   0.918  22.847  0.00  0.00    -0.297 N 
ATOM      9  N   UNL     1       1.559   0.308  22.727  0.00  0.00    -0.269 N 
ATOM     17  C   UNL     1       0.550   0.812  23.552  0.00  0.00    +0.304 C 
ATOM     33  H   UNL     1      -0.680   0.624  21.875  0.00  0.00    +0.150 HD
ATOM     35  H   UNL     1       1.299   0.093  21.767  0.00  0.00    +0.156 HD
BRANCH   9  20
ATOM     20  C   UNL     1       2.910   0.057  23.061  0.00  0.00    +0.035 A 
ATOM     25  C   UNL     1       3.862   1.067  22.922  0.00  0.00    +0.023 A 
ATOM     26  C   UNL     1       3.292  -1.202  23.528  0.00  0.00    +0.023 A 
ATOM     28  C   UNL     1       5.195   0.819  23.252  0.00  0.00    +0.002 A 
ATOM     29  C   UNL     1       4.625  -1.449  23.857  0.00  0.00    +0.002 A 
ATOM     30  C   UNL     1       5.576  -0.438  23.719  0.00  0.00    +0.000 A 
ENDBRANCH   9  20
ENDBRANCH  15   7
ENDBRANCH  13  15
TORSDOF 9
ENDMDL
MODEL 2
REMARK VINA RESULT:      -3.4      2.016      6.227
REMARK  Name = 25390186
REMARK  9 active torsions:
REMARK  status: ('A' for Active; 'I' for Inactive)
REMARK    1  A    between atoms: O_3  and  C_10
REMARK    2  A    between atoms: O_4  and  C_11
REMARK    3  A    between atoms: N_7  and  C_15
REMARK    4  A    between atoms: N_8  and  C_18
REMARK    5  A    between atoms: N_9  and  C_20
REMARK    6  A    between atoms: C_12  and  C_14
REMARK    7  A    between atoms: C_13  and  C_15
REMARK    8  A    between atoms: C_14  and  C_16
REMARK    9  A    between atoms: C_18  and  C_19
REMARK                            x       y       z     vdW  Elec       q    Type
REMARK                         _______ _______ _______ _____ _____    ______ ____
ROOT
ATOM      2  O   UNL     1      -2.023   3.607  26.478  0.00  0.00    -0.366 OA
ATOM     10  C   UNL     1      -1.106   3.537  24.308  0.00  0.00    +0.175 C 
ATOM     11  C   UNL     1      -1.800   4.873  24.476  0.00  0.00    +0.176 C 
ATOM     12  C   UNL     1      -0.877   3.128  25.752  0.00  0.00    +0.158 C 
ATOM     13  C   UNL     1      -2.692   4.616  25.686  0.00  0.00    +0.167 C 
ENDROOT
BRANCH  10   3
ATOM      3  O   UNL     1       0.103   3.622  23.583  0.00  0.00    -0.387 OA
ATOM     31  H   UNL     1       0.615   4.360  23.956  0.00  0.00    +0.210 HD
ENDBRANCH  10   3
BRANCH  11   4
ATOM      4  O   UNL     1      -0.854   5.881  24.828  0.00  0.00    -0.387 OA
ATOM     32  H   UNL     1      -0.201   5.472  25.422  0.00  0.00    +0.210 HD
ENDBRANCH  11   4
BRANCH  12  14
ATOM     14  C   UNL     1      -0.745   1.627  25.939  0.00  0.00    +0.130 C 
BRANCH  14  16
ATOM      5  O   UNL     1      -1.330   0.287  24.012  0.00  0.00    -0.276 OA
ATOM      8  N   UNL     1       0.862   1.019  24.260  0.00  0.00    -0.311 N 
ATOM     16  C   UNL     1      -0.468   0.900  24.636  0.00  0.00    +0.216 C 
ATOM     34  H   UNL     1       1.494   1.565  24.839  0.00  0.00    +0.149 HD
BRANCH   8  18
ATOM     18  C   UNL     1       1.398   0.422  23.058  0.00  0.00    +0.139 C 
BRANCH  18  19
ATOM      1  F   UNL     1       6.932  -0.528  23.466  0.00  0.00    -0.205 F 
ATOM     19  C   UNL     1       2.874   0.168  23.167  0.00  0.00    -0.030 A 
ATOM     21  C   UNL     1       3.780   1.169  22.819  0.00  0.00    +0.008 A 
ATOM     22  C   UNL     1       3.338  -1.068  23.616  0.00  0.00    +0.008 A 
ATOM     23  C   UNL     1       5.152   0.934  22.920  0.00  0.00    +0.038 A 
ATOM     24  C   UNL     1       4.709  -1.303  23.717  0.00  0.00    +0.038 A 
ATOM     27  C   UNL     1       5.616  -0.302  23.369  0.00  0.00    +0.123 A 
ENDBRANCH  18  19
ENDBRANCH   8  18
ENDBRANCH  14  16
ENDBRANCH  12  14
BRANCH  13  15
ATOM     15  C   UNL     1      -4.066   4.079  25.312  0.00  0.00    +0.140 C 
BRANCH  15   7
ATOM      6  O   UNL     1      -3.581   1.753  23.713  0.00  0.00    -0.253 OA
ATOM      7  N   UNL     1      -4.216   2.714  25.719  0.00  0.00    -0.297 N 
ATOM      9  N   UNL     1      -4.192   0.416  25.542  0.00  0.00    -0.269 N 
ATOM     17  C   UNL     1      -3.959   1.621  24.875  0.00  0.00    +0.304 C 
ATOM     33  H   UNL     1      -4.515   2.528  26.672  0.00  0.00    +0.150 HD
ATOM     35  H   UNL     1      -4.504   0.482  26.508  0.00  0.00    +0.156 HD
BRANCH   9  20
ATOM     20  C   UNL     1      -4.048  -0.898  25.038  0.00  0.00    +0.035 A 
ATOM     25  C   UNL     1      -3.326  -1.847  25.762  0.00  0.00    +0.023 A 
ATOM     26  C   UNL     1      -4.626  -1.245  23.817  0.00  0.00    +0.023 A 
ATOM     28  C   UNL     1      -3.184  -3.143  25.265  0.00  0.00    +0.002 A 
ATOM     29  C   UNL     1      -4.483  -2.541  23.320  0.00  0.00    +0.002 A 
ATOM     30  C   UNL     1      -3.762  -3.490  24.045  0.00  0.00    +0.000 A 
ENDBRANCH   9  20
ENDBRANCH  15   7
ENDBRANCH  13  15
TORSDOF 9
ENDMDL
MODEL 3
REMARK VINA RESULT:      -2.8      2.295      4.328
REMARK  Name = 25390186
REMARK  9 active torsions:
REMARK  status: ('A' for Active; 'I' for Inactive)
REMARK    1  A    between atoms: O_3  and  C_10
REMARK    2  A    between atoms: O_4  and  C_11
REMARK    3  A    between atoms: N_7  and  C_15
REMARK    4  A    between atoms: N_8  and  C_18
REMARK    5  A    between atoms: N_9  and  C_20
REMARK    6  A    between atoms: C_12  and  C_14
REMARK    7  A    between atoms: C_13  and  C_15
REMARK    8  A    between atoms: C_14  and  C_16
REMARK    9  A    between atoms: C_18  and  C_19
REMARK                            x       y       z     vdW  Elec       q    Type
REMARK                         _______ _______ _______ _____ _____    ______ ____
ROOT
ATOM      2  O   UNL     1      -3.264   0.386  25.268  0.00  0.00    -0.366 OA
ATOM     10  C   UNL     1      -4.072  -1.308  23.841  0.00  0.00    +0.175 C 
ATOM     11  C   UNL     1      -2.617  -1.605  24.138  0.00  0.00    +0.176 C 
ATOM     12  C   UNL     1      -4.440  -0.397  25.000  0.00  0.00    +0.158 C 
ATOM     13  C   UNL     1      -2.120  -0.263  24.666  0.00  0.00    +0.167 C 
ENDROOT
BRANCH  10   3
ATOM      3  O   UNL     1      -4.881  -2.463  23.797  0.00  0.00    -0.387 OA
ATOM     31  H   UNL     1      -5.663  -2.252  23.258  0.00  0.00    +0.210 HD
ENDBRANCH  10   3
BRANCH  11   4
ATOM      4  O   UNL     1      -2.513  -2.562  25.193  0.00  0.00    -0.387 OA
ATOM     32  H   UNL     1      -2.651  -2.087  26.030  0.00  0.00    +0.210 HD
ENDBRANCH  11   4
BRANCH  12  14
ATOM     14  C   UNL     1      -5.609   0.523  24.696  0.00  0.00    +0.130 C 
BRANCH  14  16
ATOM      5  O   UNL     1      -5.018   2.642  23.689  0.00  0.00    -0.276 OA
ATOM      8  N   UNL     1      -5.111   2.475  26.005  0.00  0.00    -0.311 N 
ATOM     16  C   UNL     1      -5.215   1.989  24.710  0.00  0.00    +0.216 C 
ATOM     34  H   UNL     1      -5.313   1.855  26.785  0.00  0.00    +0.149 HD
BRANCH   8  18
ATOM     18  C   UNL     1      -4.749   3.840  26.308  0.00  0.00    +0.139 C 
BRANCH  18  19
ATOM      1  F   UNL     1       0.466   5.072  24.582  0.00  0.00    -0.205 F 
ATOM     19  C   UNL     1      -3.358   4.169  25.849  0.00  0.00    -0.030 A 
ATOM     21  C   UNL     1      -2.312   3.284  26.105  0.00  0.00    +0.008 A 
ATOM     22  C   UNL     1      -3.113   5.360  25.164  0.00  0.00    +0.008 A 
ATOM     23  C   UNL     1      -1.019   3.589  25.678  0.00  0.00    +0.038 A 
ATOM     24  C   UNL     1      -1.821   5.664  24.736  0.00  0.00    +0.038 A 
ATOM     27  C   UNL     1      -0.774   4.779  24.993  0.00  0.00    +0.123 A 
ENDBRANCH  18  19
ENDBRANCH   8  18
ENDBRANCH  14  16
ENDBRANCH  12  14
BRANCH  13  15
ATOM     15  C   UNL     1      -1.590   0.650  23.569  0.00  0.00    +0.140 C 
BRANCH  15   7
ATOM      6  O   UNL     1       1.022   1.052  24.672  0.00  0.00    -0.253 OA
ATOM      7  N   UNL     1      -0.352   0.159  23.040  0.00  0.00    -0.297 N 
ATOM      9  N   UNL     1       1.920  -0.201  22.903  0.00  0.00    -0.269 N 
ATOM     17  C   UNL     1       0.895   0.398  23.640  0.00  0.00    +0.304 C 
ATOM     33  H   UNL     1      -0.382  -0.400  22.193  0.00  0.00    +0.150 HD
ATOM     35  H   UNL     1       1.644  -0.709  22.066  0.00  0.00    +0.156 HD
BRANCH   9  20
ATOM     20  C   UNL     1       3.308  -0.190  23.176  0.00  0.00    +0.035 A 
ATOM     25  C   UNL     1       3.923  -1.322  23.709  0.00  0.00    +0.023 A 
ATOM     26  C   UNL     1       4.061   0.955  22.914  0.00  0.00    +0.023 A 
ATOM     28  C   UNL     1       5.292  -1.311  23.979  0.00  0.00    +0.002 A 
ATOM     29  C   UNL     1       5.430   0.966  23.185  0.00  0.00    +0.002 A 
ATOM     30  C   UNL     1       6.045  -0.167  23.717  0.00  0.00    +0.000 A 
ENDBRANCH   9  20
ENDBRANCH  15   7
ENDBRANCH  13  15
TORSDOF 9
ENDMDL
