MODEL 1
REMARK VINA RESULT:      -0.2      0.000      0.000
REMARK  Name = 7144135
REMARK  4 active torsions:
REMARK  status: ('A' for Active; 'I' for Inactive)
REMARK    1  A    between atoms: S_2  and  C_20
REMARK    2  A    between atoms: S_2  and  C_26
REMARK    3  A    between atoms: C_14  and  C_19
REMARK    4  A    between atoms: C_16  and  C_20
REMARK                            x       y       z     vdW  Elec       q    Type
REMARK                         _______ _______ _______ _____ _____    ______ ____
ROOT
ATOM      3  O   UNL     1      -8.783  -5.905   8.161  0.00  0.00    -0.268 OA
ATOM      4  O   UNL     1     -10.719  -9.050  11.916  0.00  0.00    -0.275 OA
ATOM      5  N   UNL     1      -8.959 -10.112  10.836  0.00  0.00    -0.300 N 
ATOM      6  N   UNL     1      -7.849  -7.967   8.763  0.00  0.00    -0.311 N 
ATOM      7  C   UNL     1      -9.091 -10.173   8.350  0.00  0.00    +0.027 C 
ATOM      8  C   UNL     1      -6.892 -10.188   9.450  0.00  0.00    +0.054 C 
ATOM      9  C   UNL     1      -7.697 -10.779   8.293  0.00  0.00    +0.018 C 
ATOM     10  C   UNL     1      -9.775 -10.502   9.686  0.00  0.00    +0.113 C 
ATOM     11  C   UNL     1      -8.974  -8.664   8.124  0.00  0.00    +0.130 C 
ATOM     12  C   UNL     1      -7.563 -10.567  10.787  0.00  0.00    +0.117 C 
ATOM     13  C   UNL     1      -6.767  -8.666   9.333  0.00  0.00    +0.034 A 
ATOM     14  C   UNL     1      -5.680  -7.985   9.776  0.00  0.00    +0.002 A 
ATOM     15  C   UNL     1      -7.871  -6.565   8.661  0.00  0.00    +0.252 A 
ATOM     16  C   UNL     1      -9.543  -9.422  11.898  0.00  0.00    +0.225 C 
ATOM     17  C   UNL     1      -5.668  -6.537   9.691  0.00  0.00    +0.015 A 
ATOM     18  C   UNL     1      -6.688  -5.845   9.185  0.00  0.00    +0.071 A 
ENDROOT
BRANCH  14  19
ATOM      1 CL   UNL     1      -0.953 -10.780  12.154  0.00  0.00    -0.084 Cl
ATOM     19  C   UNL     1      -4.511  -8.676  10.364  0.00  0.00    -0.016 A 
ATOM     21  C   UNL     1      -3.291  -8.659   9.696  0.00  0.00    +0.010 A 
ATOM     22  C   UNL     1      -4.641  -9.339  11.582  0.00  0.00    +0.010 A 
ATOM     23  C   UNL     1      -2.188  -9.310  10.251  0.00  0.00    +0.020 A 
ATOM     24  C   UNL     1      -3.539  -9.991  12.135  0.00  0.00    +0.020 A 
ATOM     25  C   UNL     1      -2.313  -9.976  11.470  0.00  0.00    +0.041 A 
ENDBRANCH  14  19
BRANCH  16  20
ATOM     20  C   UNL     1      -8.656  -9.119  13.078  0.00  0.00    +0.164 C 
BRANCH  20   2
ATOM      2  S   UNL     1      -9.272 -10.061  14.482  0.00  0.00    -0.155 S 
ATOM     26  C   UNL     1      -8.111  -9.477  15.741  0.00  0.00    +0.085 C 
ENDBRANCH  20   2
ENDBRANCH  16  20
TORSDOF 3
ENDMDL
MODEL 2
REMARK VINA RESULT:       2.7     16.372     18.276
REMARK  Name = 7144135
REMARK  4 active torsions:
REMARK  status: ('A' for Active; 'I' for Inactive)
REMARK    1  A    between atoms: S_2  and  C_20
REMARK    2  A    between atoms: S_2  and  C_26
REMARK    3  A    between atoms: C_14  and  C_19
REMARK    4  A    between atoms: C_16  and  C_20
REMARK                            x       y       z     vdW  Elec       q    Type
REMARK                         _______ _______ _______ _____ _____    ______ ____
ROOT
ATOM      3  O   UNL     1      -3.051   4.604  27.117  0.00  0.00    -0.268 OA
ATOM      4  O   UNL     1      -5.472   0.071  25.959  0.00  0.00    -0.275 OA
ATOM      5  N   UNL     1      -4.147   0.731  24.169  0.00  0.00    -0.300 N 
ATOM      6  N   UNL     1      -2.662   3.363  25.169  0.00  0.00    -0.311 N 
ATOM      7  C   UNL     1      -4.478   3.071  23.381  0.00  0.00    +0.027 C 
ATOM      8  C   UNL     1      -2.287   1.992  23.096  0.00  0.00    +0.054 C 
ATOM      9  C   UNL     1      -3.306   2.912  22.425  0.00  0.00    +0.018 C 
ATOM     10  C   UNL     1      -5.122   1.710  23.686  0.00  0.00    +0.113 C 
ATOM     11  C   UNL     1      -3.978   3.763  24.650  0.00  0.00    +0.130 C 
ATOM     12  C   UNL     1      -2.933   0.613  23.352  0.00  0.00    +0.117 C 
ATOM     13  C   UNL     1      -1.768   2.585  24.408  0.00  0.00    +0.034 A 
ATOM     14  C   UNL     1      -0.507   2.366  24.863  0.00  0.00    +0.002 A 
ATOM     15  C   UNL     1      -2.314   3.907  26.419  0.00  0.00    +0.252 A 
ATOM     16  C   UNL     1      -4.443  -0.047  25.287  0.00  0.00    +0.225 C 
ATOM     17  C   UNL     1      -0.113   2.907  26.150  0.00  0.00    +0.015 A 
ATOM     18  C   UNL     1      -0.946   3.622  26.906  0.00  0.00    +0.071 A 
ENDROOT
BRANCH  14  19
ATOM      1 CL   UNL     1       3.461  -0.846  21.741  0.00  0.00    -0.084 Cl
ATOM     19  C   UNL     1       0.474   1.571  24.091  0.00  0.00    -0.016 A 
ATOM     21  C   UNL     1       1.700   2.133  23.748  0.00  0.00    +0.010 A 
ATOM     22  C   UNL     1       0.164   0.268  23.712  0.00  0.00    +0.010 A 
ATOM     23  C   UNL     1       2.626   1.384  23.021  0.00  0.00    +0.020 A 
ATOM     24  C   UNL     1       1.089  -0.480  22.985  0.00  0.00    +0.020 A 
ATOM     25  C   UNL     1       2.320   0.078  22.639  0.00  0.00    +0.041 A 
ENDBRANCH  14  19
BRANCH  16  20
ATOM     20  C   UNL     1      -3.421  -1.082  25.681  0.00  0.00    +0.164 C 
BRANCH  20   2
ATOM      2  S   UNL     1      -3.609  -2.486  24.572  0.00  0.00    -0.155 S 
ATOM     26  C   UNL     1      -1.860  -2.827  24.254  0.00  0.00    +0.085 C 
ENDBRANCH  20   2
ENDBRANCH  16  20
TORSDOF 3
ENDMDL
