MODEL 1
REMARK VINA RESULT:       6.8      0.000      0.000
REMARK  Name = 25388703
REMARK  3 active torsions:
REMARK  status: ('A' for Active; 'I' for Inactive)
REMARK    1  A    between atoms: C_19  and  C_22
REMARK    2  A    between atoms: C_20  and  C_23
REMARK    3  A    between atoms: C_28  and  C_31
REMARK                            x       y       z     vdW  Elec       q    Type
REMARK                         _______ _______ _______ _____ _____    ______ ____
ROOT
ATOM      4  O   UNL     1      -0.456  -1.396  22.116  0.00  0.00    -0.267 OA
ATOM      5  O   UNL     1      -4.294   1.906  22.755  0.00  0.00    -0.270 OA
ATOM      6  N   UNL     1      -4.240   0.567  24.672  0.00  0.00    -0.296 N 
ATOM      7  N   UNL     1      -1.702  -1.217  24.080  0.00  0.00    -0.311 N 
ATOM     10  C   UNL     1      -4.175  -1.874  24.208  0.00  0.00    +0.027 C 
ATOM     11  C   UNL     1      -3.039  -0.979  26.200  0.00  0.00    +0.054 C 
ATOM     12  C   UNL     1      -3.883  -2.142  25.680  0.00  0.00    +0.018 C 
ATOM     13  C   UNL     1      -4.944  -0.550  24.045  0.00  0.00    +0.113 C 
ATOM     14  C   UNL     1      -2.850  -1.871  23.435  0.00  0.00    +0.130 C 
ATOM     15  C   UNL     1      -3.835   0.336  26.069  0.00  0.00    +0.117 C 
ATOM     16  C   UNL     1      -1.737  -0.863  25.430  0.00  0.00    +0.027 A 
ATOM     17  C   UNL     1      -0.637  -0.380  26.031  0.00  0.00    +0.022 A 
ATOM     18  C   UNL     1      -0.539  -1.064  23.300  0.00  0.00    +0.259 A 
ATOM     19  C   UNL     1      -3.958   1.711  23.922  0.00  0.00    +0.250 C 
ATOM     20  C   UNL     1       0.663  -0.477  23.989  0.00  0.00    +0.047 A 
ATOM     21  C   UNL     1       0.577  -0.181  25.295  0.00  0.00    +0.015 A 
ENDROOT
BRANCH  19  22
ATOM      8  N   UNL     1      -1.068   3.896  24.887  0.00  0.00    -0.243 NA
ATOM      9  N   UNL     1      -3.044   4.679  26.023  0.00  0.00    -0.243 NA
ATOM     22  C   UNL     1      -3.173   2.776  24.556  0.00  0.00    +0.073 A 
ATOM     26  C   UNL     1      -1.822   2.929  24.321  0.00  0.00    +0.127 A 
ATOM     27  C   UNL     1      -3.736   3.688  25.424  0.00  0.00    +0.127 A 
ATOM     32  C   UNL     1      -1.734   4.724  25.715  0.00  0.00    +0.221 A 
ENDBRANCH  19  22
BRANCH  20  23
ATOM     23  C   UNL     1       1.910  -0.210  23.252  0.00  0.00    -0.012 A 
ATOM     24  C   UNL     1       3.132  -0.212  23.924  0.00  0.00    +0.021 A 
ATOM     25  C   UNL     1       1.868   0.046  21.882  0.00  0.00    +0.009 A 
ATOM     28  C   UNL     1       4.313   0.041  23.226  0.00  0.00    +0.055 A 
ATOM     29  C   UNL     1       3.049   0.299  21.184  0.00  0.00    +0.001 A 
ATOM     30  C   UNL     1       4.271   0.296  21.855  0.00  0.00    +0.012 A 
BRANCH  28  31
ATOM      1  F   UNL     1       5.689  -0.879  24.952  0.00  0.00    -0.166 F 
ATOM      2  F   UNL     1       5.898   1.243  24.528  0.00  0.00    -0.166 F 
ATOM      3  F   UNL     1       6.688  -0.232  23.140  0.00  0.00    -0.166 F 
ATOM     31  C   UNL     1       5.619   0.040  23.946  0.00  0.00    +0.417 C 
ENDBRANCH  28  31
ENDBRANCH  20  23
TORSDOF 3
ENDMDL
MODEL 2
REMARK VINA RESULT:       6.9      4.060      6.196
REMARK  Name = 25388703
REMARK  3 active torsions:
REMARK  status: ('A' for Active; 'I' for Inactive)
REMARK    1  A    between atoms: C_19  and  C_22
REMARK    2  A    between atoms: C_20  and  C_23
REMARK    3  A    between atoms: C_28  and  C_31
REMARK                            x       y       z     vdW  Elec       q    Type
REMARK                         _______ _______ _______ _____ _____    ______ ____
ROOT
ATOM      4  O   UNL     1      -1.889   3.761  27.477  0.00  0.00    -0.267 OA
ATOM      5  O   UNL     1      -4.948  -0.075  26.075  0.00  0.00    -0.270 OA
ATOM      6  N   UNL     1      -4.254   0.979  24.105  0.00  0.00    -0.296 N 
ATOM      7  N   UNL     1      -2.269   3.148  25.259  0.00  0.00    -0.311 N 
ATOM     10  C   UNL     1      -4.542   3.448  24.117  0.00  0.00    +0.027 C 
ATOM     11  C   UNL     1      -2.669   2.443  22.875  0.00  0.00    +0.054 C 
ATOM     12  C   UNL     1      -3.727   3.545  22.832  0.00  0.00    +0.018 C 
ATOM     13  C   UNL     1      -5.221   2.070  24.219  0.00  0.00    +0.113 C 
ATOM     14  C   UNL     1      -3.619   3.728  25.309  0.00  0.00    +0.130 C 
ATOM     15  C   UNL     1      -3.361   1.065  22.938  0.00  0.00    +0.117 C 
ATOM     16  C   UNL     1      -1.758   2.608  24.076  0.00  0.00    +0.027 A 
ATOM     17  C   UNL     1      -0.481   2.196  24.018  0.00  0.00    +0.022 A 
ATOM     18  C   UNL     1      -1.487   3.260  26.425  0.00  0.00    +0.259 A 
ATOM     19  C   UNL     1      -4.203  -0.002  25.098  0.00  0.00    +0.250 C 
ATOM     20  C   UNL     1      -0.075   2.746  26.342  0.00  0.00    +0.047 A 
ATOM     21  C   UNL     1       0.368   2.263  25.172  0.00  0.00    +0.015 A 
ENDROOT
BRANCH  19  22
ATOM      8  N   UNL     1      -0.901  -1.752  25.396  0.00  0.00    -0.243 NA
ATOM      9  N   UNL     1      -2.468  -3.233  24.319  0.00  0.00    -0.243 NA
ATOM     22  C   UNL     1      -3.163  -1.031  24.998  0.00  0.00    +0.073 A 
ATOM     26  C   UNL     1      -1.883  -0.828  25.471  0.00  0.00    +0.127 A 
ATOM     27  C   UNL     1      -3.401  -2.264  24.426  0.00  0.00    +0.127 A 
ATOM     32  C   UNL     1      -1.258  -2.915  24.817  0.00  0.00    +0.221 A 
ENDBRANCH  19  22
BRANCH  20  23
ATOM     23  C   UNL     1       0.809   2.752  27.521  0.00  0.00    -0.012 A 
ATOM     24  C   UNL     1       0.263   2.706  28.803  0.00  0.00    +0.021 A 
ATOM     25  C   UNL     1       2.193   2.805  27.354  0.00  0.00    +0.009 A 
ATOM     28  C   UNL     1       1.100   2.712  29.919  0.00  0.00    +0.055 A 
ATOM     29  C   UNL     1       3.030   2.811  28.470  0.00  0.00    +0.001 A 
ATOM     30  C   UNL     1       2.484   2.764  29.752  0.00  0.00    +0.012 A 
BRANCH  28  31
ATOM      1  F   UNL     1      -0.812   2.343  31.308  0.00  0.00    -0.166 F 
ATOM      2  F   UNL     1       0.612   3.858  31.944  0.00  0.00    -0.166 F 
ATOM      3  F   UNL     1       1.113   1.749  32.108  0.00  0.00    -0.166 F 
ATOM     31  C   UNL     1       0.515   2.664  31.290  0.00  0.00    +0.417 C 
ENDBRANCH  28  31
ENDBRANCH  20  23
TORSDOF 3
ENDMDL
MODEL 3
REMARK VINA RESULT:       8.9      2.105      4.281
REMARK  Name = 25388703
REMARK  3 active torsions:
REMARK  status: ('A' for Active; 'I' for Inactive)
REMARK    1  A    between atoms: C_19  and  C_22
REMARK    2  A    between atoms: C_20  and  C_23
REMARK    3  A    between atoms: C_28  and  C_31
REMARK                            x       y       z     vdW  Elec       q    Type
REMARK                         _______ _______ _______ _____ _____    ______ ____
ROOT
ATOM      4  O   UNL     1       0.691   2.353  25.314  0.00  0.00    -0.267 OA
ATOM      5  O   UNL     1      -2.982  -0.727  27.064  0.00  0.00    -0.270 OA
ATOM      6  N   UNL     1      -3.931   0.525  25.331  0.00  0.00    -0.296 N 
ATOM      7  N   UNL     1      -1.423   2.171  24.344  0.00  0.00    -0.311 N 
ATOM     10  C   UNL     1      -3.553   2.974  25.520  0.00  0.00    +0.027 C 
ATOM     11  C   UNL     1      -3.700   1.929  23.296  0.00  0.00    +0.054 C 
ATOM     12  C   UNL     1      -4.094   3.162  24.107  0.00  0.00    +0.018 C 
ATOM     13  C   UNL     1      -4.152   1.709  26.160  0.00  0.00    +0.113 C 
ATOM     14  C   UNL     1      -2.021   2.921  25.458  0.00  0.00    +0.130 C 
ATOM     15  C   UNL     1      -4.337   0.672  23.923  0.00  0.00    +0.117 C 
ATOM     16  C   UNL     1      -2.192   1.764  23.252  0.00  0.00    +0.027 A 
ATOM     17  C   UNL     1      -1.606   1.189  22.189  0.00  0.00    +0.022 A 
ATOM     18  C   UNL     1      -0.028   1.978  24.385  0.00  0.00    +0.259 A 
ATOM     19  C   UNL     1      -3.324  -0.602  25.889  0.00  0.00    +0.250 C 
ATOM     20  C   UNL     1       0.593   1.289  23.200  0.00  0.00    +0.047 A 
ATOM     21  C   UNL     1      -0.193   0.945  22.169  0.00  0.00    +0.015 A 
ENDROOT
BRANCH  19  22
ATOM      8  N   UNL     1      -1.457  -3.071  23.774  0.00  0.00    -0.243 NA
ATOM      9  N   UNL     1      -3.799  -3.636  23.737  0.00  0.00    -0.243 NA
ATOM     22  C   UNL     1      -3.037  -1.739  25.008  0.00  0.00    +0.073 A 
ATOM     26  C   UNL     1      -1.757  -2.035  24.584  0.00  0.00    +0.127 A 
ATOM     27  C   UNL     1      -4.028  -2.581  24.548  0.00  0.00    +0.127 A 
ATOM     32  C   UNL     1      -2.511  -3.820  23.394  0.00  0.00    +0.221 A 
ENDBRANCH  19  22
BRANCH  20  23
ATOM     23  C   UNL     1       2.033   0.977  23.169  0.00  0.00    -0.012 A 
ATOM     24  C   UNL     1       2.483  -0.281  23.570  0.00  0.00    +0.021 A 
ATOM     25  C   UNL     1       2.945   1.940  22.738  0.00  0.00    +0.009 A 
ATOM     28  C   UNL     1       3.845  -0.577  23.540  0.00  0.00    +0.055 A 
ATOM     29  C   UNL     1       4.308   1.644  22.709  0.00  0.00    +0.001 A 
ATOM     30  C   UNL     1       4.758   0.386  23.109  0.00  0.00    +0.012 A 
BRANCH  28  31
ATOM      1  F   UNL     1       3.430  -2.600  24.746  0.00  0.00    -0.166 F 
ATOM      2  F   UNL     1       5.473  -1.857  24.707  0.00  0.00    -0.166 F 
ATOM      3  F   UNL     1       4.605  -2.761  22.930  0.00  0.00    -0.166 F 
ATOM     31  C   UNL     1       4.326  -1.921  23.971  0.00  0.00    +0.417 C 
ENDBRANCH  28  31
ENDBRANCH  20  23
TORSDOF 3
ENDMDL
MODEL 4
REMARK VINA RESULT:       8.9      1.934      4.196
REMARK  Name = 25388703
REMARK  3 active torsions:
REMARK  status: ('A' for Active; 'I' for Inactive)
REMARK    1  A    between atoms: C_19  and  C_22
REMARK    2  A    between atoms: C_20  and  C_23
REMARK    3  A    between atoms: C_28  and  C_31
REMARK                            x       y       z     vdW  Elec       q    Type
REMARK                         _______ _______ _______ _____ _____    ______ ____
ROOT
ATOM      4  O   UNL     1       0.591   1.871  25.478  0.00  0.00    -0.267 OA
ATOM      5  O   UNL     1      -3.936   0.086  27.013  0.00  0.00    -0.270 OA
ATOM      6  N   UNL     1      -4.346   1.417  25.133  0.00  0.00    -0.296 N 
ATOM      7  N   UNL     1      -1.402   2.214  24.316  0.00  0.00    -0.311 N 
ATOM     10  C   UNL     1      -3.300   3.669  25.234  0.00  0.00    +0.027 C 
ATOM     11  C   UNL     1      -3.561   2.540  23.062  0.00  0.00    +0.054 C 
ATOM     12  C   UNL     1      -3.650   3.893  23.767  0.00  0.00    +0.018 C 
ATOM     13  C   UNL     1      -4.285   2.675  25.876  0.00  0.00    +0.113 C 
ATOM     14  C   UNL     1      -1.847   3.185  25.326  0.00  0.00    +0.130 C 
ATOM     15  C   UNL     1      -4.580   1.564  23.687  0.00  0.00    +0.117 C 
ATOM     16  C   UNL     1      -2.166   1.957  23.175  0.00  0.00    +0.027 A 
ATOM     17  C   UNL     1      -1.685   1.161  22.205  0.00  0.00    +0.022 A 
ATOM     18  C   UNL     1      -0.128   1.642  24.503  0.00  0.00    +0.259 A 
ATOM     19  C   UNL     1      -4.133   0.211  25.805  0.00  0.00    +0.250 C 
ATOM     20  C   UNL     1       0.363   0.719  23.422  0.00  0.00    +0.047 A 
ATOM     21  C   UNL     1      -0.404   0.531  22.337  0.00  0.00    +0.015 A 
ENDROOT
BRANCH  19  22
ATOM      8  N   UNL     1      -3.389  -3.302  24.727  0.00  0.00    -0.243 NA
ATOM      9  N   UNL     1      -4.780  -2.258  23.058  0.00  0.00    -0.243 NA
ATOM     22  C   UNL     1      -4.113  -1.024  25.014  0.00  0.00    +0.073 A 
ATOM     26  C   UNL     1      -3.429  -2.149  25.428  0.00  0.00    +0.127 A 
ATOM     27  C   UNL     1      -4.777  -1.137  23.810  0.00  0.00    +0.127 A 
ATOM     32  C   UNL     1      -4.077  -3.286  23.568  0.00  0.00    +0.221 A 
ENDBRANCH  19  22
BRANCH  20  23
ATOM     23  C   UNL     1       1.651   0.014  23.548  0.00  0.00    -0.012 A 
ATOM     24  C   UNL     1       2.847   0.713  23.391  0.00  0.00    +0.021 A 
ATOM     25  C   UNL     1       1.672  -1.354  23.821  0.00  0.00    +0.009 A 
ATOM     28  C   UNL     1       4.066   0.046  23.510  0.00  0.00    +0.055 A 
ATOM     29  C   UNL     1       2.891  -2.021  23.939  0.00  0.00    +0.001 A 
ATOM     30  C   UNL     1       4.088  -1.322  23.784  0.00  0.00    +0.012 A 
BRANCH  28  31
ATOM      1  F   UNL     1       5.950   1.116  24.523  0.00  0.00    -0.166 F 
ATOM      2  F   UNL     1       5.178   1.977  22.682  0.00  0.00    -0.166 F 
ATOM      3  F   UNL     1       6.290   0.110  22.632  0.00  0.00    -0.166 F 
ATOM     31  C   UNL     1       5.345   0.794  23.342  0.00  0.00    +0.417 C 
ENDBRANCH  28  31
ENDBRANCH  20  23
TORSDOF 3
ENDMDL
MODEL 5
REMARK VINA RESULT:      10.1      3.270      5.641
REMARK  Name = 25388703
REMARK  3 active torsions:
REMARK  status: ('A' for Active; 'I' for Inactive)
REMARK    1  A    between atoms: C_19  and  C_22
REMARK    2  A    between atoms: C_20  and  C_23
REMARK    3  A    between atoms: C_28  and  C_31
REMARK                            x       y       z     vdW  Elec       q    Type
REMARK                         _______ _______ _______ _____ _____    ______ ____
ROOT
ATOM      4  O   UNL     1      -2.155   3.797  27.321  0.00  0.00    -0.267 OA
ATOM      5  O   UNL     1      -5.290   0.097  25.733  0.00  0.00    -0.270 OA
ATOM      6  N   UNL     1      -4.360   1.055  23.811  0.00  0.00    -0.296 N 
ATOM      7  N   UNL     1      -2.367   3.142  25.093  0.00  0.00    -0.311 N 
ATOM     10  C   UNL     1      -4.506   3.535  23.739  0.00  0.00    +0.027 C 
ATOM     11  C   UNL     1      -2.589   2.393  22.699  0.00  0.00    +0.054 C 
ATOM     12  C   UNL     1      -3.573   3.550  22.533  0.00  0.00    +0.018 C 
ATOM     13  C   UNL     1      -5.270   2.200  23.810  0.00  0.00    +0.113 C 
ATOM     14  C   UNL     1      -3.680   3.797  25.005  0.00  0.00    +0.130 C 
ATOM     15  C   UNL     1      -3.361   1.058  22.730  0.00  0.00    +0.117 C 
ATOM     16  C   UNL     1      -1.783   2.541  23.975  0.00  0.00    +0.027 A 
ATOM     17  C   UNL     1      -0.531   2.058  24.045  0.00  0.00    +0.022 A 
ATOM     18  C   UNL     1      -1.689   3.244  26.323  0.00  0.00    +0.259 A 
ATOM     19  C   UNL     1      -4.457   0.101  24.827  0.00  0.00    +0.250 C 
ATOM     20  C   UNL     1      -0.307   2.651  26.383  0.00  0.00    +0.047 A 
ATOM     21  C   UNL     1       0.212   2.111  25.270  0.00  0.00    +0.015 A 
ENDROOT
BRANCH  19  22
ATOM      8  N   UNL     1      -1.277  -1.798  25.407  0.00  0.00    -0.243 NA
ATOM      9  N   UNL     1      -2.872  -3.264  24.351  0.00  0.00    -0.243 NA
ATOM     22  C   UNL     1      -3.473  -0.986  24.848  0.00  0.00    +0.073 A 
ATOM     26  C   UNL     1      -2.207  -0.821  25.371  0.00  0.00    +0.127 A 
ATOM     27  C   UNL     1      -3.753  -2.241  24.347  0.00  0.00    +0.127 A 
ATOM     32  C   UNL     1      -1.671  -2.977  24.888  0.00  0.00    +0.221 A 
ENDBRANCH  19  22
BRANCH  20  23
ATOM     23  C   UNL     1       0.465   2.642  27.638  0.00  0.00    -0.012 A 
ATOM     24  C   UNL     1       1.801   3.042  27.638  0.00  0.00    +0.021 A 
ATOM     25  C   UNL     1      -0.141   2.231  28.825  0.00  0.00    +0.009 A 
ATOM     28  C   UNL     1       2.532   3.032  28.826  0.00  0.00    +0.055 A 
ATOM     29  C   UNL     1       0.590   2.221  30.013  0.00  0.00    +0.001 A 
ATOM     30  C   UNL     1       1.926   2.622  30.014  0.00  0.00    +0.012 A 
BRANCH  28  31
ATOM      1  F   UNL     1       4.442   3.761  30.067  0.00  0.00    -0.166 F 
ATOM      2  F   UNL     1       4.174   4.574  28.069  0.00  0.00    -0.166 F 
ATOM      3  F   UNL     1       4.814   2.513  28.333  0.00  0.00    -0.166 F 
ATOM     31  C   UNL     1       3.960   3.459  28.826  0.00  0.00    +0.417 C 
ENDBRANCH  28  31
ENDBRANCH  20  23
TORSDOF 3
ENDMDL
