MODEL 1
REMARK VINA RESULT:      -1.8      0.000      0.000
REMARK  Name = 25390149
REMARK  12 active torsions:
REMARK  status: ('A' for Active; 'I' for Inactive)
REMARK    1  A    between atoms: O_5  and  C_14
REMARK    2  A    between atoms: O_6  and  C_15
REMARK    3  A    between atoms: O_9  and  C_31
REMARK    4  A    between atoms: O_9  and  C_32
REMARK    5  A    between atoms: N_10  and  C_19
REMARK    6  A    between atoms: N_12  and  C_23
REMARK    7  A    between atoms: C_16  and  C_18
REMARK    8  A    between atoms: C_17  and  C_19
REMARK    9  A    between atoms: C_18  and  C_20
REMARK   10  A    between atoms: C_22  and  C_24
REMARK   11  A    between atoms: C_23  and  C_25
REMARK   12  A    between atoms: C_23  and  C_26
REMARK                            x       y       z     vdW  Elec       q    Type
REMARK                         _______ _______ _______ _____ _____    ______ ____
ROOT
ATOM      4  O   UNL     1      -4.098   1.911  25.848  0.00  0.00    -0.366 OA
ATOM     14  C   UNL     1      -5.734   3.546  25.388  0.00  0.00    +0.175 C 
ATOM     15  C   UNL     1      -6.445   2.300  25.872  0.00  0.00    +0.176 C 
ATOM     16  C   UNL     1      -4.332   3.327  25.933  0.00  0.00    +0.159 C 
ATOM     17  C   UNL     1      -5.368   1.234  25.704  0.00  0.00    +0.167 C 
ENDROOT
BRANCH  14   5
ATOM      5  O   UNL     1      -6.310   4.742  25.870  0.00  0.00    -0.387 OA
ATOM     33  H   UNL     1      -5.987   4.875  26.777  0.00  0.00    +0.210 HD
ENDBRANCH  14   5
BRANCH  15   6
ATOM      6  O   UNL     1      -6.745   2.410  27.263  0.00  0.00    -0.387 OA
ATOM     34  H   UNL     1      -6.569   1.543  27.668  0.00  0.00    +0.210 HD
ENDBRANCH  15   6
BRANCH  16  18
ATOM     18  C   UNL     1      -3.261   4.071  25.154  0.00  0.00    +0.133 C 
BRANCH  18  20
ATOM      7  O   UNL     1      -2.980   2.525  23.289  0.00  0.00    -0.338 OA
ATOM     11  N   UNL     1      -1.140   2.803  24.535  0.00  0.00    -0.191 NA
ATOM     13  N   UNL     1      -1.994   1.714  22.714  0.00  0.00    -0.056 NA
ATOM     20  C   UNL     1      -2.394   3.132  24.354  0.00  0.00    +0.230 A 
ATOM     22  C   UNL     1      -0.939   1.932  23.505  0.00  0.00    +0.202 A 
BRANCH  22  24
ATOM     24  C   UNL     1       0.329   1.296  23.292  0.00  0.00    +0.023 A 
ATOM     27  C   UNL     1       1.502   1.912  23.730  0.00  0.00    +0.015 A 
ATOM     28  C   UNL     1       0.389   0.061  22.647  0.00  0.00    +0.015 A 
ATOM     29  C   UNL     1       2.734   1.293  23.523  0.00  0.00    +0.046 A 
ATOM     30  C   UNL     1       1.622  -0.558  22.438  0.00  0.00    +0.046 A 
ATOM     31  C   UNL     1       2.794   0.058  22.877  0.00  0.00    +0.130 A 
BRANCH  31   9
ATOM      9  O   UNL     1       3.997  -0.546  22.673  0.00  0.00    -0.406 OA
BRANCH   9  32
ATOM      1  F   UNL     1       6.246  -0.377  22.748  0.00  0.00    -0.133 F 
ATOM      2  F   UNL     1       5.065   1.241  23.622  0.00  0.00    -0.133 F 
ATOM      3  F   UNL     1       5.179  -0.726  24.623  0.00  0.00    -0.133 F 
ATOM     32  C   UNL     1       5.114  -0.095  23.431  0.00  0.00    +0.575 C 
ENDBRANCH   9  32
ENDBRANCH  31   9
ENDBRANCH  22  24
ENDBRANCH  18  20
ENDBRANCH  16  18
BRANCH  17  19
ATOM     19  C   UNL     1      -5.391   0.574  24.332  0.00  0.00    +0.140 C 
BRANCH  19  10
ATOM      8  O   UNL     1      -3.999  -1.536  25.724  0.00  0.00    -0.253 OA
ATOM     10  N   UNL     1      -4.112   0.019  24.002  0.00  0.00    -0.297 N 
ATOM     12  N   UNL     1      -2.265  -1.354  24.193  0.00  0.00    -0.297 N 
ATOM     21  C   UNL     1      -3.502  -1.006  24.731  0.00  0.00    +0.300 C 
ATOM     35  H   UNL     1      -3.627   0.385  23.188  0.00  0.00    +0.150 HD
ATOM     36  H   UNL     1      -1.938  -0.860  23.369  0.00  0.00    +0.150 HD
BRANCH  12  23
ATOM     23  C   UNL     1      -1.429  -2.387  24.758  0.00  0.00    +0.068 C 
ATOM     25  C   UNL     1      -0.224  -1.770  25.457  0.00  0.00    +0.027 C 
ATOM     26  C   UNL     1      -0.996  -3.373  23.679  0.00  0.00    +0.027 C 
ENDBRANCH  12  23
ENDBRANCH  19  10
ENDBRANCH  17  19
TORSDOF 10
ENDMDL
MODEL 2
REMARK VINA RESULT:      -0.5      2.017      3.500
REMARK  Name = 25390149
REMARK  12 active torsions:
REMARK  status: ('A' for Active; 'I' for Inactive)
REMARK    1  A    between atoms: O_5  and  C_14
REMARK    2  A    between atoms: O_6  and  C_15
REMARK    3  A    between atoms: O_9  and  C_31
REMARK    4  A    between atoms: O_9  and  C_32
REMARK    5  A    between atoms: N_10  and  C_19
REMARK    6  A    between atoms: N_12  and  C_23
REMARK    7  A    between atoms: C_16  and  C_18
REMARK    8  A    between atoms: C_17  and  C_19
REMARK    9  A    between atoms: C_18  and  C_20
REMARK   10  A    between atoms: C_22  and  C_24
REMARK   11  A    between atoms: C_23  and  C_25
REMARK   12  A    between atoms: C_23  and  C_26
REMARK                            x       y       z     vdW  Elec       q    Type
REMARK                         _______ _______ _______ _____ _____    ______ ____
ROOT
ATOM      4  O   UNL     1      -4.541   2.814  23.699  0.00  0.00    -0.366 OA
ATOM     14  C   UNL     1      -5.031   2.455  25.978  0.00  0.00    +0.175 C 
ATOM     15  C   UNL     1      -4.933   3.950  25.752  0.00  0.00    +0.176 C 
ATOM     16  C   UNL     1      -5.295   1.952  24.569  0.00  0.00    +0.159 C 
ATOM     17  C   UNL     1      -4.201   4.022  24.417  0.00  0.00    +0.167 C 
ENDROOT
BRANCH  14   5
ATOM      5  O   UNL     1      -6.060   2.090  26.873  0.00  0.00    -0.387 OA
ATOM     33  H   UNL     1      -6.892   2.452  26.523  0.00  0.00    +0.210 HD
ENDBRANCH  14   5
BRANCH  15   6
ATOM      6  O   UNL     1      -6.235   4.509  25.575  0.00  0.00    -0.387 OA
ATOM     34  H   UNL     1      -6.365   4.643  24.619  0.00  0.00    +0.210 HD
ENDBRANCH  15   6
BRANCH  16  18
ATOM     18  C   UNL     1      -4.869   0.510  24.355  0.00  0.00    +0.133 C 
BRANCH  18  20
ATOM      7  O   UNL     1      -2.957  -0.163  25.709  0.00  0.00    -0.338 OA
ATOM     11  N   UNL     1      -2.417   0.593  23.671  0.00  0.00    -0.191 NA
ATOM     13  N   UNL     1      -1.561  -0.235  25.624  0.00  0.00    -0.056 NA
ATOM     20  C   UNL     1      -3.382   0.333  24.518  0.00  0.00    +0.230 A 
ATOM     22  C   UNL     1      -1.319   0.228  24.394  0.00  0.00    +0.202 A 
BRANCH  22  24
ATOM     24  C   UNL     1       0.006   0.338  23.858  0.00  0.00    +0.023 A 
ATOM     27  C   UNL     1       0.802   1.438  24.181  0.00  0.00    +0.015 A 
ATOM     28  C   UNL     1       0.501  -0.656  23.014  0.00  0.00    +0.015 A 
ATOM     29  C   UNL     1       2.091   1.544  23.659  0.00  0.00    +0.046 A 
ATOM     30  C   UNL     1       1.791  -0.550  22.491  0.00  0.00    +0.046 A 
ATOM     31  C   UNL     1       2.585   0.550  22.814  0.00  0.00    +0.130 A 
BRANCH  31   9
ATOM      9  O   UNL     1       3.843   0.654  22.304  0.00  0.00    -0.406 OA
BRANCH   9  32
ATOM      1  F   UNL     1       5.300   1.046  23.981  0.00  0.00    -0.133 F 
ATOM      2  F   UNL     1       4.554  -0.992  23.724  0.00  0.00    -0.133 F 
ATOM      3  F   UNL     1       5.989  -0.137  22.278  0.00  0.00    -0.133 F 
ATOM     32  C   UNL     1       4.924   0.126  23.065  0.00  0.00    +0.575 C 
ENDBRANCH   9  32
ENDBRANCH  31   9
ENDBRANCH  22  24
ENDBRANCH  18  20
ENDBRANCH  16  18
BRANCH  17  19
ATOM     19  C   UNL     1      -2.686   4.063  24.570  0.00  0.00    +0.140 C 
BRANCH  19  10
ATOM      8  O   UNL     1       0.007   3.805  25.573  0.00  0.00    -0.253 OA
ATOM     10  N   UNL     1      -2.262   3.329  25.724  0.00  0.00    -0.297 N 
ATOM     12  N   UNL     1      -0.800   2.475  27.294  0.00  0.00    -0.297 N 
ATOM     21  C   UNL     1      -0.931   3.252  26.146  0.00  0.00    +0.300 C 
ATOM     35  H   UNL     1      -2.969   2.847  26.271  0.00  0.00    +0.150 HD
ATOM     36  H   UNL     1      -1.634   2.059  27.697  0.00  0.00    +0.150 HD
BRANCH  12  23
ATOM     23  C   UNL     1       0.471   2.235  27.936  0.00  0.00    +0.068 C 
ATOM     25  C   UNL     1       0.384   2.565  29.421  0.00  0.00    +0.027 C 
ATOM     26  C   UNL     1       1.573   3.038  27.256  0.00  0.00    +0.027 C 
ENDBRANCH  12  23
ENDBRANCH  19  10
ENDBRANCH  17  19
TORSDOF 10
ENDMDL
MODEL 3
REMARK VINA RESULT:      -0.1      1.184      1.721
REMARK  Name = 25390149
REMARK  12 active torsions:
REMARK  status: ('A' for Active; 'I' for Inactive)
REMARK    1  A    between atoms: O_5  and  C_14
REMARK    2  A    between atoms: O_6  and  C_15
REMARK    3  A    between atoms: O_9  and  C_31
REMARK    4  A    between atoms: O_9  and  C_32
REMARK    5  A    between atoms: N_10  and  C_19
REMARK    6  A    between atoms: N_12  and  C_23
REMARK    7  A    between atoms: C_16  and  C_18
REMARK    8  A    between atoms: C_17  and  C_19
REMARK    9  A    between atoms: C_18  and  C_20
REMARK   10  A    between atoms: C_22  and  C_24
REMARK   11  A    between atoms: C_23  and  C_25
REMARK   12  A    between atoms: C_23  and  C_26
REMARK                            x       y       z     vdW  Elec       q    Type
REMARK                         _______ _______ _______ _____ _____    ______ ____
ROOT
ATOM      4  O   UNL     1      -4.923   2.927  26.718  0.00  0.00    -0.366 OA
ATOM     14  C   UNL     1      -4.052   3.977  24.795  0.00  0.00    +0.175 C 
ATOM     15  C   UNL     1      -5.551   3.850  24.617  0.00  0.00    +0.176 C 
ATOM     16  C   UNL     1      -3.914   3.864  26.304  0.00  0.00    +0.159 C 
ATOM     17  C   UNL     1      -5.907   2.802  25.665  0.00  0.00    +0.167 C 
ENDROOT
BRANCH  14   5
ATOM      5  O   UNL     1      -3.532   5.195  24.304  0.00  0.00    -0.387 OA
ATOM     33  H   UNL     1      -3.547   5.833  25.037  0.00  0.00    +0.210 HD
ENDBRANCH  14   5
BRANCH  15   6
ATOM      6  O   UNL     1      -6.197   5.071  24.975  0.00  0.00    -0.387 OA
ATOM     34  H   UNL     1      -5.716   5.794  24.535  0.00  0.00    +0.210 HD
ENDBRANCH  15   6
BRANCH  16  18
ATOM     18  C   UNL     1      -2.547   3.374  26.749  0.00  0.00    +0.133 C 
BRANCH  18  20
ATOM      7  O   UNL     1      -2.504   2.408  24.511  0.00  0.00    -0.338 OA
ATOM     11  N   UNL     1      -0.516   2.423  25.542  0.00  0.00    -0.191 NA
ATOM     13  N   UNL     1      -1.597   1.830  23.614  0.00  0.00    -0.056 NA
ATOM     20  C   UNL     1      -1.786   2.729  25.619  0.00  0.00    +0.230 A 
ATOM     22  C   UNL     1      -0.447   1.875  24.295  0.00  0.00    +0.202 A 
BRANCH  22  24
ATOM     24  C   UNL     1       0.787   1.380  23.756  0.00  0.00    +0.023 A 
ATOM     27  C   UNL     1       1.880   2.237  23.613  0.00  0.00    +0.015 A 
ATOM     28  C   UNL     1       0.896   0.043  23.377  0.00  0.00    +0.015 A 
ATOM     29  C   UNL     1       3.079   1.755  23.089  0.00  0.00    +0.046 A 
ATOM     30  C   UNL     1       2.095  -0.439  22.852  0.00  0.00    +0.046 A 
ATOM     31  C   UNL     1       3.187   0.418  22.708  0.00  0.00    +0.130 A 
BRANCH  31   9
ATOM      9  O   UNL     1       4.357  -0.052  22.196  0.00  0.00    -0.406 OA
BRANCH   9  32
ATOM      1  F   UNL     1       5.636   0.872  23.810  0.00  0.00    -0.133 F 
ATOM      2  F   UNL     1       5.193  -1.264  23.947  0.00  0.00    -0.133 F 
ATOM      3  F   UNL     1       6.588  -0.509  22.408  0.00  0.00    -0.133 F 
ATOM     32  C   UNL     1       5.449  -0.256  23.087  0.00  0.00    +0.575 C 
ENDBRANCH   9  32
ENDBRANCH  31   9
ENDBRANCH  22  24
ENDBRANCH  18  20
ENDBRANCH  16  18
BRANCH  17  19
ATOM     19  C   UNL     1      -5.839   1.377  25.131  0.00  0.00    +0.140 C 
BRANCH  19  10
ATOM      8  O   UNL     1      -4.490  -0.726  23.686  0.00  0.00    -0.253 OA
ATOM     10  N   UNL     1      -4.595   0.755  25.474  0.00  0.00    -0.297 N 
ATOM     12  N   UNL     1      -2.802  -0.687  25.276  0.00  0.00    -0.297 N 
ATOM     21  C   UNL     1      -4.005  -0.263  24.718  0.00  0.00    +0.300 C 
ATOM     35  H   UNL     1      -4.111   1.078  26.306  0.00  0.00    +0.150 HD
ATOM     36  H   UNL     1      -2.480  -0.244  26.132  0.00  0.00    +0.150 HD
BRANCH  12  23
ATOM     23  C   UNL     1      -1.991  -1.729  24.691  0.00  0.00    +0.068 C 
ATOM     25  C   UNL     1      -2.753  -3.048  24.676  0.00  0.00    +0.027 C 
ATOM     26  C   UNL     1      -0.670  -1.863  25.440  0.00  0.00    +0.027 C 
ENDBRANCH  12  23
ENDBRANCH  19  10
ENDBRANCH  17  19
TORSDOF 10
ENDMDL
