MODEL 1
REMARK VINA RESULT:      -0.8      0.000      0.000
REMARK  Name = 75536249
REMARK  9 active torsions:
REMARK  status: ('A' for Active; 'I' for Inactive)
REMARK    1  A    between atoms: O_3  and  C_11
REMARK    2  A    between atoms: N_6  and  C_15
REMARK    3  A    between atoms: N_8  and  C_20
REMARK    4  A    between atoms: C_9  and  C_15
REMARK    5  A    between atoms: C_10  and  C_14
REMARK    6  A    between atoms: C_14  and  C_16
REMARK    7  A    between atoms: C_19  and  C_21
REMARK    8  A    between atoms: C_20  and  C_22
REMARK    9  A    between atoms: C_20  and  C_23
REMARK                            x       y       z     vdW  Elec       q    Type
REMARK                         _______ _______ _______ _____ _____    ______ ____
ROOT
ATOM      2  O   UNL     1      -3.851   2.325  25.820  0.00  0.00    -0.369 OA
ATOM      9  C   UNL     1      -5.032   1.636  25.393  0.00  0.00    +0.164 C 
ATOM     10  C   UNL     1      -3.726   3.668  25.345  0.00  0.00    +0.125 C 
ATOM     11  C   UNL     1      -6.300   2.413  25.768  0.00  0.00    +0.145 C 
ATOM     12  C   UNL     1      -4.916   4.513  25.799  0.00  0.00    +0.034 C 
ATOM     13  C   UNL     1      -6.229   3.878  25.347  0.00  0.00    +0.036 C 
ENDROOT
BRANCH  11   3
ATOM      3  O   UNL     1      -6.461   2.375  27.189  0.00  0.00    -0.389 OA
ATOM     29  H   UNL     1      -7.405   2.230  27.373  0.00  0.00    +0.210 HD
ENDBRANCH  11   3
BRANCH  10  14
ATOM     14  C   UNL     1      -2.422   4.230  25.896  0.00  0.00    +0.090 C 
BRANCH  14  16
ATOM      4  O   UNL     1       0.502   2.122  25.844  0.00  0.00    -0.354 OA
ATOM      7  N   UNL     1      -0.467   2.865  26.508  0.00  0.00    -0.083 NA
ATOM     16  C   UNL     1      -1.246   3.360  25.542  0.00  0.00    +0.087 A 
ATOM     17  C   UNL     1      -0.823   2.966  24.261  0.00  0.00    +0.076 A 
ATOM     19  C   UNL     1       0.280   2.190  24.507  0.00  0.00    +0.167 A 
BRANCH  19  21
ATOM      1  F   UNL     1       3.869  -0.624  21.322  0.00  0.00    -0.205 F 
ATOM     21  C   UNL     1       1.205   1.465  23.685  0.00  0.00    +0.020 A 
ATOM     24  C   UNL     1       0.777   0.339  22.981  0.00  0.00    +0.014 A 
ATOM     25  C   UNL     1       2.532   1.885  23.591  0.00  0.00    +0.014 A 
ATOM     26  C   UNL     1       1.678  -0.367  22.182  0.00  0.00    +0.039 A 
ATOM     27  C   UNL     1       3.432   1.180  22.793  0.00  0.00    +0.039 A 
ATOM     28  C   UNL     1       3.004   0.053  22.088  0.00  0.00    +0.123 A 
ENDBRANCH  19  21
ENDBRANCH  14  16
ENDBRANCH  10  14
BRANCH   9  15
ATOM     15  C   UNL     1      -4.962   1.291  23.907  0.00  0.00    +0.140 C 
BRANCH  15   6
ATOM      5  O   UNL     1      -3.910  -1.023  25.272  0.00  0.00    -0.253 OA
ATOM      6  N   UNL     1      -3.756   0.583  23.601  0.00  0.00    -0.297 N 
ATOM      8  N   UNL     1      -2.112  -1.028  23.806  0.00  0.00    -0.297 N 
ATOM     18  C   UNL     1      -3.311  -0.535  24.314  0.00  0.00    +0.300 C 
ATOM     30  H   UNL     1      -3.169   0.938  22.852  0.00  0.00    +0.150 HD
ATOM     31  H   UNL     1      -1.657  -0.512  23.058  0.00  0.00    +0.150 HD
BRANCH   8  20
ATOM     20  C   UNL     1      -1.439  -2.177  24.363  0.00  0.00    +0.068 C 
ATOM     22  C   UNL     1      -2.451  -3.246  24.753  0.00  0.00    +0.027 C 
ATOM     23  C   UNL     1      -0.581  -1.767  25.555  0.00  0.00    +0.027 C 
ENDBRANCH   8  20
ENDBRANCH  15   6
ENDBRANCH   9  15
TORSDOF 7
ENDMDL
MODEL 2
REMARK VINA RESULT:      -0.1      1.991      3.573
REMARK  Name = 75536249
REMARK  9 active torsions:
REMARK  status: ('A' for Active; 'I' for Inactive)
REMARK    1  A    between atoms: O_3  and  C_11
REMARK    2  A    between atoms: N_6  and  C_15
REMARK    3  A    between atoms: N_8  and  C_20
REMARK    4  A    between atoms: C_9  and  C_15
REMARK    5  A    between atoms: C_10  and  C_14
REMARK    6  A    between atoms: C_14  and  C_16
REMARK    7  A    between atoms: C_19  and  C_21
REMARK    8  A    between atoms: C_20  and  C_22
REMARK    9  A    between atoms: C_20  and  C_23
REMARK                            x       y       z     vdW  Elec       q    Type
REMARK                         _______ _______ _______ _____ _____    ______ ____
ROOT
ATOM      2  O   UNL     1      -4.571   2.534  23.771  0.00  0.00    -0.369 OA
ATOM      9  C   UNL     1      -5.358   3.154  24.796  0.00  0.00    +0.164 C 
ATOM     10  C   UNL     1      -3.752   1.447  24.208  0.00  0.00    +0.125 C 
ATOM     11  C   UNL     1      -6.241   2.129  25.520  0.00  0.00    +0.145 C 
ATOM     12  C   UNL     1      -4.608   0.345  24.832  0.00  0.00    +0.034 C 
ATOM     13  C   UNL     1      -5.454   0.903  25.973  0.00  0.00    +0.036 C 
ENDROOT
BRANCH  11   3
ATOM      3  O   UNL     1      -7.262   1.686  24.622  0.00  0.00    -0.389 OA
ATOM     29  H   UNL     1      -7.980   1.307  25.158  0.00  0.00    +0.210 HD
ENDBRANCH  11   3
BRANCH  10  14
ATOM     14  C   UNL     1      -2.997   0.924  22.992  0.00  0.00    +0.090 C 
BRANCH  14  16
ATOM      4  O   UNL     1      -0.009  -0.489  24.430  0.00  0.00    -0.354 OA
ATOM      7  N   UNL     1      -1.385  -0.302  24.391  0.00  0.00    -0.083 NA
ATOM     16  C   UNL     1      -1.597   0.501  23.345  0.00  0.00    +0.087 A 
ATOM     17  C   UNL     1      -0.402   0.851  22.691  0.00  0.00    +0.076 A 
ATOM     19  C   UNL     1       0.566   0.203  23.413  0.00  0.00    +0.167 A 
BRANCH  19  21
ATOM      1  F   UNL     1       6.104  -0.178  23.064  0.00  0.00    -0.205 F 
ATOM     21  C   UNL     1       1.993   0.104  23.322  0.00  0.00    +0.020 A 
ATOM     24  C   UNL     1       2.633  -1.090  23.658  0.00  0.00    +0.014 A 
ATOM     25  C   UNL     1       2.743   1.202  22.899  0.00  0.00    +0.014 A 
ATOM     26  C   UNL     1       4.022  -1.185  23.571  0.00  0.00    +0.039 A 
ATOM     27  C   UNL     1       4.131   1.107  22.812  0.00  0.00    +0.039 A 
ATOM     28  C   UNL     1       4.771  -0.087  23.148  0.00  0.00    +0.123 A 
ENDBRANCH  19  21
ENDBRANCH  14  16
ENDBRANCH  10  14
BRANCH   9  15
ATOM     15  C   UNL     1      -4.482   3.965  25.749  0.00  0.00    +0.140 C 
BRANCH  15   6
ATOM      5  O   UNL     1      -1.720   4.221  24.953  0.00  0.00    -0.253 OA
ATOM      6  N   UNL     1      -3.375   3.187  26.215  0.00  0.00    -0.297 N 
ATOM      8  N   UNL     1      -1.181   2.483  26.392  0.00  0.00    -0.297 N 
ATOM     18  C   UNL     1      -2.059   3.373  25.778  0.00  0.00    +0.300 C 
ATOM     30  H   UNL     1      -3.561   2.430  26.866  0.00  0.00    +0.150 HD
ATOM     31  H   UNL     1      -1.566   1.771  27.005  0.00  0.00    +0.150 HD
BRANCH   8  20
ATOM     20  C   UNL     1       0.236   2.465  26.116  0.00  0.00    +0.068 C 
ATOM     22  C   UNL     1       1.027   2.782  27.378  0.00  0.00    +0.027 C 
ATOM     23  C   UNL     1       0.574   3.440  24.993  0.00  0.00    +0.027 C 
ENDBRANCH   8  20
ENDBRANCH  15   6
ENDBRANCH   9  15
TORSDOF 7
ENDMDL
MODEL 3
REMARK VINA RESULT:       0.3      2.042      4.526
REMARK  Name = 75536249
REMARK  9 active torsions:
REMARK  status: ('A' for Active; 'I' for Inactive)
REMARK    1  A    between atoms: O_3  and  C_11
REMARK    2  A    between atoms: N_6  and  C_15
REMARK    3  A    between atoms: N_8  and  C_20
REMARK    4  A    between atoms: C_9  and  C_15
REMARK    5  A    between atoms: C_10  and  C_14
REMARK    6  A    between atoms: C_14  and  C_16
REMARK    7  A    between atoms: C_19  and  C_21
REMARK    8  A    between atoms: C_20  and  C_22
REMARK    9  A    between atoms: C_20  and  C_23
REMARK                            x       y       z     vdW  Elec       q    Type
REMARK                         _______ _______ _______ _____ _____    ______ ____
ROOT
ATOM      2  O   UNL     1      -3.678  -0.292  23.354  0.00  0.00    -0.369 OA
ATOM      9  C   UNL     1      -4.593  -0.820  24.322  0.00  0.00    +0.164 C 
ATOM     10  C   UNL     1      -2.384   0.042  23.860  0.00  0.00    +0.125 C 
ATOM     11  C   UNL     1      -4.007  -2.047  25.033  0.00  0.00    +0.145 C 
ATOM     12  C   UNL     1      -1.712  -1.185  24.475  0.00  0.00    +0.034 C 
ATOM     13  C   UNL     1      -2.597  -1.795  25.558  0.00  0.00    +0.036 C 
ENDROOT
BRANCH  11   3
ATOM      3  O   UNL     1      -3.940  -3.131  24.103  0.00  0.00    -0.389 OA
ATOM     29  H   UNL     1      -3.242  -2.921  23.458  0.00  0.00    +0.210 HD
ENDBRANCH  11   3
BRANCH  10  14
ATOM     14  C   UNL     1      -1.562   0.584  22.697  0.00  0.00    +0.090 C 
BRANCH  14  16
ATOM      4  O   UNL     1       1.665   1.583  23.955  0.00  0.00    -0.354 OA
ATOM      7  N   UNL     1       0.293   1.753  23.815  0.00  0.00    -0.083 NA
ATOM     16  C   UNL     1      -0.109   0.727  23.060  0.00  0.00    +0.087 A 
ATOM     17  C   UNL     1       0.956  -0.117  22.697  0.00  0.00    +0.076 A 
ATOM     19  C   UNL     1       2.048   0.466  23.285  0.00  0.00    +0.167 A 
BRANCH  19  21
ATOM      1  F   UNL     1       7.475  -0.734  23.502  0.00  0.00    -0.205 F 
ATOM     21  C   UNL     1       3.447   0.156  23.340  0.00  0.00    +0.020 A 
ATOM     24  C   UNL     1       3.865  -1.112  23.745  0.00  0.00    +0.014 A 
ATOM     25  C   UNL     1       4.390   1.123  22.989  0.00  0.00    +0.014 A 
ATOM     26  C   UNL     1       5.227  -1.412  23.800  0.00  0.00    +0.039 A 
ATOM     27  C   UNL     1       5.750   0.823  23.044  0.00  0.00    +0.039 A 
ATOM     28  C   UNL     1       6.169  -0.446  23.450  0.00  0.00    +0.123 A 
ENDBRANCH  19  21
ENDBRANCH  14  16
ENDBRANCH  10  14
BRANCH   9  15
ATOM     15  C   UNL     1      -5.058   0.265  25.291  0.00  0.00    +0.140 C 
BRANCH  15   6
ATOM      5  O   UNL     1      -4.677   2.925  24.240  0.00  0.00    -0.253 OA
ATOM      6  N   UNL     1      -3.992   1.169  25.598  0.00  0.00    -0.297 N 
ATOM      8  N   UNL     1      -2.747   3.115  25.514  0.00  0.00    -0.297 N 
ATOM     18  C   UNL     1      -3.876   2.448  25.043  0.00  0.00    +0.300 C 
ATOM     30  H   UNL     1      -3.255   0.848  26.219  0.00  0.00    +0.150 HD
ATOM     31  H   UNL     1      -2.107   2.611  26.120  0.00  0.00    +0.150 HD
BRANCH   8  20
ATOM     20  C   UNL     1      -2.397   4.452  25.097  0.00  0.00    +0.068 C 
ATOM     22  C   UNL     1      -0.883   4.617  25.061  0.00  0.00    +0.027 C 
ATOM     23  C   UNL     1      -3.043   5.484  26.014  0.00  0.00    +0.027 C 
ENDBRANCH   8  20
ENDBRANCH  15   6
ENDBRANCH   9  15
TORSDOF 7
ENDMDL
MODEL 4
REMARK VINA RESULT:       0.4      2.772      5.376
REMARK  Name = 75536249
REMARK  9 active torsions:
REMARK  status: ('A' for Active; 'I' for Inactive)
REMARK    1  A    between atoms: O_3  and  C_11
REMARK    2  A    between atoms: N_6  and  C_15
REMARK    3  A    between atoms: N_8  and  C_20
REMARK    4  A    between atoms: C_9  and  C_15
REMARK    5  A    between atoms: C_10  and  C_14
REMARK    6  A    between atoms: C_14  and  C_16
REMARK    7  A    between atoms: C_19  and  C_21
REMARK    8  A    between atoms: C_20  and  C_22
REMARK    9  A    between atoms: C_20  and  C_23
REMARK                            x       y       z     vdW  Elec       q    Type
REMARK                         _______ _______ _______ _____ _____    ______ ____
ROOT
ATOM      2  O   UNL     1      -1.875   3.546  24.719  0.00  0.00    -0.369 OA
ATOM      9  C   UNL     1      -0.442   3.569  24.693  0.00  0.00    +0.164 C 
ATOM     10  C   UNL     1      -2.484   4.566  25.514  0.00  0.00    +0.125 C 
ATOM     11  C   UNL     1       0.087   4.935  24.238  0.00  0.00    +0.145 C 
ATOM     12  C   UNL     1      -2.076   5.952  25.018  0.00  0.00    +0.034 C 
ATOM     13  C   UNL     1      -0.556   6.090  24.999  0.00  0.00    +0.036 C 
ENDROOT
BRANCH  11   3
ATOM      3  O   UNL     1      -0.213   5.106  22.850  0.00  0.00    -0.389 OA
ATOM     29  H   UNL     1       0.625   5.054  22.359  0.00  0.00    +0.210 HD
ENDBRANCH  11   3
BRANCH  10  14
ATOM     14  C   UNL     1      -3.993   4.379  25.421  0.00  0.00    +0.090 C 
BRANCH  14  16
ATOM      4  O   UNL     1      -5.638   1.188  25.095  0.00  0.00    -0.354 OA
ATOM      7  N   UNL     1      -5.651   2.565  25.285  0.00  0.00    -0.083 NA
ATOM     16  C   UNL     1      -4.367   2.932  25.248  0.00  0.00    +0.087 A 
ATOM     17  C   UNL     1      -3.506   1.840  25.038  0.00  0.00    +0.076 A 
ATOM     19  C   UNL     1      -4.355   0.768  24.949  0.00  0.00    +0.167 A 
BRANCH  19  21
ATOM      1  F   UNL     1      -3.675  -4.693  24.144  0.00  0.00    -0.205 F 
ATOM     21  C   UNL     1      -4.181  -0.639  24.742  0.00  0.00    +0.020 A 
ATOM     24  C   UNL     1      -3.696  -1.442  25.775  0.00  0.00    +0.014 A 
ATOM     25  C   UNL     1      -4.495  -1.207  23.506  0.00  0.00    +0.014 A 
ATOM     26  C   UNL     1      -3.525  -2.812  25.573  0.00  0.00    +0.039 A 
ATOM     27  C   UNL     1      -4.324  -2.576  23.304  0.00  0.00    +0.039 A 
ATOM     28  C   UNL     1      -3.839  -3.379  24.338  0.00  0.00    +0.123 A 
ENDBRANCH  19  21
ENDBRANCH  14  16
ENDBRANCH  10  14
BRANCH   9  15
ATOM     15  C   UNL     1       0.141   3.120  26.031  0.00  0.00    +0.140 C 
BRANCH  15   6
ATOM      5  O   UNL     1       0.088   0.929  24.154  0.00  0.00    -0.253 OA
ATOM      6  N   UNL     1      -0.197   1.756  26.306  0.00  0.00    -0.297 N 
ATOM      8  N   UNL     1      -0.566  -0.484  25.874  0.00  0.00    -0.297 N 
ATOM     18  C   UNL     1      -0.200   0.748  25.336  0.00  0.00    +0.300 C 
ATOM     30  H   UNL     1      -0.493   1.516  27.247  0.00  0.00    +0.150 HD
ATOM     31  H   UNL     1      -0.857  -0.519  26.847  0.00  0.00    +0.150 HD
BRANCH   8  20
ATOM     20  C   UNL     1      -0.648  -1.690  25.084  0.00  0.00    +0.068 C 
ATOM     22  C   UNL     1       0.507  -2.623  25.419  0.00  0.00    +0.027 C 
ATOM     23  C   UNL     1      -0.673  -1.353  23.597  0.00  0.00    +0.027 C 
ENDBRANCH   8  20
ENDBRANCH  15   6
ENDBRANCH   9  15
TORSDOF 7
ENDMDL
MODEL 5
REMARK VINA RESULT:       0.8      1.956      2.776
REMARK  Name = 75536249
REMARK  9 active torsions:
REMARK  status: ('A' for Active; 'I' for Inactive)
REMARK    1  A    between atoms: O_3  and  C_11
REMARK    2  A    between atoms: N_6  and  C_15
REMARK    3  A    between atoms: N_8  and  C_20
REMARK    4  A    between atoms: C_9  and  C_15
REMARK    5  A    between atoms: C_10  and  C_14
REMARK    6  A    between atoms: C_14  and  C_16
REMARK    7  A    between atoms: C_19  and  C_21
REMARK    8  A    between atoms: C_20  and  C_22
REMARK    9  A    between atoms: C_20  and  C_23
REMARK                            x       y       z     vdW  Elec       q    Type
REMARK                         _______ _______ _______ _____ _____    ______ ____
ROOT
ATOM      2  O   UNL     1      -2.640   1.846  24.646  0.00  0.00    -0.369 OA
ATOM      9  C   UNL     1      -3.377   2.484  25.697  0.00  0.00    +0.164 C 
ATOM     10  C   UNL     1      -3.215   1.966  23.342  0.00  0.00    +0.125 C 
ATOM     11  C   UNL     1      -3.613   3.969  25.393  0.00  0.00    +0.145 C 
ATOM     12  C   UNL     1      -3.359   3.435  22.949  0.00  0.00    +0.034 C 
ATOM     13  C   UNL     1      -4.175   4.193  23.993  0.00  0.00    +0.036 C 
ENDROOT
BRANCH  11   3
ATOM      3  O   UNL     1      -2.364   4.660  25.478  0.00  0.00    -0.389 OA
ATOM     29  H   UNL     1      -2.186   5.054  24.607  0.00  0.00    +0.210 HD
ENDBRANCH  11   3
BRANCH  10  14
ATOM     14  C   UNL     1      -2.301   1.231  22.369  0.00  0.00    +0.090 C 
BRANCH  14  16
ATOM      4  O   UNL     1       0.872   1.789  23.986  0.00  0.00    -0.354 OA
ATOM      7  N   UNL     1      -0.470   2.084  23.776  0.00  0.00    -0.083 NA
ATOM     16  C   UNL     1      -0.876   1.209  22.851  0.00  0.00    +0.087 A 
ATOM     17  C   UNL     1       0.156   0.344  22.445  0.00  0.00    +0.076 A 
ATOM     19  C   UNL     1       1.233   0.751  23.188  0.00  0.00    +0.167 A 
BRANCH  19  21
ATOM      1  F   UNL     1       6.532  -0.885  23.613  0.00  0.00    -0.205 F 
ATOM     21  C   UNL     1       2.599   0.329  23.297  0.00  0.00    +0.020 A 
ATOM     24  C   UNL     1       2.896  -0.985  23.661  0.00  0.00    +0.014 A 
ATOM     25  C   UNL     1       3.631   1.232  23.039  0.00  0.00    +0.014 A 
ATOM     26  C   UNL     1       4.225  -1.395  23.768  0.00  0.00    +0.039 A 
ATOM     27  C   UNL     1       4.959   0.822  23.146  0.00  0.00    +0.039 A 
ATOM     28  C   UNL     1       5.256  -0.492  23.511  0.00  0.00    +0.123 A 
ENDBRANCH  19  21
ENDBRANCH  14  16
ENDBRANCH  10  14
BRANCH   9  15
ATOM     15  C   UNL     1      -4.667   1.726  26.004  0.00  0.00    +0.140 C 
BRANCH  15   6
ATOM      5  O   UNL     1      -3.065  -0.657  26.295  0.00  0.00    -0.253 OA
ATOM      6  N   UNL     1      -4.755   0.527  25.226  0.00  0.00    -0.297 N 
ATOM      8  N   UNL     1      -4.235  -1.616  24.536  0.00  0.00    -0.297 N 
ATOM     18  C   UNL     1      -3.938  -0.590  25.430  0.00  0.00    +0.300 C 
ATOM     30  H   UNL     1      -5.417   0.503  24.457  0.00  0.00    +0.150 HD
ATOM     31  H   UNL     1      -4.924  -1.439  23.810  0.00  0.00    +0.150 HD
BRANCH   8  20
ATOM     20  C   UNL     1      -3.536  -2.879  24.533  0.00  0.00    +0.068 C 
ATOM     22  C   UNL     1      -2.045  -2.659  24.311  0.00  0.00    +0.027 C 
ATOM     23  C   UNL     1      -4.120  -3.811  23.477  0.00  0.00    +0.027 C 
ENDBRANCH   8  20
ENDBRANCH  15   6
ENDBRANCH   9  15
TORSDOF 7
ENDMDL
MODEL 6
REMARK VINA RESULT:       0.9      3.017      6.561
REMARK  Name = 75536249
REMARK  9 active torsions:
REMARK  status: ('A' for Active; 'I' for Inactive)
REMARK    1  A    between atoms: O_3  and  C_11
REMARK    2  A    between atoms: N_6  and  C_15
REMARK    3  A    between atoms: N_8  and  C_20
REMARK    4  A    between atoms: C_9  and  C_15
REMARK    5  A    between atoms: C_10  and  C_14
REMARK    6  A    between atoms: C_14  and  C_16
REMARK    7  A    between atoms: C_19  and  C_21
REMARK    8  A    between atoms: C_20  and  C_22
REMARK    9  A    between atoms: C_20  and  C_23
REMARK                            x       y       z     vdW  Elec       q    Type
REMARK                         _______ _______ _______ _____ _____    ______ ____
ROOT
ATOM      2  O   UNL     1       0.651   1.126  23.099  0.00  0.00    -0.369 OA
ATOM      9  C   UNL     1       0.943  -0.276  23.033  0.00  0.00    +0.164 C 
ATOM     10  C   UNL     1       1.682   1.935  23.671  0.00  0.00    +0.125 C 
ATOM     11  C   UNL     1       2.254  -0.538  22.280  0.00  0.00    +0.145 C 
ATOM     12  C   UNL     1       2.980   1.795  22.877  0.00  0.00    +0.034 C 
ATOM     13  C   UNL     1       3.401   0.330  22.790  0.00  0.00    +0.036 C 
ENDROOT
BRANCH  11   3
ATOM      3  O   UNL     1       2.059  -0.235  20.896  0.00  0.00    -0.389 OA
ATOM     29  H   UNL     1       2.344   0.684  20.754  0.00  0.00    +0.210 HD
ENDBRANCH  11   3
BRANCH  10  14
ATOM     14  C   UNL     1       1.192   3.378  23.658  0.00  0.00    +0.090 C 
BRANCH  14  16
ATOM      4  O   UNL     1      -1.900   4.382  25.216  0.00  0.00    -0.354 OA
ATOM      7  N   UNL     1      -0.575   4.600  24.859  0.00  0.00    -0.083 NA
ATOM     16  C   UNL     1      -0.206   3.497  24.202  0.00  0.00    +0.087 A 
ATOM     17  C   UNL     1      -1.247   2.556  24.114  0.00  0.00    +0.076 A 
ATOM     19  C   UNL     1      -2.289   3.161  24.767  0.00  0.00    +0.167 A 
BRANCH  19  21
ATOM      1  F   UNL     1      -7.542   1.733  25.909  0.00  0.00    -0.205 F 
ATOM     21  C   UNL     1      -3.643   2.793  25.060  0.00  0.00    +0.020 A 
ATOM     24  C   UNL     1      -4.516   3.730  25.614  0.00  0.00    +0.014 A 
ATOM     25  C   UNL     1      -4.088   1.498  24.793  0.00  0.00    +0.014 A 
ATOM     26  C   UNL     1      -5.834   3.372  25.901  0.00  0.00    +0.039 A 
ATOM     27  C   UNL     1      -5.405   1.140  25.079  0.00  0.00    +0.039 A 
ATOM     28  C   UNL     1      -6.278   2.077  25.634  0.00  0.00    +0.123 A 
ENDBRANCH  19  21
ENDBRANCH  14  16
ENDBRANCH  10  14
BRANCH   9  15
ATOM     15  C   UNL     1       0.916  -0.911  24.422  0.00  0.00    +0.140 C 
BRANCH  15   6
ATOM      5  O   UNL     1      -1.326  -2.591  23.731  0.00  0.00    -0.253 OA
ATOM      6  N   UNL     1      -0.401  -0.865  24.981  0.00  0.00    -0.297 N 
ATOM      8  N   UNL     1      -2.613  -1.457  25.294  0.00  0.00    -0.297 N 
ATOM     18  C   UNL     1      -1.439  -1.717  24.590  0.00  0.00    +0.300 C 
ATOM     30  H   UNL     1      -0.605  -0.145  25.668  0.00  0.00    +0.150 HD
ATOM     31  H   UNL     1      -2.627  -0.667  25.932  0.00  0.00    +0.150 HD
BRANCH   8  20
ATOM     20  C   UNL     1      -3.834  -2.197  25.080  0.00  0.00    +0.068 C 
ATOM     22  C   UNL     1      -3.564  -3.695  25.140  0.00  0.00    +0.027 C 
ATOM     23  C   UNL     1      -4.471  -1.803  23.752  0.00  0.00    +0.027 C 
ENDBRANCH   8  20
ENDBRANCH  15   6
ENDBRANCH   9  15
TORSDOF 7
ENDMDL
MODEL 7
REMARK VINA RESULT:       1.1      2.623      4.571
REMARK  Name = 75536249
REMARK  9 active torsions:
REMARK  status: ('A' for Active; 'I' for Inactive)
REMARK    1  A    between atoms: O_3  and  C_11
REMARK    2  A    between atoms: N_6  and  C_15
REMARK    3  A    between atoms: N_8  and  C_20
REMARK    4  A    between atoms: C_9  and  C_15
REMARK    5  A    between atoms: C_10  and  C_14
REMARK    6  A    between atoms: C_14  and  C_16
REMARK    7  A    between atoms: C_19  and  C_21
REMARK    8  A    between atoms: C_20  and  C_22
REMARK    9  A    between atoms: C_20  and  C_23
REMARK                            x       y       z     vdW  Elec       q    Type
REMARK                         _______ _______ _______ _____ _____    ______ ____
ROOT
ATOM      2  O   UNL     1      -1.996   1.645  24.370  0.00  0.00    -0.369 OA
ATOM      9  C   UNL     1      -2.389   2.930  24.867  0.00  0.00    +0.164 C 
ATOM     10  C   UNL     1      -2.716   0.536  24.915  0.00  0.00    +0.125 C 
ATOM     11  C   UNL     1      -3.891   3.170  24.670  0.00  0.00    +0.145 C 
ATOM     12  C   UNL     1      -4.212   0.676  24.637  0.00  0.00    +0.034 C 
ATOM     13  C   UNL     1      -4.737   2.004  25.175  0.00  0.00    +0.036 C 
ENDROOT
BRANCH  11   3
ATOM      3  O   UNL     1      -4.154   3.326  23.273  0.00  0.00    -0.389 OA
ATOM     29  H   UNL     1      -3.775   4.178  22.997  0.00  0.00    +0.210 HD
ENDBRANCH  11   3
BRANCH  10  14
ATOM     14  C   UNL     1      -2.161  -0.730  24.275  0.00  0.00    +0.090 C 
BRANCH  14  16
ATOM      4  O   UNL     1       0.728  -0.020  22.240  0.00  0.00    -0.354 OA
ATOM      7  N   UNL     1      -0.644  -0.127  22.433  0.00  0.00    -0.083 NA
ATOM     16  C   UNL     1      -0.786  -0.511  23.705  0.00  0.00    +0.087 A 
ATOM     17  C   UNL     1       0.450  -0.660  24.358  0.00  0.00    +0.076 A 
ATOM     19  C   UNL     1       1.369  -0.340  23.394  0.00  0.00    +0.167 A 
BRANCH  19  21
ATOM      1  F   UNL     1       6.923  -0.078  23.226  0.00  0.00    -0.205 F 
ATOM     21  C   UNL     1       2.800  -0.273  23.349  0.00  0.00    +0.020 A 
ATOM     24  C   UNL     1       3.564  -1.338  23.828  0.00  0.00    +0.014 A 
ATOM     25  C   UNL     1       3.430   0.858  22.829  0.00  0.00    +0.014 A 
ATOM     26  C   UNL     1       4.957  -1.272  23.787  0.00  0.00    +0.039 A 
ATOM     27  C   UNL     1       4.822   0.924  22.787  0.00  0.00    +0.039 A 
ATOM     28  C   UNL     1       5.586  -0.141  23.266  0.00  0.00    +0.123 A 
ENDBRANCH  19  21
ENDBRANCH  14  16
ENDBRANCH  10  14
BRANCH   9  15
ATOM     15  C   UNL     1      -1.939   3.122  26.314  0.00  0.00    +0.140 C 
BRANCH  15   6
ATOM      5  O   UNL     1      -0.428   2.990  28.768  0.00  0.00    -0.253 OA
ATOM      6  N   UNL     1      -0.534   2.887  26.450  0.00  0.00    -0.297 N 
ATOM      8  N   UNL     1       1.491   2.595  27.525  0.00  0.00    -0.297 N 
ATOM     18  C   UNL     1       0.128   2.839  27.681  0.00  0.00    +0.300 C 
ATOM     30  H   UNL     1       0.020   2.794  25.604  0.00  0.00    +0.150 HD
ATOM     31  H   UNL     1       1.869   2.556  26.583  0.00  0.00    +0.150 HD
BRANCH   8  20
ATOM     20  C   UNL     1       2.401   2.498  28.641  0.00  0.00    +0.068 C 
ATOM     22  C   UNL     1       1.686   1.933  29.861  0.00  0.00    +0.027 C 
ATOM     23  C   UNL     1       3.022   3.857  28.944  0.00  0.00    +0.027 C 
ENDBRANCH   8  20
ENDBRANCH  15   6
ENDBRANCH   9  15
TORSDOF 7
ENDMDL
MODEL 8
REMARK VINA RESULT:       1.5      2.957      7.573
REMARK  Name = 75536249
REMARK  9 active torsions:
REMARK  status: ('A' for Active; 'I' for Inactive)
REMARK    1  A    between atoms: O_3  and  C_11
REMARK    2  A    between atoms: N_6  and  C_15
REMARK    3  A    between atoms: N_8  and  C_20
REMARK    4  A    between atoms: C_9  and  C_15
REMARK    5  A    between atoms: C_10  and  C_14
REMARK    6  A    between atoms: C_14  and  C_16
REMARK    7  A    between atoms: C_19  and  C_21
REMARK    8  A    between atoms: C_20  and  C_22
REMARK    9  A    between atoms: C_20  and  C_23
REMARK                            x       y       z     vdW  Elec       q    Type
REMARK                         _______ _______ _______ _____ _____    ______ ____
ROOT
ATOM      2  O   UNL     1       1.050  -0.342  24.092  0.00  0.00    -0.369 OA
ATOM      9  C   UNL     1       2.129   0.568  23.843  0.00  0.00    +0.164 C 
ATOM     10  C   UNL     1       0.234  -0.641  22.957  0.00  0.00    +0.125 C 
ATOM     11  C   UNL     1       3.027   0.073  22.702  0.00  0.00    +0.145 C 
ATOM     12  C   UNL     1       1.072  -1.250  21.834  0.00  0.00    +0.034 C 
ATOM     13  C   UNL     1       2.228  -0.324  21.464  0.00  0.00    +0.036 C 
ENDROOT
BRANCH  11   3
ATOM      3  O   UNL     1       3.743  -1.082  23.148  0.00  0.00    -0.389 OA
ATOM     29  H   UNL     1       4.668  -0.817  23.288  0.00  0.00    +0.210 HD
ENDBRANCH  11   3
BRANCH  10  14
ATOM     14  C   UNL     1      -0.848  -1.613  23.414  0.00  0.00    +0.090 C 
BRANCH  14  16
ATOM      4  O   UNL     1      -4.057  -0.629  24.729  0.00  0.00    -0.354 OA
ATOM      7  N   UNL     1      -3.118  -1.587  24.365  0.00  0.00    -0.083 NA
ATOM     16  C   UNL     1      -2.074  -0.892  23.905  0.00  0.00    +0.087 A 
ATOM     17  C   UNL     1      -2.293   0.496  23.955  0.00  0.00    +0.076 A 
ATOM     19  C   UNL     1      -3.554   0.607  24.480  0.00  0.00    +0.167 A 
BRANCH  19  21
ATOM      1  F   UNL     1      -6.889   4.872  25.760  0.00  0.00    -0.205 F 
ATOM     21  C   UNL     1      -4.415   1.706  24.810  0.00  0.00    +0.020 A 
ATOM     24  C   UNL     1      -4.314   2.906  24.104  0.00  0.00    +0.014 A 
ATOM     25  C   UNL     1      -5.352   1.576  25.835  0.00  0.00    +0.014 A 
ATOM     26  C   UNL     1      -5.151   3.976  24.426  0.00  0.00    +0.039 A 
ATOM     27  C   UNL     1      -6.187   2.645  26.156  0.00  0.00    +0.039 A 
ATOM     28  C   UNL     1      -6.087   3.845  25.451  0.00  0.00    +0.123 A 
ENDBRANCH  19  21
ENDBRANCH  14  16
ENDBRANCH  10  14
BRANCH   9  15
ATOM     15  C   UNL     1       1.611   1.988  23.620  0.00  0.00    +0.140 C 
BRANCH  15   6
ATOM      5  O   UNL     1      -0.734   3.656  23.405  0.00  0.00    -0.253 OA
ATOM      6  N   UNL     1       0.736   2.387  24.680  0.00  0.00    -0.297 N 
ATOM      8  N   UNL     1      -1.059   3.434  25.692  0.00  0.00    -0.297 N 
ATOM     18  C   UNL     1      -0.385   3.203  24.494  0.00  0.00    +0.300 C 
ATOM     30  H   UNL     1       0.967   2.098  25.626  0.00  0.00    +0.150 HD
ATOM     31  H   UNL     1      -0.652   3.076  26.551  0.00  0.00    +0.150 HD
BRANCH   8  20
ATOM     20  C   UNL     1      -2.250   4.245  25.776  0.00  0.00    +0.068 C 
ATOM     22  C   UNL     1      -1.950   5.673  25.337  0.00  0.00    +0.027 C 
ATOM     23  C   UNL     1      -2.823   4.210  27.188  0.00  0.00    +0.027 C 
ENDBRANCH   8  20
ENDBRANCH  15   6
ENDBRANCH   9  15
TORSDOF 7
ENDMDL
MODEL 9
REMARK VINA RESULT:       2.6      2.948      5.760
REMARK  Name = 75536249
REMARK  9 active torsions:
REMARK  status: ('A' for Active; 'I' for Inactive)
REMARK    1  A    between atoms: O_3  and  C_11
REMARK    2  A    between atoms: N_6  and  C_15
REMARK    3  A    between atoms: N_8  and  C_20
REMARK    4  A    between atoms: C_9  and  C_15
REMARK    5  A    between atoms: C_10  and  C_14
REMARK    6  A    between atoms: C_14  and  C_16
REMARK    7  A    between atoms: C_19  and  C_21
REMARK    8  A    between atoms: C_20  and  C_22
REMARK    9  A    between atoms: C_20  and  C_23
REMARK                            x       y       z     vdW  Elec       q    Type
REMARK                         _______ _______ _______ _____ _____    ______ ____
ROOT
ATOM      2  O   UNL     1      -2.509  -1.173  24.175  0.00  0.00    -0.369 OA
ATOM      9  C   UNL     1      -3.874  -1.454  24.511  0.00  0.00    +0.164 C 
ATOM     10  C   UNL     1      -1.551  -2.092  24.707  0.00  0.00    +0.125 C 
ATOM     11  C   UNL     1      -4.269  -2.877  24.096  0.00  0.00    +0.145 C 
ATOM     12  C   UNL     1      -1.839  -3.512  24.221  0.00  0.00    +0.034 C 
ATOM     13  C   UNL     1      -3.266  -3.922  24.576  0.00  0.00    +0.036 C 
ENDROOT
BRANCH  11   3
ATOM      3  O   UNL     1      -4.320  -2.944  22.668  0.00  0.00    -0.389 OA
ATOM     29  H   UNL     1      -3.918  -3.787  22.399  0.00  0.00    +0.210 HD
ENDBRANCH  11   3
BRANCH  10  14
ATOM     14  C   UNL     1      -0.172  -1.632  24.251  0.00  0.00    +0.090 C 
BRANCH  14  16
ATOM      4  O   UNL     1       0.760   1.816  23.765  0.00  0.00    -0.354 OA
ATOM      7  N   UNL     1       0.979   0.451  23.623  0.00  0.00    -0.083 NA
ATOM     16  C   UNL     1      -0.070  -0.131  24.211  0.00  0.00    +0.087 A 
ATOM     17  C   UNL     1      -0.976   0.807  24.736  0.00  0.00    +0.076 A 
ATOM     19  C   UNL     1      -0.408   2.016  24.429  0.00  0.00    +0.167 A 
BRANCH  19  21
ATOM      1  F   UNL     1      -1.823   7.327  25.283  0.00  0.00    -0.205 F 
ATOM     21  C   UNL     1      -0.771   3.385  24.650  0.00  0.00    +0.020 A 
ATOM     24  C   UNL     1      -1.758   3.702  25.585  0.00  0.00    +0.014 A 
ATOM     25  C   UNL     1      -0.141   4.400  23.929  0.00  0.00    +0.014 A 
ATOM     26  C   UNL     1      -2.113   5.035  25.799  0.00  0.00    +0.039 A 
ATOM     27  C   UNL     1      -0.496   5.731  24.143  0.00  0.00    +0.039 A 
ATOM     28  C   UNL     1      -1.482   6.048  25.078  0.00  0.00    +0.123 A 
ENDBRANCH  19  21
ENDBRANCH  14  16
ENDBRANCH  10  14
BRANCH   9  15
ATOM     15  C   UNL     1      -4.151  -1.164  25.984  0.00  0.00    +0.140 C 
BRANCH  15   6
ATOM      5  O   UNL     1      -5.113   0.757  24.058  0.00  0.00    -0.253 OA
ATOM      6  N   UNL     1      -4.376   0.233  26.198  0.00  0.00    -0.297 N 
ATOM      8  N   UNL     1      -4.975   2.406  25.685  0.00  0.00    -0.297 N 
ATOM     18  C   UNL     1      -4.845   1.103  25.208  0.00  0.00    +0.300 C 
ATOM     30  H   UNL     1      -4.141   0.623  27.106  0.00  0.00    +0.150 HD
ATOM     31  H   UNL     1      -4.660   2.607  26.629  0.00  0.00    +0.150 HD
BRANCH   8  20
ATOM     20  C   UNL     1      -5.440   3.497  24.862  0.00  0.00    +0.068 C 
ATOM     22  C   UNL     1      -4.395   3.853  23.813  0.00  0.00    +0.027 C 
ATOM     23  C   UNL     1      -5.790   4.705  25.725  0.00  0.00    +0.027 C 
ENDBRANCH   8  20
ENDBRANCH  15   6
ENDBRANCH   9  15
TORSDOF 7
ENDMDL
MODEL 10
REMARK VINA RESULT:       2.9      2.683      5.898
REMARK  Name = 75536249
REMARK  9 active torsions:
REMARK  status: ('A' for Active; 'I' for Inactive)
REMARK    1  A    between atoms: O_3  and  C_11
REMARK    2  A    between atoms: N_6  and  C_15
REMARK    3  A    between atoms: N_8  and  C_20
REMARK    4  A    between atoms: C_9  and  C_15
REMARK    5  A    between atoms: C_10  and  C_14
REMARK    6  A    between atoms: C_14  and  C_16
REMARK    7  A    between atoms: C_19  and  C_21
REMARK    8  A    between atoms: C_20  and  C_22
REMARK    9  A    between atoms: C_20  and  C_23
REMARK                            x       y       z     vdW  Elec       q    Type
REMARK                         _______ _______ _______ _____ _____    ______ ____
ROOT
ATOM      2  O   UNL     1      -2.992  -0.959  24.895  0.00  0.00    -0.369 OA
ATOM      9  C   UNL     1      -1.870  -1.831  24.701  0.00  0.00    +0.164 C 
ATOM     10  C   UNL     1      -4.055  -1.120  23.952  0.00  0.00    +0.125 C 
ATOM     11  C   UNL     1      -2.302  -3.303  24.687  0.00  0.00    +0.145 C 
ATOM     12  C   UNL     1      -4.597  -2.548  23.989  0.00  0.00    +0.034 C 
ATOM     13  C   UNL     1      -3.476  -3.555  23.745  0.00  0.00    +0.036 C 
ENDROOT
BRANCH  11   3
ATOM      3  O   UNL     1      -2.712  -3.675  26.005  0.00  0.00    -0.389 OA
ATOM     29  H   UNL     1      -2.207  -3.132  26.634  0.00  0.00    +0.210 HD
ENDBRANCH  11   3
BRANCH  10  14
ATOM     14  C   UNL     1      -5.144  -0.118  24.315  0.00  0.00    +0.090 C 
BRANCH  14  16
ATOM      4  O   UNL     1      -4.546   3.347  25.110  0.00  0.00    -0.354 OA
ATOM      7  N   UNL     1      -5.374   2.237  24.995  0.00  0.00    -0.083 NA
ATOM     16  C   UNL     1      -4.579   1.256  24.558  0.00  0.00    +0.087 A 
ATOM     17  C   UNL     1      -3.251   1.683  24.382  0.00  0.00    +0.076 A 
ATOM     19  C   UNL     1      -3.285   3.005  24.743  0.00  0.00    +0.167 A 
BRANCH  19  21
ATOM      1  F   UNL     1       0.496   7.076  25.016  0.00  0.00    -0.205 F 
ATOM     21  C   UNL     1      -2.310   4.055  24.812  0.00  0.00    +0.020 A 
ATOM     24  C   UNL     1      -0.959   3.766  24.617  0.00  0.00    +0.014 A 
ATOM     25  C   UNL     1      -2.713   5.364  25.076  0.00  0.00    +0.014 A 
ATOM     26  C   UNL     1      -0.011   4.787  24.686  0.00  0.00    +0.039 A 
ATOM     27  C   UNL     1      -1.765   6.385  25.145  0.00  0.00    +0.039 A 
ATOM     28  C   UNL     1      -0.414   6.096  24.950  0.00  0.00    +0.123 A 
ENDBRANCH  19  21
ENDBRANCH  14  16
ENDBRANCH  10  14
BRANCH   9  15
ATOM     15  C   UNL     1      -1.070  -1.432  23.463  0.00  0.00    +0.140 C 
BRANCH  15   6
ATOM      5  O   UNL     1       1.012  -0.540  21.676  0.00  0.00    -0.253 OA
ATOM      6  N   UNL     1       0.251  -1.013  23.819  0.00  0.00    -0.297 N 
ATOM      8  N   UNL     1       2.407  -0.241  23.506  0.00  0.00    -0.297 N 
ATOM     18  C   UNL     1       1.209  -0.593  22.889  0.00  0.00    +0.300 C 
ATOM     30  H   UNL     1       0.523  -1.064  24.796  0.00  0.00    +0.150 HD
ATOM     31  H   UNL     1       2.496  -0.388  24.507  0.00  0.00    +0.150 HD
BRANCH   8  20
ATOM     20  C   UNL     1       3.558   0.226  22.770  0.00  0.00    +0.068 C 
ATOM     22  C   UNL     1       4.842  -0.240  23.443  0.00  0.00    +0.027 C 
ATOM     23  C   UNL     1       3.525   1.744  22.634  0.00  0.00    +0.027 C 
ENDBRANCH   8  20
ENDBRANCH  15   6
ENDBRANCH   9  15
TORSDOF 7
ENDMDL
