MODEL 1
REMARK VINA RESULT:      -5.2      0.000      0.000
REMARK  Name = 75537073
REMARK  4 active torsions:
REMARK  status: ('A' for Active; 'I' for Inactive)
REMARK    1  A    between atoms: N_3  and  C_13
REMARK    2  A    between atoms: N_4  and  C_14
REMARK    3  A    between atoms: C_13  and  C_15
REMARK    4  A    between atoms: C_14  and  C_16
REMARK                            x       y       z     vdW  Elec       q    Type
REMARK                         _______ _______ _______ _____ _____    ______ ____
ROOT
ATOM      1  O   UNL     1      -3.003 -10.556  16.858  0.00  0.00    -0.252 OA
ATOM      2  N   UNL     1      -3.374 -10.666  14.541  0.00  0.00    -0.278 N 
ATOM      3  N   UNL     1      -3.035 -10.133  11.800  0.00  0.00    -0.295 NA
ATOM      4  N   UNL     1      -5.155 -10.495  15.897  0.00  0.00    -0.278 N 
ATOM      7  C   UNL     1      -4.515 -10.781  13.657  0.00  0.00    +0.109 C 
ATOM      8  C   UNL     1      -4.341  -9.871  12.441  0.00  0.00    +0.109 C 
ATOM      9  C   UNL     1      -5.704 -10.435  14.552  0.00  0.00    +0.133 C 
ATOM     10  C   UNL     1      -2.038 -10.757  13.989  0.00  0.00    +0.125 C 
ATOM     11  C   UNL     1      -1.926  -9.878  12.741  0.00  0.00    +0.104 C 
ATOM     12  C   UNL     1      -3.749 -10.574  15.888  0.00  0.00    +0.306 C 
ENDROOT
BRANCH   3  13
ATOM     13  C   UNL     1      -2.884  -9.310  10.600  0.00  0.00    +0.121 C 
BRANCH  13  15
ATOM      6  N   UNL     1      -6.150  -8.208   9.037  0.00  0.00    -0.263 NA
ATOM     15  C   UNL     1      -4.128  -9.322   9.752  0.00  0.00    -0.015 A 
ATOM     17  C   UNL     1      -4.420 -10.400   8.924  0.00  0.00    +0.008 A 
ATOM     18  C   UNL     1      -5.018  -8.259   9.771  0.00  0.00    +0.115 A 
ATOM     20  C   UNL     1      -5.577 -10.383   8.152  0.00  0.00    +0.020 A 
ATOM     23  C   UNL     1      -6.402  -9.274   8.243  0.00  0.00    +0.111 A 
ENDBRANCH  13  15
ENDBRANCH   3  13
BRANCH   4  14
ATOM     14  C   UNL     1      -5.986 -10.335  17.070  0.00  0.00    +0.164 C 
BRANCH  14  16
ATOM      5  N   UNL     1      -8.020 -10.742  15.798  0.00  0.00    -0.258 NA
ATOM     16  C   UNL     1      -7.399  -9.960  16.709  0.00  0.00    +0.059 A 
ATOM     19  C   UNL     1      -7.983  -8.857  17.311  0.00  0.00    +0.025 A 
ATOM     21  C   UNL     1      -9.289  -8.537  16.955  0.00  0.00    +0.003 A 
ATOM     22  C   UNL     1      -9.288 -10.401  15.478  0.00  0.00    +0.111 A 
ATOM     24  C   UNL     1      -9.961  -9.319  16.023  0.00  0.00    +0.020 A 
ENDBRANCH  14  16
ENDBRANCH   4  14
TORSDOF 4
ENDMDL
MODEL 2
REMARK VINA RESULT:      -4.8      1.524      2.038
REMARK  Name = 75537073
REMARK  4 active torsions:
REMARK  status: ('A' for Active; 'I' for Inactive)
REMARK    1  A    between atoms: N_3  and  C_13
REMARK    2  A    between atoms: N_4  and  C_14
REMARK    3  A    between atoms: C_13  and  C_15
REMARK    4  A    between atoms: C_14  and  C_16
REMARK                            x       y       z     vdW  Elec       q    Type
REMARK                         _______ _______ _______ _____ _____    ______ ____
ROOT
ATOM      1  O   UNL     1      -1.045 -10.146  15.338  0.00  0.00    -0.252 OA
ATOM      2  N   UNL     1      -2.206 -10.359  13.307  0.00  0.00    -0.278 N 
ATOM      3  N   UNL     1      -3.053  -9.762  10.692  0.00  0.00    -0.295 NA
ATOM      4  N   UNL     1      -3.340 -10.673  15.220  0.00  0.00    -0.278 N 
ATOM      7  C   UNL     1      -3.525 -10.781  12.882  0.00  0.00    +0.109 C 
ATOM      8  C   UNL     1      -4.049  -9.862  11.780  0.00  0.00    +0.109 C 
ATOM      9  C   UNL     1      -4.344 -10.767  14.172  0.00  0.00    +0.133 C 
ATOM     10  C   UNL     1      -1.193 -10.088  12.309  0.00  0.00    +0.125 C 
ATOM     11  C   UNL     1      -1.777  -9.215  11.195  0.00  0.00    +0.104 C 
ATOM     12  C   UNL     1      -2.066 -10.368  14.701  0.00  0.00    +0.306 C 
ENDROOT
BRANCH   3  13
ATOM     13  C   UNL     1      -3.569  -8.932   9.604  0.00  0.00    +0.121 C 
BRANCH  13  15
ATOM      6  N   UNL     1      -7.243  -8.124  10.029  0.00  0.00    -0.263 NA
ATOM     15  C   UNL     1      -5.067  -9.029   9.488  0.00  0.00    -0.015 A 
ATOM     17  C   UNL     1      -5.666 -10.058   8.770  0.00  0.00    +0.008 A 
ATOM     18  C   UNL     1      -5.893  -8.095  10.094  0.00  0.00    +0.115 A 
ATOM     20  C   UNL     1      -7.052 -10.121   8.681  0.00  0.00    +0.020 A 
ATOM     23  C   UNL     1      -7.789  -9.139   9.322  0.00  0.00    +0.111 A 
ENDBRANCH  13  15
ENDBRANCH   3  13
BRANCH   4  14
ATOM     14  C   UNL     1      -3.690 -10.740  16.622  0.00  0.00    +0.164 C 
BRANCH  14  16
ATOM      5  N   UNL     1      -5.607 -10.520  18.103  0.00  0.00    -0.258 NA
ATOM     16  C   UNL     1      -5.104 -10.287  16.870  0.00  0.00    +0.059 A 
ATOM     19  C   UNL     1      -5.808  -9.671  15.849  0.00  0.00    +0.025 A 
ATOM     21  C   UNL     1      -7.113  -9.265  16.111  0.00  0.00    +0.003 A 
ATOM     22  C   UNL     1      -6.877 -10.112  18.321  0.00  0.00    +0.111 A 
ATOM     24  C   UNL     1      -7.664  -9.486  17.368  0.00  0.00    +0.020 A 
ENDBRANCH  14  16
ENDBRANCH   4  14
TORSDOF 4
ENDMDL
MODEL 3
REMARK VINA RESULT:      -4.2      1.805      3.076
REMARK  Name = 75537073
REMARK  4 active torsions:
REMARK  status: ('A' for Active; 'I' for Inactive)
REMARK    1  A    between atoms: N_3  and  C_13
REMARK    2  A    between atoms: N_4  and  C_14
REMARK    3  A    between atoms: C_13  and  C_15
REMARK    4  A    between atoms: C_14  and  C_16
REMARK                            x       y       z     vdW  Elec       q    Type
REMARK                         _______ _______ _______ _____ _____    ______ ____
ROOT
ATOM      1  O   UNL     1      -1.440  -9.979  13.637  0.00  0.00    -0.252 OA
ATOM      2  N   UNL     1      -3.171 -10.177  12.062  0.00  0.00    -0.278 N 
ATOM      3  N   UNL     1      -4.824  -9.525   9.882  0.00  0.00    -0.295 NA
ATOM      4  N   UNL     1      -3.630 -10.636  14.212  0.00  0.00    -0.278 N 
ATOM      7  C   UNL     1      -4.537 -10.659  12.047  0.00  0.00    +0.109 C 
ATOM      8  C   UNL     1      -5.421  -9.728  11.218  0.00  0.00    +0.109 C 
ATOM      9  C   UNL     1      -4.907 -10.747  13.526  0.00  0.00    +0.133 C 
ATOM     10  C   UNL     1      -2.537  -9.805  10.814  0.00  0.00    +0.125 C 
ATOM     11  C   UNL     1      -3.480  -8.923   9.991  0.00  0.00    +0.104 C 
ATOM     12  C   UNL     1      -2.599 -10.235  13.339  0.00  0.00    +0.306 C 
ENDROOT
BRANCH   3  13
ATOM     13  C   UNL     1      -5.693  -8.683   9.059  0.00  0.00    +0.121 C 
BRANCH  13  15
ATOM      6  N   UNL     1      -8.752 -10.772   8.280  0.00  0.00    -0.263 NA
ATOM     15  C   UNL     1      -7.116  -9.174   9.063  0.00  0.00    -0.015 A 
ATOM     17  C   UNL     1      -8.094  -8.530   9.814  0.00  0.00    +0.008 A 
ATOM     18  C   UNL     1      -7.494 -10.282   8.320  0.00  0.00    +0.115 A 
ATOM     20  C   UNL     1      -9.401  -9.006   9.798  0.00  0.00    +0.020 A 
ATOM     23  C   UNL     1      -9.676 -10.121   9.022  0.00  0.00    +0.111 A 
ENDBRANCH  13  15
ENDBRANCH   3  13
BRANCH   4  14
ATOM     14  C   UNL     1      -3.517 -10.781  15.646  0.00  0.00    +0.164 C 
BRANCH  14  16
ATOM      5  N   UNL     1      -5.921 -10.418  15.585  0.00  0.00    -0.258 NA
ATOM     16  C   UNL     1      -4.806 -10.445  16.348  0.00  0.00    +0.059 A 
ATOM     19  C   UNL     1      -4.790 -10.185  17.708  0.00  0.00    +0.025 A 
ATOM     21  C   UNL     1      -5.997  -9.877  18.326  0.00  0.00    +0.003 A 
ATOM     22  C   UNL     1      -7.076 -10.116  16.219  0.00  0.00    +0.111 A 
ATOM     24  C   UNL     1      -7.167  -9.841  17.575  0.00  0.00    +0.020 A 
ENDBRANCH  14  16
ENDBRANCH   4  14
TORSDOF 4
ENDMDL
MODEL 4
REMARK VINA RESULT:      -2.8      2.753      4.455
REMARK  Name = 75537073
REMARK  4 active torsions:
REMARK  status: ('A' for Active; 'I' for Inactive)
REMARK    1  A    between atoms: N_3  and  C_13
REMARK    2  A    between atoms: N_4  and  C_14
REMARK    3  A    between atoms: C_13  and  C_15
REMARK    4  A    between atoms: C_14  and  C_16
REMARK                            x       y       z     vdW  Elec       q    Type
REMARK                         _______ _______ _______ _____ _____    ______ ____
ROOT
ATOM      1  O   UNL     1      -3.611  -9.847  11.436  0.00  0.00    -0.252 OA
ATOM      2  N   UNL     1      -5.777 -10.406  10.720  0.00  0.00    -0.278 N 
ATOM      3  N   UNL     1      -8.117 -10.371   9.160  0.00  0.00    -0.295 NA
ATOM      4  N   UNL     1      -5.430 -10.095  12.916  0.00  0.00    -0.278 N 
ATOM      7  C   UNL     1      -7.039 -10.752  11.339  0.00  0.00    +0.109 C 
ATOM      8  C   UNL     1      -8.196 -10.074  10.605  0.00  0.00    +0.109 C 
ATOM      9  C   UNL     1      -6.861 -10.318  12.793  0.00  0.00    +0.133 C 
ATOM     10  C   UNL     1      -5.639 -10.518   9.282  0.00  0.00    +0.125 C 
ATOM     11  C   UNL     1      -6.846  -9.880   8.590  0.00  0.00    +0.104 C 
ATOM     12  C   UNL     1      -4.789 -10.089  11.661  0.00  0.00    +0.306 C 
ENDROOT
BRANCH   3  13
ATOM     13  C   UNL     1      -9.253  -9.777   8.455  0.00  0.00    +0.121 C 
BRANCH  13  15
ATOM      6  N   UNL     1      -7.937  -6.243   8.124  0.00  0.00    -0.263 NA
ATOM     15  C   UNL     1      -9.202  -8.273   8.478  0.00  0.00    -0.015 A 
ATOM     17  C   UNL     1     -10.311  -7.524   8.856  0.00  0.00    +0.008 A 
ATOM     18  C   UNL     1      -8.049  -7.590   8.124  0.00  0.00    +0.115 A 
ATOM     20  C   UNL     1     -10.235  -6.135   8.868  0.00  0.00    +0.020 A 
ATOM     23  C   UNL     1      -9.036  -5.548   8.496  0.00  0.00    +0.111 A 
ENDBRANCH  13  15
ENDBRANCH   3  13
BRANCH   4  14
ATOM     14  C   UNL     1      -4.812  -9.770  14.183  0.00  0.00    +0.164 C 
BRANCH  14  16
ATOM      5  N   UNL     1      -7.057  -9.898  15.112  0.00  0.00    -0.258 NA
ATOM     16  C   UNL     1      -5.733 -10.043  15.343  0.00  0.00    +0.059 A 
ATOM     19  C   UNL     1      -5.195 -10.420  16.562  0.00  0.00    +0.025 A 
ATOM     21  C   UNL     1      -6.073 -10.665  17.613  0.00  0.00    +0.003 A 
ATOM     22  C   UNL     1      -7.880 -10.145  16.155  0.00  0.00    +0.111 A 
ATOM     24  C   UNL     1      -7.442 -10.527  17.414  0.00  0.00    +0.020 A 
ENDBRANCH  14  16
ENDBRANCH   4  14
TORSDOF 4
ENDMDL
MODEL 5
REMARK VINA RESULT:      -2.1     15.527     17.790
REMARK  Name = 75537073
REMARK  4 active torsions:
REMARK  status: ('A' for Active; 'I' for Inactive)
REMARK    1  A    between atoms: N_3  and  C_13
REMARK    2  A    between atoms: N_4  and  C_14
REMARK    3  A    between atoms: C_13  and  C_15
REMARK    4  A    between atoms: C_14  and  C_16
REMARK                            x       y       z     vdW  Elec       q    Type
REMARK                         _______ _______ _______ _____ _____    ______ ____
ROOT
ATOM      1  O   UNL     1       0.244  -1.500  23.938  0.00  0.00    -0.252 OA
ATOM      2  N   UNL     1      -0.373   0.627  24.720  0.00  0.00    -0.278 N 
ATOM      3  N   UNL     1      -2.037   2.769  25.467  0.00  0.00    -0.295 NA
ATOM      4  N   UNL     1       1.326   0.482  23.260  0.00  0.00    -0.278 N 
ATOM      7  C   UNL     1       0.135   1.980  24.619  0.00  0.00    +0.109 C 
ATOM      8  C   UNL     1      -1.014   2.967  24.418  0.00  0.00    +0.109 C 
ATOM      9  C   UNL     1       1.129   1.908  23.461  0.00  0.00    +0.133 C 
ATOM     10  C   UNL     1      -1.480   0.351  25.613  0.00  0.00    +0.125 C 
ATOM     11  C   UNL     1      -2.581   1.397  25.420  0.00  0.00    +0.104 C 
ATOM     12  C   UNL     1       0.383  -0.284  23.973  0.00  0.00    +0.306 C 
ENDROOT
BRANCH   3  13
ATOM     13  C   UNL     1      -3.113   3.749  25.320  0.00  0.00    +0.121 C 
BRANCH  13  15
ATOM      6  N   UNL     1      -6.496   2.692  26.650  0.00  0.00    -0.263 NA
ATOM     15  C   UNL     1      -4.471   3.104  25.394  0.00  0.00    -0.015 A 
ATOM     17  C   UNL     1      -4.965   2.349  24.336  0.00  0.00    +0.008 A 
ATOM     18  C   UNL     1      -5.270   3.245  26.519  0.00  0.00    +0.115 A 
ATOM     20  C   UNL     1      -6.223   1.764  24.434  0.00  0.00    +0.020 A 
ATOM     23  C   UNL     1      -6.943   1.964  25.601  0.00  0.00    +0.111 A 
ENDBRANCH  13  15
ENDBRANCH   3  13
BRANCH   4  14
ATOM     14  C   UNL     1       2.291  -0.030  22.313  0.00  0.00    +0.164 C 
BRANCH  14  16
ATOM      5  N   UNL     1       3.857  -1.445  23.523  0.00  0.00    -0.258 NA
ATOM     16  C   UNL     1       3.641  -0.242  22.945  0.00  0.00    +0.059 A 
ATOM     19  C   UNL     1       4.576   0.780  22.908  0.00  0.00    +0.025 A 
ATOM     21  C   UNL     1       5.813   0.552  23.502  0.00  0.00    +0.003 A 
ATOM     22  C   UNL     1       5.070  -1.630  24.089  0.00  0.00    +0.111 A 
ATOM     24  C   UNL     1       6.073  -0.673  24.105  0.00  0.00    +0.020 A 
ENDBRANCH  14  16
ENDBRANCH   4  14
TORSDOF 4
ENDMDL
MODEL 6
REMARK VINA RESULT:      -1.9     15.177     17.416
REMARK  Name = 75537073
REMARK  4 active torsions:
REMARK  status: ('A' for Active; 'I' for Inactive)
REMARK    1  A    between atoms: N_3  and  C_13
REMARK    2  A    between atoms: N_4  and  C_14
REMARK    3  A    between atoms: C_13  and  C_15
REMARK    4  A    between atoms: C_14  and  C_16
REMARK                            x       y       z     vdW  Elec       q    Type
REMARK                         _______ _______ _______ _____ _____    ______ ____
ROOT
ATOM      1  O   UNL     1       1.095  -2.115  24.408  0.00  0.00    -0.252 OA
ATOM      2  N   UNL     1      -0.588  -0.524  24.801  0.00  0.00    -0.278 N 
ATOM      3  N   UNL     1      -3.151   0.513  25.317  0.00  0.00    -0.295 NA
ATOM      4  N   UNL     1       0.895  -0.122  23.163  0.00  0.00    -0.278 N 
ATOM      7  C   UNL     1      -0.913   0.808  24.336  0.00  0.00    +0.109 C 
ATOM      8  C   UNL     1      -2.419   0.939  24.107  0.00  0.00    +0.109 C 
ATOM      9  C   UNL     1      -0.057   0.974  23.082  0.00  0.00    +0.133 C 
ATOM     10  C   UNL     1      -1.349  -1.100  25.891  0.00  0.00    +0.125 C 
ATOM     11  C   UNL     1      -2.847  -0.894  25.650  0.00  0.00    +0.104 C 
ATOM     12  C   UNL     1       0.539  -1.053  24.159  0.00  0.00    +0.306 C 
ENDROOT
BRANCH   3  13
ATOM     13  C   UNL     1      -4.591   0.691  25.130  0.00  0.00    +0.121 C 
BRANCH  13  15
ATOM      6  N   UNL     1      -6.524   3.809  26.064  0.00  0.00    -0.263 NA
ATOM     15  C   UNL     1      -4.993   2.139  25.221  0.00  0.00    -0.015 A 
ATOM     17  C   UNL     1      -4.254   3.129  24.582  0.00  0.00    +0.008 A 
ATOM     18  C   UNL     1      -6.109   2.529  25.944  0.00  0.00    +0.115 A 
ATOM     20  C   UNL     1      -4.649   4.459  24.682  0.00  0.00    +0.020 A 
ATOM     23  C   UNL     1      -5.781   4.744  25.429  0.00  0.00    +0.111 A 
ENDBRANCH  13  15
ENDBRANCH   3  13
BRANCH   4  14
ATOM     14  C   UNL     1       1.973  -0.271  22.211  0.00  0.00    +0.164 C 
BRANCH  14  16
ATOM      5  N   UNL     1       3.755  -1.353  23.465  0.00  0.00    -0.258 NA
ATOM     16  C   UNL     1       3.322  -0.215  22.878  0.00  0.00    +0.059 A 
ATOM     19  C   UNL     1       4.038   0.971  22.860  0.00  0.00    +0.025 A 
ATOM     21  C   UNL     1       5.280   0.989  23.486  0.00  0.00    +0.003 A 
ATOM     22  C   UNL     1       4.966  -1.297  24.062  0.00  0.00    +0.111 A 
ATOM     24  C   UNL     1       5.761  -0.162  24.099  0.00  0.00    +0.020 A 
ENDBRANCH  14  16
ENDBRANCH   4  14
TORSDOF 4
ENDMDL
