MODEL 1
REMARK VINA RESULT:       0.5      0.000      0.000
REMARK  Name = 45360474
REMARK  7 active torsions:
REMARK  status: ('A' for Active; 'I' for Inactive)
REMARK    1  A    between atoms: N_2  and  C_13
REMARK    2  A    between atoms: N_2  and  C_15
REMARK    3  A    between atoms: N_4  and  C_23
REMARK    4  A    between atoms: C_7  and  C_13
REMARK    5  A    between atoms: C_8  and  C_14
REMARK    6  A    between atoms: C_21  and  C_24
REMARK    7  A    between atoms: C_22  and  C_25
REMARK                            x       y       z     vdW  Elec       q    Type
REMARK                         _______ _______ _______ _____ _____    ______ ____
ROOT
ATOM      1  N   UNL     1      -2.741  -2.458  23.664  0.00  0.00    -0.298 NA
ATOM      6  C   UNL     1      -2.929  -1.477  26.068  0.00  0.00    +0.002 C 
ATOM      7  C   UNL     1      -1.394  -2.072  24.161  0.00  0.00    +0.071 C 
ATOM      8  C   UNL     1      -3.953  -0.793  25.121  0.00  0.00    +0.055 C 
ATOM      9  C   UNL     1      -1.507  -1.301  25.494  0.00  0.00    +0.024 C 
ATOM     10  C   UNL     1      -3.243  -2.988  26.048  0.00  0.00    +0.019 C 
ATOM     11  C   UNL     1      -3.645  -1.281  23.676  0.00  0.00    +0.094 C 
ATOM     12  C   UNL     1      -3.293  -3.475  24.590  0.00  0.00    +0.085 C 
ENDROOT
BRANCH   8  14
ATOM      3  N   UNL     1      -5.338   1.190  25.485  0.00  0.00    -0.237 NA
ATOM      5  N   UNL     1      -4.445   3.423  25.348  0.00  0.00    -0.232 NA
ATOM     14  C   UNL     1      -4.107   0.719  25.199  0.00  0.00    +0.050 A 
ATOM     18  C   UNL     1      -3.010   1.527  24.978  0.00  0.00    +0.052 A 
ATOM     21  C   UNL     1      -3.240   2.884  25.067  0.00  0.00    +0.075 A 
ATOM     22  C   UNL     1      -5.435   2.532  25.543  0.00  0.00    +0.127 A 
ATOM     25  C   UNL     1      -6.782   3.089  25.856  0.00  0.00    +0.088 C 
BRANCH  21  24
ATOM     24  C   UNL     1      -2.176   3.837  24.855  0.00  0.00    +0.000 A 
ATOM     26  C   UNL     1      -0.960   3.415  24.319  0.00  0.00    +0.010 A 
ATOM     27  C   UNL     1      -2.364   5.178  25.187  0.00  0.00    +0.010 A 
ATOM     28  C   UNL     1       0.068   4.334  24.114  0.00  0.00    +0.001 A 
ATOM     29  C   UNL     1      -1.335   6.097  24.982  0.00  0.00    +0.001 A 
ATOM     30  C   UNL     1      -0.119   5.675  24.445  0.00  0.00    +0.000 A 
ENDBRANCH  21  24
ENDBRANCH   8  14
BRANCH   7  13
ATOM     13  C   UNL     1      -0.589  -1.294  23.119  0.00  0.00    +0.100 C 
BRANCH  13   2
ATOM      2  N   UNL     1       0.259  -0.301  23.758  0.00  0.00    -0.312 NA
ATOM     31  H   UNL     1       0.287  -0.486  24.761  0.00  0.00    +0.122 HD
BRANCH   2  15
ATOM      4  N   UNL     1       4.489   0.066  23.576  0.00  0.00    -0.305 NA
ATOM     15  C   UNL     1       1.614  -0.338  23.213  0.00  0.00    +0.056 C 
ATOM     16  C   UNL     1       2.481  -1.313  24.014  0.00  0.00    +0.034 C 
ATOM     17  C   UNL     1       2.248   1.056  23.223  0.00  0.00    +0.034 C 
ATOM     19  C   UNL     1       3.930  -1.291  23.520  0.00  0.00    +0.085 C 
ATOM     20  C   UNL     1       3.704   0.999  22.756  0.00  0.00    +0.085 C 
ATOM     23  C   UNL     1       5.888   0.061  23.149  0.00  0.00    +0.104 C 
ENDBRANCH   2  15
ENDBRANCH  13   2
ENDBRANCH   7  13
TORSDOF 5
ENDMDL
MODEL 2
REMARK VINA RESULT:       0.8      1.398      6.289
REMARK  Name = 45360474
REMARK  7 active torsions:
REMARK  status: ('A' for Active; 'I' for Inactive)
REMARK    1  A    between atoms: N_2  and  C_13
REMARK    2  A    between atoms: N_2  and  C_15
REMARK    3  A    between atoms: N_4  and  C_23
REMARK    4  A    between atoms: C_7  and  C_13
REMARK    5  A    between atoms: C_8  and  C_14
REMARK    6  A    between atoms: C_21  and  C_24
REMARK    7  A    between atoms: C_22  and  C_25
REMARK                            x       y       z     vdW  Elec       q    Type
REMARK                         _______ _______ _______ _____ _____    ______ ____
ROOT
ATOM      1  N   UNL     1      -3.618  -1.609  25.932  0.00  0.00    -0.298 NA
ATOM      6  C   UNL     1      -2.685  -1.625  23.501  0.00  0.00    +0.002 C 
ATOM      7  C   UNL     1      -4.404  -0.677  25.081  0.00  0.00    +0.071 C 
ATOM      8  C   UNL     1      -1.533  -1.423  24.523  0.00  0.00    +0.055 C 
ATOM      9  C   UNL     1      -3.741  -0.517  23.696  0.00  0.00    +0.024 C 
ATOM     10  C   UNL     1      -3.364  -2.966  23.855  0.00  0.00    +0.019 C 
ATOM     11  C   UNL     1      -2.185  -1.222  25.922  0.00  0.00    +0.094 C 
ATOM     12  C   UNL     1      -3.735  -2.967  25.349  0.00  0.00    +0.085 C 
ENDROOT
BRANCH   8  14
ATOM      3  N   UNL     1      -0.905   0.913  24.161  0.00  0.00    -0.237 NA
ATOM      5  N   UNL     1       1.361   1.574  23.676  0.00  0.00    -0.232 NA
ATOM     14  C   UNL     1      -0.481  -0.366  24.220  0.00  0.00    +0.050 A 
ATOM     18  C   UNL     1       0.830  -0.749  24.020  0.00  0.00    +0.052 A 
ATOM     21  C   UNL     1       1.716   0.274  23.750  0.00  0.00    +0.075 A 
ATOM     22  C   UNL     1       0.054   1.819  23.889  0.00  0.00    +0.127 A 
ATOM     25  C   UNL     1      -0.378   3.244  23.815  0.00  0.00    +0.088 C 
BRANCH  21  24
ATOM     24  C   UNL     1       3.116   0.006  23.520  0.00  0.00    +0.000 A 
ATOM     26  C   UNL     1       3.659  -1.226  23.884  0.00  0.00    +0.010 A 
ATOM     27  C   UNL     1       3.925   0.980  22.934  0.00  0.00    +0.010 A 
ATOM     28  C   UNL     1       5.011  -1.485  23.662  0.00  0.00    +0.001 A 
ATOM     29  C   UNL     1       5.278   0.720  22.712  0.00  0.00    +0.001 A 
ATOM     30  C   UNL     1       5.821  -0.512  23.076  0.00  0.00    +0.000 A 
ENDBRANCH  21  24
ENDBRANCH   8  14
BRANCH   7  13
ATOM     13  C   UNL     1      -4.641   0.673  25.760  0.00  0.00    +0.100 C 
BRANCH  13   2
ATOM      2  N   UNL     1      -5.349   1.580  24.871  0.00  0.00    -0.312 NA
ATOM     31  H   UNL     1      -6.335   1.595  25.132  0.00  0.00    +0.122 HD
BRANCH   2  15
ATOM      4  N   UNL     1      -2.474   4.707  24.985  0.00  0.00    -0.305 NA
ATOM     15  C   UNL     1      -4.798   2.931  24.951  0.00  0.00    +0.056 C 
ATOM     16  C   UNL     1      -4.000   3.253  23.687  0.00  0.00    +0.034 C 
ATOM     17  C   UNL     1      -3.908   3.087  26.187  0.00  0.00    +0.034 C 
ATOM     19  C   UNL     1      -3.332   4.626  23.795  0.00  0.00    +0.085 C 
ATOM     20  C   UNL     1      -3.244   4.466  26.213  0.00  0.00    +0.085 C 
ATOM     23  C   UNL     1      -1.806   6.006  25.046  0.00  0.00    +0.104 C 
ENDBRANCH   2  15
ENDBRANCH  13   2
ENDBRANCH   7  13
TORSDOF 5
ENDMDL
MODEL 3
REMARK VINA RESULT:       1.3      1.960      5.702
REMARK  Name = 45360474
REMARK  7 active torsions:
REMARK  status: ('A' for Active; 'I' for Inactive)
REMARK    1  A    between atoms: N_2  and  C_13
REMARK    2  A    between atoms: N_2  and  C_15
REMARK    3  A    between atoms: N_4  and  C_23
REMARK    4  A    between atoms: C_7  and  C_13
REMARK    5  A    between atoms: C_8  and  C_14
REMARK    6  A    between atoms: C_21  and  C_24
REMARK    7  A    between atoms: C_22  and  C_25
REMARK                            x       y       z     vdW  Elec       q    Type
REMARK                         _______ _______ _______ _____ _____    ______ ____
ROOT
ATOM      1  N   UNL     1      -4.960   3.008  23.790  0.00  0.00    -0.298 NA
ATOM      6  C   UNL     1      -3.884   3.587  26.090  0.00  0.00    +0.002 C 
ATOM      7  C   UNL     1      -5.329   1.979  24.798  0.00  0.00    +0.071 C 
ATOM      8  C   UNL     1      -2.817   3.642  24.962  0.00  0.00    +0.055 C 
ATOM      9  C   UNL     1      -4.537   2.189  26.106  0.00  0.00    +0.024 C 
ATOM     10  C   UNL     1      -4.985   4.600  25.711  0.00  0.00    +0.019 C 
ATOM     11  C   UNL     1      -3.483   3.093  23.667  0.00  0.00    +0.094 C 
ATOM     12  C   UNL     1      -5.460   4.318  24.274  0.00  0.00    +0.085 C 
ENDROOT
BRANCH   8  14
ATOM      3  N   UNL     1      -0.969   3.121  26.477  0.00  0.00    -0.237 NA
ATOM      5  N   UNL     1       0.976   1.894  25.756  0.00  0.00    -0.232 NA
ATOM     14  C   UNL     1      -1.459   3.008  25.225  0.00  0.00    +0.050 A 
ATOM     18  C   UNL     1      -0.799   2.362  24.199  0.00  0.00    +0.052 A 
ATOM     21  C   UNL     1       0.427   1.819  24.526  0.00  0.00    +0.075 A 
ATOM     22  C   UNL     1       0.235   2.550  26.671  0.00  0.00    +0.127 A 
ATOM     25  C   UNL     1       0.809   2.655  28.042  0.00  0.00    +0.088 C 
BRANCH  21  24
ATOM     24  C   UNL     1       1.218   1.119  23.543  0.00  0.00    +0.000 A 
ATOM     26  C   UNL     1       2.575   1.412  23.403  0.00  0.00    +0.010 A 
ATOM     27  C   UNL     1       0.627   0.151  22.732  0.00  0.00    +0.010 A 
ATOM     28  C   UNL     1       3.340   0.737  22.454  0.00  0.00    +0.001 A 
ATOM     29  C   UNL     1       1.394  -0.525  21.781  0.00  0.00    +0.001 A 
ATOM     30  C   UNL     1       2.750  -0.232  21.643  0.00  0.00    +0.000 A 
ENDBRANCH  21  24
ENDBRANCH   8  14
BRANCH   7  13
ATOM     13  C   UNL     1      -5.174   0.556  24.260  0.00  0.00    +0.100 C 
BRANCH  13   2
ATOM      2  N   UNL     1      -4.617  -0.322  25.276  0.00  0.00    -0.312 NA
ATOM     31  H   UNL     1      -5.184  -1.169  25.328  0.00  0.00    +0.122 HD
BRANCH   2  15
ATOM      4  N   UNL     1      -0.881  -2.338  25.474  0.00  0.00    -0.305 NA
ATOM     15  C   UNL     1      -3.234  -0.675  24.964  0.00  0.00    +0.056 C 
ATOM     16  C   UNL     1      -3.150  -2.133  24.506  0.00  0.00    +0.034 C 
ATOM     17  C   UNL     1      -2.325  -0.455  26.177  0.00  0.00    +0.034 C 
ATOM     19  C   UNL     1      -1.696  -2.550  24.270  0.00  0.00    +0.085 C 
ATOM     20  C   UNL     1      -0.899  -0.927  25.887  0.00  0.00    +0.085 C 
ATOM     23  C   UNL     1       0.492  -2.788  25.249  0.00  0.00    +0.104 C 
ENDBRANCH   2  15
ENDBRANCH  13   2
ENDBRANCH   7  13
TORSDOF 5
ENDMDL
MODEL 4
REMARK VINA RESULT:       1.4      1.356      6.967
REMARK  Name = 45360474
REMARK  7 active torsions:
REMARK  status: ('A' for Active; 'I' for Inactive)
REMARK    1  A    between atoms: N_2  and  C_13
REMARK    2  A    between atoms: N_2  and  C_15
REMARK    3  A    between atoms: N_4  and  C_23
REMARK    4  A    between atoms: C_7  and  C_13
REMARK    5  A    between atoms: C_8  and  C_14
REMARK    6  A    between atoms: C_21  and  C_24
REMARK    7  A    between atoms: C_22  and  C_25
REMARK                            x       y       z     vdW  Elec       q    Type
REMARK                         _______ _______ _______ _____ _____    ______ ____
ROOT
ATOM      1  N   UNL     1      -3.046   4.085  24.238  0.00  0.00    -0.298 NA
ATOM      6  C   UNL     1      -0.664   3.851  25.262  0.00  0.00    +0.002 C 
ATOM      7  C   UNL     1      -3.143   3.616  25.646  0.00  0.00    +0.071 C 
ATOM      8  C   UNL     1      -0.738   3.129  23.889  0.00  0.00    +0.055 C 
ATOM      9  C   UNL     1      -1.743   3.273  26.201  0.00  0.00    +0.024 C 
ATOM     10  C   UNL     1      -1.027   5.330  25.009  0.00  0.00    +0.019 C 
ATOM     11  C   UNL     1      -2.228   3.139  23.440  0.00  0.00    +0.094 C 
ATOM     12  C   UNL     1      -2.360   5.400  24.244  0.00  0.00    +0.085 C 
ENDROOT
BRANCH   8  14
ATOM      3  N   UNL     1      -0.950   0.696  23.753  0.00  0.00    -0.237 NA
ATOM      5  N   UNL     1       0.966  -0.751  23.554  0.00  0.00    -0.232 NA
ATOM     14  C   UNL     1      -0.108   1.750  23.767  0.00  0.00    +0.050 A 
ATOM     18  C   UNL     1       1.265   1.634  23.679  0.00  0.00    +0.052 A 
ATOM     21  C   UNL     1       1.750   0.346  23.573  0.00  0.00    +0.075 A 
ATOM     22  C   UNL     1      -0.356  -0.507  23.647  0.00  0.00    +0.127 A 
ATOM     25  C   UNL     1      -1.256  -1.695  23.630  0.00  0.00    +0.088 C 
BRANCH  21  24
ATOM     24  C   UNL     1       3.167   0.089  23.477  0.00  0.00    +0.000 A 
ATOM     26  C   UNL     1       4.027   1.087  23.019  0.00  0.00    +0.010 A 
ATOM     27  C   UNL     1       3.677  -1.158  23.840  0.00  0.00    +0.010 A 
ATOM     28  C   UNL     1       5.396   0.840  22.925  0.00  0.00    +0.001 A 
ATOM     29  C   UNL     1       5.047  -1.405  23.745  0.00  0.00    +0.001 A 
ATOM     30  C   UNL     1       5.906  -0.406  23.288  0.00  0.00    +0.000 A 
ENDBRANCH  21  24
ENDBRANCH   8  14
BRANCH   7  13
ATOM     13  C   UNL     1      -4.121   2.451  25.805  0.00  0.00    +0.100 C 
BRANCH  13   2
ATOM      2  N   UNL     1      -4.237   1.701  24.564  0.00  0.00    -0.312 NA
ATOM     31  H   UNL     1      -3.381   1.824  24.023  0.00  0.00    +0.122 HD
BRANCH   2  15
ATOM      4  N   UNL     1      -3.461  -2.471  24.776  0.00  0.00    -0.305 NA
ATOM     15  C   UNL     1      -4.453   0.280  24.827  0.00  0.00    +0.056 C 
ATOM     16  C   UNL     1      -3.424  -0.234  25.835  0.00  0.00    +0.034 C 
ATOM     17  C   UNL     1      -4.371  -0.535  23.533  0.00  0.00    +0.034 C 
ATOM     19  C   UNL     1      -3.572  -1.743  26.048  0.00  0.00    +0.085 C 
ATOM     20  C   UNL     1      -4.488  -2.033  23.821  0.00  0.00    +0.085 C 
ATOM     23  C   UNL     1      -3.554  -3.913  25.003  0.00  0.00    +0.104 C 
ENDBRANCH   2  15
ENDBRANCH  13   2
ENDBRANCH   7  13
TORSDOF 5
ENDMDL
MODEL 5
REMARK VINA RESULT:       1.5      1.527      5.864
REMARK  Name = 45360474
REMARK  7 active torsions:
REMARK  status: ('A' for Active; 'I' for Inactive)
REMARK    1  A    between atoms: N_2  and  C_13
REMARK    2  A    between atoms: N_2  and  C_15
REMARK    3  A    between atoms: N_4  and  C_23
REMARK    4  A    between atoms: C_7  and  C_13
REMARK    5  A    between atoms: C_8  and  C_14
REMARK    6  A    between atoms: C_21  and  C_24
REMARK    7  A    between atoms: C_22  and  C_25
REMARK                            x       y       z     vdW  Elec       q    Type
REMARK                         _______ _______ _______ _____ _____    ______ ____
ROOT
ATOM      1  N   UNL     1      -3.556  -2.164  25.708  0.00  0.00    -0.298 NA
ATOM      6  C   UNL     1      -1.745  -2.581  23.884  0.00  0.00    +0.002 C 
ATOM      7  C   UNL     1      -4.138  -1.952  24.356  0.00  0.00    +0.071 C 
ATOM      8  C   UNL     1      -1.204  -1.619  24.977  0.00  0.00    +0.055 C 
ATOM      9  C   UNL     1      -3.034  -1.990  23.277  0.00  0.00    +0.024 C 
ATOM     10  C   UNL     1      -2.138  -3.891  24.599  0.00  0.00    +0.019 C 
ATOM     11  C   UNL     1      -2.396  -1.261  25.911  0.00  0.00    +0.094 C 
ATOM     12  C   UNL     1      -3.071  -3.564  25.778  0.00  0.00    +0.085 C 
ENDROOT
BRANCH   8  14
ATOM      3  N   UNL     1       0.727  -0.601  23.874  0.00  0.00    -0.237 NA
ATOM      5  N   UNL     1       1.002   1.787  23.710  0.00  0.00    -0.232 NA
ATOM     14  C   UNL     1      -0.431  -0.387  24.531  0.00  0.00    +0.050 A 
ATOM     18  C   UNL     1      -0.931   0.869  24.812  0.00  0.00    +0.052 A 
ATOM     21  C   UNL     1      -0.165   1.929  24.372  0.00  0.00    +0.075 A 
ATOM     22  C   UNL     1       1.384   0.513  23.498  0.00  0.00    +0.127 A 
ATOM     25  C   UNL     1       2.669   0.315  22.770  0.00  0.00    +0.088 C 
BRANCH  21  24
ATOM     24  C   UNL     1      -0.576   3.293  24.604  0.00  0.00    +0.000 A 
ATOM     26  C   UNL     1      -0.070   4.319  23.805  0.00  0.00    +0.010 A 
ATOM     27  C   UNL     1      -1.478   3.586  25.626  0.00  0.00    +0.010 A 
ATOM     28  C   UNL     1      -0.467   5.637  24.029  0.00  0.00    +0.001 A 
ATOM     29  C   UNL     1      -1.875   4.905  25.849  0.00  0.00    +0.001 A 
ATOM     30  C   UNL     1      -1.369   5.930  25.050  0.00  0.00    +0.000 A 
ENDBRANCH  21  24
ENDBRANCH   8  14
BRANCH   7  13
ATOM     13  C   UNL     1      -4.970  -0.671  24.275  0.00  0.00    +0.100 C 
BRANCH  13   2
ATOM      2  N   UNL     1      -4.210   0.400  23.650  0.00  0.00    -0.312 NA
ATOM     31  H   UNL     1      -4.579   0.564  22.714  0.00  0.00    +0.122 HD
BRANCH   2  15
ATOM      4  N   UNL     1      -5.757   4.053  25.174  0.00  0.00    -0.305 NA
ATOM     15  C   UNL     1      -4.293   1.630  24.434  0.00  0.00    +0.056 C 
ATOM     16  C   UNL     1      -5.521   1.595  25.347  0.00  0.00    +0.034 C 
ATOM     17  C   UNL     1      -4.354   2.858  23.521  0.00  0.00    +0.034 C 
ATOM     19  C   UNL     1      -5.681   2.917  26.102  0.00  0.00    +0.085 C 
ATOM     20  C   UNL     1      -4.552   4.138  24.337  0.00  0.00    +0.085 C 
ATOM     23  C   UNL     1      -5.959   5.301  25.909  0.00  0.00    +0.104 C 
ENDBRANCH   2  15
ENDBRANCH  13   2
ENDBRANCH   7  13
TORSDOF 5
ENDMDL
MODEL 6
REMARK VINA RESULT:       1.9      1.410      5.097
REMARK  Name = 45360474
REMARK  7 active torsions:
REMARK  status: ('A' for Active; 'I' for Inactive)
REMARK    1  A    between atoms: N_2  and  C_13
REMARK    2  A    between atoms: N_2  and  C_15
REMARK    3  A    between atoms: N_4  and  C_23
REMARK    4  A    between atoms: C_7  and  C_13
REMARK    5  A    between atoms: C_8  and  C_14
REMARK    6  A    between atoms: C_21  and  C_24
REMARK    7  A    between atoms: C_22  and  C_25
REMARK                            x       y       z     vdW  Elec       q    Type
REMARK                         _______ _______ _______ _____ _____    ______ ____
ROOT
ATOM      1  N   UNL     1       0.123   3.642  25.419  0.00  0.00    -0.298 NA
ATOM      6  C   UNL     1      -1.916   4.017  23.844  0.00  0.00    +0.002 C 
ATOM      7  C   UNL     1       0.342   2.936  24.129  0.00  0.00    +0.071 C 
ATOM      8  C   UNL     1      -2.392   3.552  25.248  0.00  0.00    +0.055 C 
ATOM      9  C   UNL     1      -0.937   2.972  23.266  0.00  0.00    +0.024 C 
ATOM     10  C   UNL     1      -1.117   5.321  24.054  0.00  0.00    +0.019 C 
ATOM     11  C   UNL     1      -1.125   3.158  26.060  0.00  0.00    +0.094 C 
ATOM     12  C   UNL     1      -0.037   5.086  25.125  0.00  0.00    +0.085 C 
ENDROOT
BRANCH   8  14
ATOM      3  N   UNL     1      -4.703   2.901  25.712  0.00  0.00    -0.237 NA
ATOM      5  N   UNL     1      -5.469   0.628  25.481  0.00  0.00    -0.232 NA
ATOM     14  C   UNL     1      -3.479   2.490  25.323  0.00  0.00    +0.050 A 
ATOM     18  C   UNL     1      -3.176   1.182  25.001  0.00  0.00    +0.052 A 
ATOM     21  C   UNL     1      -4.221   0.286  25.098  0.00  0.00    +0.075 A 
ATOM     22  C   UNL     1      -5.638   1.933  25.769  0.00  0.00    +0.127 A 
ATOM     25  C   UNL     1      -7.003   2.349  26.196  0.00  0.00    +0.088 C 
BRANCH  21  24
ATOM     24  C   UNL     1      -4.035  -1.112  24.791  0.00  0.00    +0.000 A 
ATOM     26  C   UNL     1      -3.306  -1.925  25.659  0.00  0.00    +0.010 A 
ATOM     27  C   UNL     1      -4.583  -1.649  23.627  0.00  0.00    +0.010 A 
ATOM     28  C   UNL     1      -3.126  -3.276  25.362  0.00  0.00    +0.001 A 
ATOM     29  C   UNL     1      -4.402  -3.001  23.331  0.00  0.00    +0.001 A 
ATOM     30  C   UNL     1      -3.674  -3.814  24.199  0.00  0.00    +0.000 A 
ENDBRANCH  21  24
ENDBRANCH   8  14
BRANCH   7  13
ATOM     13  C   UNL     1       0.857   1.509  24.327  0.00  0.00    +0.100 C 
BRANCH  13   2
ATOM      2  N   UNL     1       0.898   0.796  23.060  0.00  0.00    -0.312 NA
ATOM     31  H   UNL     1       0.619   1.432  22.313  0.00  0.00    +0.122 HD
BRANCH   2  15
ATOM      4  N   UNL     1       4.974  -0.222  23.697  0.00  0.00    -0.305 NA
ATOM     15  C   UNL     1       2.238   0.280  22.791  0.00  0.00    +0.056 C 
ATOM     16  C   UNL     1       2.580  -0.844  23.772  0.00  0.00    +0.034 C 
ATOM     17  C   UNL     1       3.284   1.394  22.888  0.00  0.00    +0.034 C 
ATOM     19  C   UNL     1       4.018  -1.330  23.570  0.00  0.00    +0.085 C 
ATOM     20  C   UNL     1       4.698   0.835  22.715  0.00  0.00    +0.085 C 
ATOM     23  C   UNL     1       6.345  -0.711  23.552  0.00  0.00    +0.104 C 
ENDBRANCH   2  15
ENDBRANCH  13   2
ENDBRANCH   7  13
TORSDOF 5
ENDMDL
MODEL 7
REMARK VINA RESULT:       3.2      1.831      5.549
REMARK  Name = 45360474
REMARK  7 active torsions:
REMARK  status: ('A' for Active; 'I' for Inactive)
REMARK    1  A    between atoms: N_2  and  C_13
REMARK    2  A    between atoms: N_2  and  C_15
REMARK    3  A    between atoms: N_4  and  C_23
REMARK    4  A    between atoms: C_7  and  C_13
REMARK    5  A    between atoms: C_8  and  C_14
REMARK    6  A    between atoms: C_21  and  C_24
REMARK    7  A    between atoms: C_22  and  C_25
REMARK                            x       y       z     vdW  Elec       q    Type
REMARK                         _______ _______ _______ _____ _____    ______ ____
ROOT
ATOM      1  N   UNL     1      -1.579   5.242  25.669  0.00  0.00    -0.298 NA
ATOM      6  C   UNL     1      -3.059   4.249  23.770  0.00  0.00    +0.002 C 
ATOM      7  C   UNL     1      -0.779   4.301  24.841  0.00  0.00    +0.071 C 
ATOM      8  C   UNL     1      -3.776   4.119  25.142  0.00  0.00    +0.055 C 
ATOM      9  C   UNL     1      -1.686   3.548  23.844  0.00  0.00    +0.024 C 
ATOM     10  C   UNL     1      -2.789   5.753  23.549  0.00  0.00    +0.019 C 
ATOM     11  C   UNL     1      -2.758   4.543  26.239  0.00  0.00    +0.094 C 
ATOM     12  C   UNL     1      -2.068   6.325  24.782  0.00  0.00    +0.085 C 
ENDROOT
BRANCH   8  14
ATOM      3  N   UNL     1      -5.602   2.876  26.193  0.00  0.00    -0.237 NA
ATOM      5  N   UNL     1      -5.742   0.472  26.095  0.00  0.00    -0.232 NA
ATOM     14  C   UNL     1      -4.464   2.803  25.471  0.00  0.00    +0.050 A 
ATOM     18  C   UNL     1      -3.912   1.616  25.030  0.00  0.00    +0.052 A 
ATOM     21  C   UNL     1      -4.601   0.472  25.375  0.00  0.00    +0.075 A 
ATOM     22  C   UNL     1      -6.180   1.691  26.466  0.00  0.00    +0.127 A 
ATOM     25  C   UNL     1      -7.438   1.732  27.264  0.00  0.00    +0.088 C 
BRANCH  21  24
ATOM     24  C   UNL     1      -4.127  -0.832  24.978  0.00  0.00    +0.000 A 
ATOM     26  C   UNL     1      -3.229  -1.525  25.791  0.00  0.00    +0.010 A 
ATOM     27  C   UNL     1      -4.565  -1.399  23.782  0.00  0.00    +0.010 A 
ATOM     28  C   UNL     1      -2.770  -2.784  25.408  0.00  0.00    +0.001 A 
ATOM     29  C   UNL     1      -4.105  -2.660  23.399  0.00  0.00    +0.001 A 
ATOM     30  C   UNL     1      -3.209  -3.352  24.212  0.00  0.00    +0.000 A 
ENDBRANCH  21  24
ENDBRANCH   8  14
BRANCH   7  13
ATOM     13  C   UNL     1       0.053   3.340  25.692  0.00  0.00    +0.100 C 
BRANCH  13   2
ATOM      2  N   UNL     1      -0.577   2.032  25.758  0.00  0.00    -0.312 NA
ATOM     31  H   UNL     1      -1.534   2.108  25.414  0.00  0.00    +0.122 HD
BRANCH   2  15
ATOM      4  N   UNL     1       0.979   0.050  22.336  0.00  0.00    -0.305 NA
ATOM     15  C   UNL     1       0.158   1.054  24.958  0.00  0.00    +0.056 C 
ATOM     16  C   UNL     1       1.225   1.754  24.114  0.00  0.00    +0.034 C 
ATOM     17  C   UNL     1      -0.791   0.264  24.052  0.00  0.00    +0.034 C 
ATOM     19  C   UNL     1       1.937   0.759  23.195  0.00  0.00    +0.085 C 
ATOM     20  C   UNL     1      -0.013  -0.682  23.135  0.00  0.00    +0.085 C 
ATOM     23  C   UNL     1       1.679  -0.859  21.430  0.00  0.00    +0.104 C 
ENDBRANCH   2  15
ENDBRANCH  13   2
ENDBRANCH   7  13
TORSDOF 5
ENDMDL
MODEL 8
REMARK VINA RESULT:       3.3      2.923      5.798
REMARK  Name = 45360474
REMARK  7 active torsions:
REMARK  status: ('A' for Active; 'I' for Inactive)
REMARK    1  A    between atoms: N_2  and  C_13
REMARK    2  A    between atoms: N_2  and  C_15
REMARK    3  A    between atoms: N_4  and  C_23
REMARK    4  A    between atoms: C_7  and  C_13
REMARK    5  A    between atoms: C_8  and  C_14
REMARK    6  A    between atoms: C_21  and  C_24
REMARK    7  A    between atoms: C_22  and  C_25
REMARK                            x       y       z     vdW  Elec       q    Type
REMARK                         _______ _______ _______ _____ _____    ______ ____
ROOT
ATOM      1  N   UNL     1      -3.974  -1.495  25.669  0.00  0.00    -0.298 NA
ATOM      6  C   UNL     1      -2.389  -0.830  23.713  0.00  0.00    +0.002 C 
ATOM      7  C   UNL     1      -4.675  -0.569  24.740  0.00  0.00    +0.071 C 
ATOM      8  C   UNL     1      -1.677  -0.634  25.079  0.00  0.00    +0.055 C 
ATOM      9  C   UNL     1      -3.692  -0.002  23.693  0.00  0.00    +0.024 C 
ATOM     10  C   UNL     1      -2.795  -2.317  23.630  0.00  0.00    +0.019 C 
ATOM     11  C   UNL     1      -2.742  -0.855  26.192  0.00  0.00    +0.094 C 
ATOM     12  C   UNL     1      -3.579  -2.699  24.898  0.00  0.00    +0.085 C 
ENDROOT
BRANCH   8  14
ATOM      3  N   UNL     1      -0.740   1.461  24.233  0.00  0.00    -0.237 NA
ATOM      5  N   UNL     1       0.563   2.938  25.621  0.00  0.00    -0.232 NA
ATOM     14  C   UNL     1      -0.873   0.639  25.295  0.00  0.00    +0.050 A 
ATOM     18  C   UNL     1      -0.324   0.896  26.536  0.00  0.00    +0.052 A 
ATOM     21  C   UNL     1       0.390   2.072  26.641  0.00  0.00    +0.075 A 
ATOM     22  C   UNL     1      -0.021   2.576  24.462  0.00  0.00    +0.127 A 
ATOM     25  C   UNL     1       0.149   3.507  23.311  0.00  0.00    +0.088 C 
BRANCH  21  24
ATOM     24  C   UNL     1       1.016   2.455  27.884  0.00  0.00    +0.000 A 
ATOM     26  C   UNL     1       2.336   2.906  27.889  0.00  0.00    +0.010 A 
ATOM     27  C   UNL     1       0.301   2.374  29.079  0.00  0.00    +0.010 A 
ATOM     28  C   UNL     1       2.941   3.277  29.090  0.00  0.00    +0.001 A 
ATOM     29  C   UNL     1       0.908   2.745  30.280  0.00  0.00    +0.001 A 
ATOM     30  C   UNL     1       2.227   3.196  30.285  0.00  0.00    +0.000 A 
ENDBRANCH  21  24
ENDBRANCH   8  14
BRANCH   7  13
ATOM     13  C   UNL     1      -5.423   0.541  25.480  0.00  0.00    +0.100 C 
BRANCH  13   2
ATOM      2  N   UNL     1      -5.905   1.548  24.548  0.00  0.00    -0.312 NA
ATOM     31  H   UNL     1      -6.906   1.679  24.692  0.00  0.00    +0.122 HD
BRANCH   2  15
ATOM      4  N   UNL     1      -2.715   4.287  25.164  0.00  0.00    -0.305 NA
ATOM     15  C   UNL     1      -5.210   2.818  24.742  0.00  0.00    +0.056 C 
ATOM     16  C   UNL     1      -4.195   3.043  23.618  0.00  0.00    +0.034 C 
ATOM     17  C   UNL     1      -4.503   2.855  26.100  0.00  0.00    +0.034 C 
ATOM     19  C   UNL     1      -3.387   4.321  23.858  0.00  0.00    +0.085 C 
ATOM     20  C   UNL     1      -3.685   4.138  26.258  0.00  0.00    +0.085 C 
ATOM     23  C   UNL     1      -1.908   5.491  25.356  0.00  0.00    +0.104 C 
ENDBRANCH   2  15
ENDBRANCH  13   2
ENDBRANCH   7  13
TORSDOF 5
ENDMDL
MODEL 9
REMARK VINA RESULT:       3.7      2.884      5.694
REMARK  Name = 45360474
REMARK  7 active torsions:
REMARK  status: ('A' for Active; 'I' for Inactive)
REMARK    1  A    between atoms: N_2  and  C_13
REMARK    2  A    between atoms: N_2  and  C_15
REMARK    3  A    between atoms: N_4  and  C_23
REMARK    4  A    between atoms: C_7  and  C_13
REMARK    5  A    between atoms: C_8  and  C_14
REMARK    6  A    between atoms: C_21  and  C_24
REMARK    7  A    between atoms: C_22  and  C_25
REMARK                            x       y       z     vdW  Elec       q    Type
REMARK                         _______ _______ _______ _____ _____    ______ ____
ROOT
ATOM      1  N   UNL     1      -4.925   2.638  23.675  0.00  0.00    -0.298 NA
ATOM      6  C   UNL     1      -3.809   3.572  25.833  0.00  0.00    +0.002 C 
ATOM      7  C   UNL     1      -5.240   1.757  24.831  0.00  0.00    +0.071 C 
ATOM      8  C   UNL     1      -2.773   3.489  24.679  0.00  0.00    +0.055 C 
ATOM      9  C   UNL     1      -4.421   2.176  26.071  0.00  0.00    +0.024 C 
ATOM     10  C   UNL     1      -4.949   4.491  25.344  0.00  0.00    +0.019 C 
ATOM     11  C   UNL     1      -3.456   2.740  23.498  0.00  0.00    +0.094 C 
ATOM     12  C   UNL     1      -5.451   3.991  23.978  0.00  0.00    +0.085 C 
ENDROOT
BRANCH   8  14
ATOM      3  N   UNL     1      -0.732   2.340  23.976  0.00  0.00    -0.237 NA
ATOM      5  N   UNL     1       1.091   1.917  25.494  0.00  0.00    -0.232 NA
ATOM     14  C   UNL     1      -1.391   2.934  24.992  0.00  0.00    +0.050 A 
ATOM     18  C   UNL     1      -0.881   3.057  26.269  0.00  0.00    +0.052 A 
ATOM     21  C   UNL     1       0.377   2.525  26.464  0.00  0.00    +0.075 A 
ATOM     22  C   UNL     1       0.486   1.860  24.292  0.00  0.00    +0.127 A 
ATOM     25  C   UNL     1       1.245   1.194  23.195  0.00  0.00    +0.088 C 
BRANCH  21  24
ATOM     24  C   UNL     1       1.021   2.586  27.754  0.00  0.00    +0.000 A 
ATOM     26  C   UNL     1       2.379   2.893  27.841  0.00  0.00    +0.010 A 
ATOM     27  C   UNL     1       0.286   2.338  28.913  0.00  0.00    +0.010 A 
ATOM     28  C   UNL     1       3.001   2.952  29.087  0.00  0.00    +0.001 A 
ATOM     29  C   UNL     1       0.910   2.397  30.159  0.00  0.00    +0.001 A 
ATOM     30  C   UNL     1       2.268   2.704  30.246  0.00  0.00    +0.000 A 
ENDBRANCH  21  24
ENDBRANCH   8  14
BRANCH   7  13
ATOM     13  C   UNL     1      -5.057   0.275  24.501  0.00  0.00    +0.100 C 
BRANCH  13   2
ATOM      2  N   UNL     1      -4.852  -0.502  25.712  0.00  0.00    -0.312 NA
ATOM     31  H   UNL     1      -5.612  -1.177  25.804  0.00  0.00    +0.122 HD
BRANCH   2  15
ATOM      4  N   UNL     1      -0.846  -1.425  24.635  0.00  0.00    -0.305 NA
ATOM     15  C   UNL     1      -3.572  -1.205  25.676  0.00  0.00    +0.056 C 
ATOM     16  C   UNL     1      -2.445  -0.276  26.136  0.00  0.00    +0.034 C 
ATOM     17  C   UNL     1      -3.275  -1.731  24.269  0.00  0.00    +0.034 C 
ATOM     19  C   UNL     1      -1.083  -0.963  26.010  0.00  0.00    +0.085 C 
ATOM     20  C   UNL     1      -1.886  -2.370  24.205  0.00  0.00    +0.085 C 
ATOM     23  C   UNL     1       0.478  -2.033  24.520  0.00  0.00    +0.104 C 
ENDBRANCH   2  15
ENDBRANCH  13   2
ENDBRANCH   7  13
TORSDOF 5
ENDMDL
