MODEL 1
REMARK VINA RESULT:       8.1      0.000      0.000
REMARK  Name = 11911726
REMARK  7 active torsions:
REMARK  status: ('A' for Active; 'I' for Inactive)
REMARK    1  A    between atoms: N_6  and  C_13
REMARK    2  A    between atoms: N_7  and  C_14
REMARK    3  A    between atoms: N_10  and  C_34
REMARK    4  A    between atoms: N_10  and  C_35
REMARK    5  A    between atoms: N_10  and  C_36
REMARK    6  A    between atoms: C_17  and  C_19
REMARK    7  A    between atoms: C_22  and  C_28
REMARK                            x       y       z     vdW  Elec       q    Type
REMARK                         _______ _______ _______ _____ _____    ______ ____
ROOT
ATOM      1  O   UNL     1      -2.670  -1.435  26.002  0.00  0.00    -0.370 OA
ATOM      2  O   UNL     1      -3.984  -1.614  23.178  0.00  0.00    -0.370 OA
ATOM     11  C   UNL     1      -2.739  -1.073  23.653  0.00  0.00    +0.171 C 
ATOM     12  C   UNL     1      -3.005  -0.451  25.009  0.00  0.00    +0.171 C 
ATOM     13  C   UNL     1      -1.760  -2.187  23.944  0.00  0.00    +0.130 C 
ATOM     14  C   UNL     1      -4.494  -0.192  25.011  0.00  0.00    +0.130 C 
ATOM     15  C   UNL     1      -2.151  -2.604  25.352  0.00  0.00    +0.185 C 
ATOM     16  C   UNL     1      -5.025  -1.294  24.112  0.00  0.00    +0.185 C 
ENDROOT
BRANCH  14   7
ATOM      7  N   UNL     1      -4.771   1.103  24.431  0.00  0.00    -0.306 N 
ATOM      8  N   UNL     1      -2.915   2.089  25.474  0.00  0.00    -0.214 NA
ATOM      9  N   UNL     1      -4.365   3.384  24.050  0.00  0.00    -0.223 NA
ATOM     18  C   UNL     1      -3.994   2.225  24.659  0.00  0.00    +0.216 A 
ATOM     22  C   UNL     1      -2.180   3.203  25.674  0.00  0.00    +0.076 A 
ATOM     23  C   UNL     1      -3.586   4.457  24.293  0.00  0.00    +0.116 A 
ATOM     24  C   UNL     1      -2.469   4.426  25.104  0.00  0.00    +0.048 A 
ATOM     38  H   UNL     1      -5.542   1.204  23.781  0.00  0.00    +0.149 HD
BRANCH  22  28
ATOM     28  C   UNL     1      -1.038   3.037  26.542  0.00  0.00    +0.001 A 
ATOM     30  C   UNL     1       0.237   2.868  25.999  0.00  0.00    +0.012 A 
ATOM     31  C   UNL     1      -1.206   3.046  27.929  0.00  0.00    +0.012 A 
ATOM     32  C   UNL     1       1.339   2.706  26.839  0.00  0.00    +0.024 A 
ATOM     33  C   UNL     1      -0.104   2.885  28.769  0.00  0.00    +0.024 A 
ATOM     34  C   UNL     1       1.169   2.716  28.224  0.00  0.00    +0.029 A 
BRANCH  34  10
ATOM     10  N   UNL     1       2.283   2.554  29.073  0.00  0.00    -0.336 N 
ATOM     35  C   UNL     1       2.143   1.881  30.348  0.00  0.00    +0.129 C 
ATOM     36  C   UNL     1       3.581   3.071  28.686  0.00  0.00    +0.129 C 
ENDBRANCH  34  10
ENDBRANCH  22  28
ENDBRANCH  14   7
BRANCH  13   6
ATOM      3  O   UNL     1      -0.841   0.274  22.784  0.00  0.00    -0.270 OA
ATOM      6  N   UNL     1      -0.398  -1.710  23.898  0.00  0.00    -0.304 N 
ATOM     17  C   UNL     1      -0.050  -0.502  23.313  0.00  0.00    +0.245 C 
ATOM     37  H   UNL     1       0.322  -2.353  24.213  0.00  0.00    +0.149 HD
BRANCH  17  19
ATOM      4  O   UNL     1       4.686  -1.625  23.915  0.00  0.00    -0.453 OA
ATOM      5  O   UNL     1       5.394   0.619  23.395  0.00  0.00    -0.453 OA
ATOM     19  C   UNL     1       1.398  -0.167  23.325  0.00  0.00    +0.040 A 
ATOM     20  C   UNL     1       2.305  -1.161  23.636  0.00  0.00    +0.062 A 
ATOM     21  C   UNL     1       1.781   1.135  23.022  0.00  0.00    +0.017 A 
ATOM     25  C   UNL     1       3.637  -0.802  23.635  0.00  0.00    +0.167 A 
ATOM     26  C   UNL     1       3.136   1.472  23.027  0.00  0.00    +0.050 A 
ATOM     27  C   UNL     1       4.042   0.478  23.339  0.00  0.00    +0.166 A 
ATOM     29  C   UNL     1       5.795  -0.717  23.760  0.00  0.00    +0.466 C 
ENDBRANCH  17  19
ENDBRANCH  13   6
TORSDOF 5
ENDMDL
MODEL 2
REMARK VINA RESULT:      11.9      2.515      5.720
REMARK  Name = 11911726
REMARK  7 active torsions:
REMARK  status: ('A' for Active; 'I' for Inactive)
REMARK    1  A    between atoms: N_6  and  C_13
REMARK    2  A    between atoms: N_7  and  C_14
REMARK    3  A    between atoms: N_10  and  C_34
REMARK    4  A    between atoms: N_10  and  C_35
REMARK    5  A    between atoms: N_10  and  C_36
REMARK    6  A    between atoms: C_17  and  C_19
REMARK    7  A    between atoms: C_22  and  C_28
REMARK                            x       y       z     vdW  Elec       q    Type
REMARK                         _______ _______ _______ _____ _____    ______ ____
ROOT
ATOM      1  O   UNL     1      -2.789   3.220  23.894  0.00  0.00    -0.370 OA
ATOM      2  O   UNL     1      -5.406   3.031  25.583  0.00  0.00    -0.370 OA
ATOM     11  C   UNL     1      -4.028   2.730  25.864  0.00  0.00    +0.171 C 
ATOM     12  C   UNL     1      -3.428   2.144  24.602  0.00  0.00    +0.171 C 
ATOM     13  C   UNL     1      -3.247   4.004  26.087  0.00  0.00    +0.130 C 
ATOM     14  C   UNL     1      -4.621   1.641  23.824  0.00  0.00    +0.130 C 
ATOM     15  C   UNL     1      -2.898   4.423  24.668  0.00  0.00    +0.185 C 
ATOM     16  C   UNL     1      -5.723   2.591  24.255  0.00  0.00    +0.185 C 
ENDROOT
BRANCH  14   7
ATOM      7  N   UNL     1      -4.939   0.289  24.226  0.00  0.00    -0.306 N 
ATOM      8  N   UNL     1      -2.697  -0.392  24.108  0.00  0.00    -0.214 NA
ATOM      9  N   UNL     1      -4.427  -1.940  24.753  0.00  0.00    -0.223 NA
ATOM     18  C   UNL     1      -3.994  -0.711  24.366  0.00  0.00    +0.216 A 
ATOM     22  C   UNL     1      -1.802  -1.390  24.254  0.00  0.00    +0.076 A 
ATOM     23  C   UNL     1      -3.479  -2.891  24.880  0.00  0.00    +0.116 A 
ATOM     24  C   UNL     1      -2.137  -2.671  24.642  0.00  0.00    +0.048 A 
ATOM     38  H   UNL     1      -5.895   0.054  24.472  0.00  0.00    +0.149 HD
BRANCH  22  28
ATOM     28  C   UNL     1      -0.431  -1.031  23.976  0.00  0.00    +0.001 A 
ATOM     30  C   UNL     1      -0.145   0.053  23.144  0.00  0.00    +0.012 A 
ATOM     31  C   UNL     1       0.613  -1.769  24.538  0.00  0.00    +0.012 A 
ATOM     32  C   UNL     1       1.179   0.397  22.875  0.00  0.00    +0.024 A 
ATOM     33  C   UNL     1       1.938  -1.424  24.270  0.00  0.00    +0.024 A 
ATOM     34  C   UNL     1       2.221  -0.340  23.438  0.00  0.00    +0.029 A 
BRANCH  34  10
ATOM     10  N   UNL     1       3.560   0.009  23.166  0.00  0.00    -0.336 N 
ATOM     35  C   UNL     1       3.867   1.178  22.367  0.00  0.00    +0.129 C 
ATOM     36  C   UNL     1       4.648  -0.806  23.672  0.00  0.00    +0.129 C 
ENDBRANCH  34  10
ENDBRANCH  22  28
ENDBRANCH  14   7
BRANCH  13   6
ATOM      3  O   UNL     1      -0.905   2.575  25.242  0.00  0.00    -0.270 OA
ATOM      6  N   UNL     1      -2.058   3.759  26.867  0.00  0.00    -0.304 N 
ATOM     17  C   UNL     1      -0.972   3.054  26.371  0.00  0.00    +0.245 C 
ATOM     37  H   UNL     1      -2.090   4.026  27.846  0.00  0.00    +0.149 HD
BRANCH  17  19
ATOM      4  O   UNL     1       0.933   1.988  30.762  0.00  0.00    -0.453 OA
ATOM      5  O   UNL     1       3.189   2.317  29.982  0.00  0.00    -0.453 OA
ATOM     19  C   UNL     1       0.165   2.865  27.309  0.00  0.00    +0.040 A 
ATOM     20  C   UNL     1      -0.107   2.502  28.614  0.00  0.00    +0.062 A 
ATOM     21  C   UNL     1       1.457   3.061  26.834  0.00  0.00    +0.017 A 
ATOM     25  C   UNL     1       0.981   2.339  29.447  0.00  0.00    +0.167 A 
ATOM     26  C   UNL     1       2.540   2.889  27.699  0.00  0.00    +0.050 A 
ATOM     27  C   UNL     1       2.268   2.527  29.003  0.00  0.00    +0.166 A 
ATOM     29  C   UNL     1       2.336   1.975  31.093  0.00  0.00    +0.466 C 
ENDBRANCH  17  19
ENDBRANCH  13   6
TORSDOF 5
ENDMDL
