MODEL 1
REMARK VINA RESULT:      -3.0      0.000      0.000
REMARK  Name = 45783789
REMARK  6 active torsions:
REMARK  status: ('A' for Active; 'I' for Inactive)
REMARK    1  A    between atoms: N_3  and  C_12
REMARK    2  A    between atoms: N_7  and  C_27
REMARK    3  A    between atoms: N_7  and  C_28
REMARK    4  A    between atoms: C_8  and  C_13
REMARK    5  A    between atoms: C_12  and  C_14
REMARK    6  A    between atoms: C_17  and  C_19
REMARK                            x       y       z     vdW  Elec       q    Type
REMARK                         _______ _______ _______ _____ _____    ______ ____
ROOT
ATOM      3  N   UNL     1      -5.223   2.036  25.265  0.00  0.00    -0.284 NA
ATOM      8  C   UNL     1      -4.410   2.833  24.326  0.00  0.00    +0.146 C 
ATOM      9  C   UNL     1      -4.775   4.296  24.636  0.00  0.00    +0.030 C 
ATOM     10  C   UNL     1      -5.843   4.219  25.718  0.00  0.00    +0.017 C 
ATOM     11  C   UNL     1      -6.420   2.828  25.550  0.00  0.00    +0.085 C 
ENDROOT
BRANCH   8  13
ATOM      1  O   UNL     1      -2.324   3.033  25.584  0.00  0.00    -0.336 OA
ATOM      4  N   UNL     1      -2.122   1.924  23.649  0.00  0.00    -0.190 NA
ATOM      5  N   UNL     1      -0.977   2.662  25.487  0.00  0.00    -0.056 NA
ATOM     13  C   UNL     1      -2.926   2.559  24.463  0.00  0.00    +0.245 A 
ATOM     17  C   UNL     1      -0.937   2.013  24.319  0.00  0.00    +0.204 A 
BRANCH  17  19
ATOM      6  N   UNL     1       2.659   1.608  23.461  0.00  0.00    -0.240 NA
ATOM     19  C   UNL     1       0.271   1.441  23.796  0.00  0.00    +0.041 A 
ATOM     24  C   UNL     1       0.256   0.217  23.136  0.00  0.00    +0.016 A 
ATOM     25  C   UNL     1       1.487   2.091  23.930  0.00  0.00    +0.124 A 
ATOM     26  C   UNL     1       1.442  -0.313  22.639  0.00  0.00    +0.044 A 
ATOM     27  C   UNL     1       2.606   0.416  22.826  0.00  0.00    +0.118 A 
BRANCH  27   7
ATOM      7  N   UNL     1       3.806  -0.138  22.315  0.00  0.00    -0.332 N 
ATOM     28  C   UNL     1       5.074   0.068  22.936  0.00  0.00    +0.127 C 
ATOM     29  H   UNL     1       3.783  -0.496  21.366  0.00  0.00    +0.147 HD
ENDBRANCH  27   7
ENDBRANCH  17  19
ENDBRANCH   8  13
BRANCH   3  12
ATOM     12  C   UNL     1      -5.551   0.709  24.758  0.00  0.00    +0.159 C 
BRANCH  12  14
ATOM      2  O   UNL     1      -3.416   0.030  25.706  0.00  0.00    -0.458 OA
ATOM     14  C   UNL     1      -4.351  -0.199  24.747  0.00  0.00    +0.120 A 
ATOM     15  C   UNL     1      -3.978  -1.253  23.945  0.00  0.00    +0.054 A 
ATOM     16  C   UNL     1      -2.728  -1.710  24.439  0.00  0.00    +0.020 A 
ATOM     18  C   UNL     1      -2.426  -0.889  25.521  0.00  0.00    +0.135 A 
ATOM     20  C   UNL     1      -1.818  -2.723  24.092  0.00  0.00    +0.011 A 
ATOM     21  C   UNL     1      -1.272  -1.006  26.292  0.00  0.00    +0.047 A 
ATOM     22  C   UNL     1      -0.648  -2.866  24.849  0.00  0.00    +0.001 A 
ATOM     23  C   UNL     1      -0.381  -2.021  25.930  0.00  0.00    +0.004 A 
ENDBRANCH  12  14
ENDBRANCH   3  12
TORSDOF 5
ENDMDL
MODEL 2
REMARK VINA RESULT:      -2.2      1.330      1.766
REMARK  Name = 45783789
REMARK  6 active torsions:
REMARK  status: ('A' for Active; 'I' for Inactive)
REMARK    1  A    between atoms: N_3  and  C_12
REMARK    2  A    between atoms: N_7  and  C_27
REMARK    3  A    between atoms: N_7  and  C_28
REMARK    4  A    between atoms: C_8  and  C_13
REMARK    5  A    between atoms: C_12  and  C_14
REMARK    6  A    between atoms: C_17  and  C_19
REMARK                            x       y       z     vdW  Elec       q    Type
REMARK                         _______ _______ _______ _____ _____    ______ ____
ROOT
ATOM      3  N   UNL     1      -3.890   3.090  25.736  0.00  0.00    -0.284 NA
ATOM      8  C   UNL     1      -3.353   3.619  24.467  0.00  0.00    +0.146 C 
ATOM      9  C   UNL     1      -2.759   4.991  24.836  0.00  0.00    +0.030 C 
ATOM     10  C   UNL     1      -3.065   5.172  26.316  0.00  0.00    +0.017 C 
ATOM     11  C   UNL     1      -4.245   4.251  26.552  0.00  0.00    +0.085 C 
ENDROOT
BRANCH   8  13
ATOM      1  O   UNL     1      -2.762   1.958  22.774  0.00  0.00    -0.336 OA
ATOM      4  N   UNL     1      -1.084   2.489  24.159  0.00  0.00    -0.190 NA
ATOM      5  N   UNL     1      -1.663   1.191  22.366  0.00  0.00    -0.056 NA
ATOM     13  C   UNL     1      -2.335   2.693  23.834  0.00  0.00    +0.245 A 
ATOM     17  C   UNL     1      -0.713   1.560  23.232  0.00  0.00    +0.204 A 
BRANCH  17  19
ATOM      6  N   UNL     1       2.997   1.375  23.410  0.00  0.00    -0.240 NA
ATOM     19  C   UNL     1       0.616   1.020  23.194  0.00  0.00    +0.041 A 
ATOM     24  C   UNL     1       0.834  -0.326  22.918  0.00  0.00    +0.016 A 
ATOM     25  C   UNL     1       1.721   1.821  23.430  0.00  0.00    +0.124 A 
ATOM     26  C   UNL     1       2.133  -0.822  22.888  0.00  0.00    +0.044 A 
ATOM     27  C   UNL     1       3.170   0.062  23.138  0.00  0.00    +0.118 A 
BRANCH  27   7
ATOM      7  N   UNL     1       4.488  -0.458  23.106  0.00  0.00    -0.332 N 
ATOM     28  C   UNL     1       5.552   0.091  23.881  0.00  0.00    +0.127 C 
ATOM     29  H   UNL     1       4.717  -1.088  22.345  0.00  0.00    +0.147 HD
ENDBRANCH  27   7
ENDBRANCH  17  19
ENDBRANCH   8  13
BRANCH   3  12
ATOM     12  C   UNL     1      -5.018   2.185  25.549  0.00  0.00    +0.159 C 
BRANCH  12  14
ATOM      2  O   UNL     1      -3.332   0.432  25.530  0.00  0.00    -0.458 OA
ATOM     14  C   UNL     1      -4.572   0.812  25.123  0.00  0.00    +0.120 A 
ATOM     15  C   UNL     1      -5.167  -0.181  24.380  0.00  0.00    +0.054 A 
ATOM     16  C   UNL     1      -4.236  -1.251  24.323  0.00  0.00    +0.020 A 
ATOM     18  C   UNL     1      -3.126  -0.826  25.044  0.00  0.00    +0.135 A 
ATOM     20  C   UNL     1      -4.209  -2.530  23.741  0.00  0.00    +0.011 A 
ATOM     21  C   UNL     1      -1.976  -1.590  25.232  0.00  0.00    +0.047 A 
ATOM     22  C   UNL     1      -3.066  -3.323  23.912  0.00  0.00    +0.001 A 
ATOM     23  C   UNL     1      -1.970  -2.859  24.645  0.00  0.00    +0.004 A 
ENDBRANCH  12  14
ENDBRANCH   3  12
TORSDOF 5
ENDMDL
MODEL 3
REMARK VINA RESULT:      -0.1      2.002      4.627
REMARK  Name = 45783789
REMARK  6 active torsions:
REMARK  status: ('A' for Active; 'I' for Inactive)
REMARK    1  A    between atoms: N_3  and  C_12
REMARK    2  A    between atoms: N_7  and  C_27
REMARK    3  A    between atoms: N_7  and  C_28
REMARK    4  A    between atoms: C_8  and  C_13
REMARK    5  A    between atoms: C_12  and  C_14
REMARK    6  A    between atoms: C_17  and  C_19
REMARK                            x       y       z     vdW  Elec       q    Type
REMARK                         _______ _______ _______ _____ _____    ______ ____
ROOT
ATOM      3  N   UNL     1      -3.437  -1.010  24.587  0.00  0.00    -0.284 NA
ATOM      8  C   UNL     1      -2.199  -1.811  24.644  0.00  0.00    +0.146 C 
ATOM      9  C   UNL     1      -2.516  -3.080  23.832  0.00  0.00    +0.030 C 
ATOM     10  C   UNL     1      -3.972  -2.931  23.413  0.00  0.00    +0.017 C 
ATOM     11  C   UNL     1      -4.538  -1.961  24.430  0.00  0.00    +0.085 C 
ENDROOT
BRANCH   8  13
ATOM      1  O   UNL     1      -1.252   0.048  23.369  0.00  0.00    -0.336 OA
ATOM      4  N   UNL     1       0.278  -1.326  24.256  0.00  0.00    -0.190 NA
ATOM      5  N   UNL     1      -0.005   0.561  22.994  0.00  0.00    -0.056 NA
ATOM     13  C   UNL     1      -0.996  -1.062  24.110  0.00  0.00    +0.245 A 
ATOM     17  C   UNL     1       0.847  -0.304  23.554  0.00  0.00    +0.204 A 
BRANCH  17  19
ATOM      6  N   UNL     1       4.467  -1.135  23.739  0.00  0.00    -0.240 NA
ATOM     19  C   UNL     1       2.270  -0.173  23.432  0.00  0.00    +0.041 A 
ATOM     24  C   UNL     1       2.841   0.984  22.913  0.00  0.00    +0.016 A 
ATOM     25  C   UNL     1       3.119  -1.194  23.827  0.00  0.00    +0.124 A 
ATOM     26  C   UNL     1       4.224   1.083  22.806  0.00  0.00    +0.044 A 
ATOM     27  C   UNL     1       4.985   0.005  23.230  0.00  0.00    +0.118 A 
BRANCH  27   7
ATOM      7  N   UNL     1       6.393   0.120  23.113  0.00  0.00    -0.332 N 
ATOM     28  C   UNL     1       7.222  -0.962  22.690  0.00  0.00    +0.127 C 
ATOM     29  H   UNL     1       6.830   0.921  23.558  0.00  0.00    +0.147 HD
ENDBRANCH  27   7
ENDBRANCH  17  19
ENDBRANCH   8  13
BRANCH   3  12
ATOM     12  C   UNL     1      -3.618  -0.148  25.748  0.00  0.00    +0.159 C 
BRANCH  12  14
ATOM      2  O   UNL     1      -1.943   1.611  25.622  0.00  0.00    -0.458 OA
ATOM     14  C   UNL     1      -3.250   1.281  25.450  0.00  0.00    +0.120 A 
ATOM     15  C   UNL     1      -3.976   2.369  25.025  0.00  0.00    +0.054 A 
ATOM     16  C   UNL     1      -3.059   3.448  24.925  0.00  0.00    +0.020 A 
ATOM     18  C   UNL     1      -1.824   2.931  25.302  0.00  0.00    +0.135 A 
ATOM     20  C   UNL     1      -3.135   4.803  24.560  0.00  0.00    +0.011 A 
ATOM     21  C   UNL     1      -0.645   3.672  25.341  0.00  0.00    +0.047 A 
ATOM     22  C   UNL     1      -1.967   5.576  24.589  0.00  0.00    +0.001 A 
ATOM     23  C   UNL     1      -0.744   5.018  24.974  0.00  0.00    +0.004 A 
ENDBRANCH  12  14
ENDBRANCH   3  12
TORSDOF 5
ENDMDL
MODEL 4
REMARK VINA RESULT:       0.3      1.887      4.275
REMARK  Name = 45783789
REMARK  6 active torsions:
REMARK  status: ('A' for Active; 'I' for Inactive)
REMARK    1  A    between atoms: N_3  and  C_12
REMARK    2  A    between atoms: N_7  and  C_27
REMARK    3  A    between atoms: N_7  and  C_28
REMARK    4  A    between atoms: C_8  and  C_13
REMARK    5  A    between atoms: C_12  and  C_14
REMARK    6  A    between atoms: C_17  and  C_19
REMARK                            x       y       z     vdW  Elec       q    Type
REMARK                         _______ _______ _______ _____ _____    ______ ____
ROOT
ATOM      3  N   UNL     1      -4.221  -1.202  23.899  0.00  0.00    -0.284 NA
ATOM      8  C   UNL     1      -3.351  -1.623  25.015  0.00  0.00    +0.146 C 
ATOM      9  C   UNL     1      -3.250  -3.153  24.876  0.00  0.00    +0.030 C 
ATOM     10  C   UNL     1      -4.142  -3.506  23.695  0.00  0.00    +0.017 C 
ATOM     11  C   UNL     1      -5.101  -2.335  23.610  0.00  0.00    +0.085 C 
ENDROOT
BRANCH   8  13
ATOM      1  O   UNL     1      -1.764  -0.020  25.956  0.00  0.00    -0.336 OA
ATOM      4  N   UNL     1      -1.002  -1.110  24.155  0.00  0.00    -0.190 NA
ATOM      5  N   UNL     1      -0.470   0.464  25.728  0.00  0.00    -0.056 NA
ATOM     13  C   UNL     1      -1.998  -0.942  24.987  0.00  0.00    +0.245 A 
ATOM     17  C   UNL     1      -0.087  -0.227  24.649  0.00  0.00    +0.204 A 
BRANCH  17  19
ATOM      6  N   UNL     1       3.295  -1.036  23.331  0.00  0.00    -0.240 NA
ATOM     19  C   UNL     1       1.202  -0.057  24.042  0.00  0.00    +0.041 A 
ATOM     24  C   UNL     1       1.621   1.188  23.587  0.00  0.00    +0.016 A 
ATOM     25  C   UNL     1       2.069  -1.128  23.893  0.00  0.00    +0.124 A 
ATOM     26  C   UNL     1       2.876   1.322  23.003  0.00  0.00    +0.044 A 
ATOM     27  C   UNL     1       3.668   0.190  22.900  0.00  0.00    +0.118 A 
BRANCH  27   7
ATOM      7  N   UNL     1       4.943   0.342  22.302  0.00  0.00    -0.332 N 
ATOM     28  C   UNL     1       6.152  -0.034  22.959  0.00  0.00    +0.127 C 
ATOM     29  H   UNL     1       5.001   0.940  21.484  0.00  0.00    +0.147 HD
ENDBRANCH  27   7
ENDBRANCH  17  19
ENDBRANCH   8  13
BRANCH   3  12
ATOM     12  C   UNL     1      -4.970   0.016  24.181  0.00  0.00    +0.159 C 
BRANCH  12  14
ATOM      2  O   UNL     1      -4.261   2.018  25.368  0.00  0.00    -0.458 OA
ATOM     14  C   UNL     1      -4.068   1.217  24.287  0.00  0.00    +0.120 A 
ATOM     15  C   UNL     1      -3.052   1.702  23.497  0.00  0.00    +0.054 A 
ATOM     16  C   UNL     1      -2.580   2.882  24.129  0.00  0.00    +0.020 A 
ATOM     18  C   UNL     1      -3.355   3.033  25.275  0.00  0.00    +0.135 A 
ATOM     20  C   UNL     1      -1.587   3.839  23.861  0.00  0.00    +0.011 A 
ATOM     21  C   UNL     1      -3.211   4.078  26.184  0.00  0.00    +0.047 A 
ATOM     22  C   UNL     1      -1.418   4.903  24.756  0.00  0.00    +0.001 A 
ATOM     23  C   UNL     1      -2.217   5.019  25.897  0.00  0.00    +0.004 A 
ENDBRANCH  12  14
ENDBRANCH   3  12
TORSDOF 5
ENDMDL
