MODEL 1
REMARK VINA RESULT:      -3.2      0.000      0.000
REMARK  Name = 71693196
REMARK  15 active torsions:
REMARK  status: ('A' for Active; 'I' for Inactive)
REMARK    1  A    between atoms: O_2  and  C_25
REMARK    2  A    between atoms: O_2  and  C_30
REMARK    3  A    between atoms: O_3  and  C_28
REMARK    4  A    between atoms: O_3  and  C_31
REMARK    5  A    between atoms: O_4  and  C_32
REMARK    6  A    between atoms: N_6  and  C_16
REMARK    7  A    between atoms: C_9  and  C_13
REMARK    8  A    between atoms: C_10  and  C_16
REMARK    9  A    between atoms: C_12  and  C_17
REMARK   10  A    between atoms: C_13  and  C_18
REMARK   11  A    between atoms: C_13  and  C_19
REMARK   12  A    between atoms: C_14  and  C_20
REMARK   13  A    between atoms: C_17  and  C_21
REMARK   14  A    between atoms: C_22  and  C_25
REMARK   15  A    between atoms: C_30  and  C_32
REMARK                            x       y       z     vdW  Elec       q    Type
REMARK                         _______ _______ _______ _____ _____    ______ ____
ROOT
ATOM      9  C   UNL     1      -2.568   2.461  23.749  0.00  0.00    +0.000 C 
ATOM     10  C   UNL     1      -1.429   3.052  24.617  0.00  0.00    +0.032 C 
ATOM     11  C   UNL     1      -3.736   3.454  23.648  0.00  0.00    +0.012 C 
ATOM     12  C   UNL     1      -4.313   3.819  25.028  0.00  0.00    +0.022 C 
ATOM     14  C   UNL     1      -3.221   4.156  26.024  0.00  0.00    -0.073 C 
ATOM     15  C   UNL     1      -1.936   3.818  25.817  0.00  0.00    -0.022 C 
ATOM     20  C   UNL     1      -3.634   4.933  27.243  0.00  0.00    +0.039 C 
ENDROOT
BRANCH   9  13
ATOM     13  C   UNL     1      -2.079   2.091  22.345  0.00  0.00    -0.013 C 
ATOM     18  C   UNL     1      -2.907   2.810  21.285  0.00  0.00    +0.007 C 
ATOM     19  C   UNL     1      -2.137   0.580  22.144  0.00  0.00    +0.007 C 
ENDBRANCH   9  13
BRANCH  10  16
ATOM     16  C   UNL     1      -0.462   1.958  25.081  0.00  0.00    +0.112 C 
BRANCH  16   6
ATOM      1  O   UNL     1       0.703  -0.140  23.467  0.00  0.00    -0.273 OA
ATOM      6  N   UNL     1       0.761   2.015  24.344  0.00  0.00    -0.313 N 
ATOM     22  C   UNL     1       1.252   0.951  23.587  0.00  0.00    +0.239 C 
ATOM     33  H   UNL     1       1.270   2.893  24.327  0.00  0.00    +0.149 HD
BRANCH  22  25
ATOM     25  C   UNL     1       2.564   1.287  22.911  0.00  0.00    +0.256 C 
BRANCH  25   2
ATOM      2  O   UNL     1       3.239   0.110  22.521  0.00  0.00    -0.359 OA
BRANCH   2  30
ATOM     30  C   UNL     1       4.654   0.258  22.602  0.00  0.00    +0.280 C 
BRANCH  30  32
ATOM      5  O   UNL     1       5.546   0.686  24.822  0.00  0.00    -0.248 OA
ATOM     32  C   UNL     1       5.124  -0.099  23.985  0.00  0.00    +0.331 C 
BRANCH  32   4
ATOM      4  O   UNL     1       5.016  -1.436  24.186  0.00  0.00    -0.479 OA
ATOM     35  H   UNL     1       5.627  -1.944  23.611  0.00  0.00    +0.295 HD
ENDBRANCH  32   4
ENDBRANCH  30  32
ENDBRANCH   2  30
ENDBRANCH  25   2
ENDBRANCH  22  25
ENDBRANCH  16   6
ENDBRANCH  10  16
BRANCH  12  17
ATOM     17  C   UNL     1      -5.215   2.700  25.563  0.00  0.00    +0.082 C 
BRANCH  17  21
ATOM      7  N   UNL     1      -3.440   0.948  25.778  0.00  0.00    -0.342 N 
ATOM      8  N   UNL     1      -5.184   0.412  24.507  0.00  0.00    -0.232 NA
ATOM     21  C   UNL     1      -4.643   1.343  25.260  0.00  0.00    +0.109 A 
ATOM     23  C   UNL     1      -3.190  -0.323  25.328  0.00  0.00    +0.070 A 
ATOM     24  C   UNL     1      -4.292  -0.635  24.537  0.00  0.00    +0.089 A 
ATOM     26  C   UNL     1      -2.125  -1.200  25.538  0.00  0.00    +0.073 A 
ATOM     27  C   UNL     1      -4.352  -1.891  23.911  0.00  0.00    +0.033 A 
ATOM     28  C   UNL     1      -2.202  -2.446  24.908  0.00  0.00    +0.122 A 
ATOM     29  C   UNL     1      -3.295  -2.788  24.108  0.00  0.00    +0.048 A 
ATOM     34  H   UNL     1      -2.843   1.492  26.385  0.00  0.00    +0.167 HD
BRANCH  28   3
ATOM      3  O   UNL     1      -1.189  -3.344  25.078  0.00  0.00    -0.495 OA
ATOM     31  C   UNL     1       0.082  -2.820  25.455  0.00  0.00    +0.277 C 
ENDBRANCH  28   3
ENDBRANCH  17  21
ENDBRANCH  12  17
TORSDOF 11
ENDMDL
MODEL 2
REMARK VINA RESULT:      -1.9      1.707      5.229
REMARK  Name = 71693196
REMARK  15 active torsions:
REMARK  status: ('A' for Active; 'I' for Inactive)
REMARK    1  A    between atoms: O_2  and  C_25
REMARK    2  A    between atoms: O_2  and  C_30
REMARK    3  A    between atoms: O_3  and  C_28
REMARK    4  A    between atoms: O_3  and  C_31
REMARK    5  A    between atoms: O_4  and  C_32
REMARK    6  A    between atoms: N_6  and  C_16
REMARK    7  A    between atoms: C_9  and  C_13
REMARK    8  A    between atoms: C_10  and  C_16
REMARK    9  A    between atoms: C_12  and  C_17
REMARK   10  A    between atoms: C_13  and  C_18
REMARK   11  A    between atoms: C_13  and  C_19
REMARK   12  A    between atoms: C_14  and  C_20
REMARK   13  A    between atoms: C_17  and  C_21
REMARK   14  A    between atoms: C_22  and  C_25
REMARK   15  A    between atoms: C_30  and  C_32
REMARK                            x       y       z     vdW  Elec       q    Type
REMARK                         _______ _______ _______ _____ _____    ______ ____
ROOT
ATOM      9  C   UNL     1      -4.146   3.067  25.319  0.00  0.00    +0.000 C 
ATOM     10  C   UNL     1      -3.862   3.607  23.895  0.00  0.00    +0.032 C 
ATOM     11  C   UNL     1      -3.507   3.980  26.377  0.00  0.00    +0.012 C 
ATOM     12  C   UNL     1      -1.983   4.103  26.197  0.00  0.00    +0.022 C 
ATOM     14  C   UNL     1      -1.605   4.371  24.754  0.00  0.00    -0.073 C 
ATOM     15  C   UNL     1      -2.462   4.157  23.740  0.00  0.00    -0.022 C 
ATOM     20  C   UNL     1      -0.234   4.935  24.507  0.00  0.00    +0.039 C 
ENDROOT
BRANCH   9  13
ATOM     13  C   UNL     1      -5.649   2.935  25.587  0.00  0.00    -0.013 C 
ATOM     18  C   UNL     1      -6.280   4.312  25.771  0.00  0.00    +0.007 C 
ATOM     19  C   UNL     1      -5.896   2.059  26.811  0.00  0.00    +0.007 C 
ENDBRANCH   9  13
BRANCH  10  16
ATOM     16  C   UNL     1      -4.107   2.528  22.835  0.00  0.00    +0.112 C 
BRANCH  16   6
ATOM      1  O   UNL     1      -5.451   0.295  24.088  0.00  0.00    -0.273 OA
ATOM      6  N   UNL     1      -3.526   1.284  23.233  0.00  0.00    -0.313 N 
ATOM     22  C   UNL     1      -4.250   0.255  23.834  0.00  0.00    +0.239 C 
ATOM     33  H   UNL     1      -2.547   1.122  23.017  0.00  0.00    +0.149 HD
BRANCH  22  25
ATOM     25  C   UNL     1      -3.385  -0.946  24.148  0.00  0.00    +0.256 C 
BRANCH  25   2
ATOM      2  O   UNL     1      -3.533  -1.326  25.500  0.00  0.00    -0.359 OA
BRANCH   2  30
ATOM     30  C   UNL     1      -2.288  -1.315  26.194  0.00  0.00    +0.280 C 
BRANCH  30  32
ATOM      5  O   UNL     1      -1.496  -2.917  24.547  0.00  0.00    -0.248 OA
ATOM     32  C   UNL     1      -1.261  -2.081  25.408  0.00  0.00    +0.331 C 
BRANCH  32   4
ATOM      4  O   UNL     1      -0.011  -1.715  25.788  0.00  0.00    -0.479 OA
ATOM     35  H   UNL     1       0.420  -2.403  26.338  0.00  0.00    +0.295 HD
ENDBRANCH  32   4
ENDBRANCH  30  32
ENDBRANCH   2  30
ENDBRANCH  25   2
ENDBRANCH  22  25
ENDBRANCH  16   6
ENDBRANCH  10  16
BRANCH  12  17
ATOM     17  C   UNL     1      -1.262   2.858  26.729  0.00  0.00    +0.082 C 
BRANCH  17  21
ATOM      7  N   UNL     1       0.799   2.288  25.429  0.00  0.00    -0.342 N 
ATOM      8  N   UNL     1      -1.074   1.291  24.766  0.00  0.00    -0.232 NA
ATOM     21  C   UNL     1      -0.544   2.128  25.629  0.00  0.00    +0.109 A 
ATOM     23  C   UNL     1       1.159   1.501  24.365  0.00  0.00    +0.070 A 
ATOM     24  C   UNL     1      -0.027   0.889  23.969  0.00  0.00    +0.089 A 
ATOM     26  C   UNL     1       2.384   1.280  23.734  0.00  0.00    +0.073 A 
ATOM     27  C   UNL     1      -0.009   0.001  22.881  0.00  0.00    +0.033 A 
ATOM     28  C   UNL     1       2.383   0.392  22.654  0.00  0.00    +0.122 A 
ATOM     29  C   UNL     1       1.210  -0.237  22.232  0.00  0.00    +0.048 A 
ATOM     34  H   UNL     1       1.417   2.879  25.968  0.00  0.00    +0.167 HD
BRANCH  28   3
ATOM      3  O   UNL     1       3.553   0.137  21.999  0.00  0.00    -0.495 OA
ATOM     31  C   UNL     1       4.756   0.260  22.754  0.00  0.00    +0.277 C 
ENDBRANCH  28   3
ENDBRANCH  17  21
ENDBRANCH  12  17
TORSDOF 11
ENDMDL
MODEL 3
REMARK VINA RESULT:      -1.8      1.807      4.981
REMARK  Name = 71693196
REMARK  15 active torsions:
REMARK  status: ('A' for Active; 'I' for Inactive)
REMARK    1  A    between atoms: O_2  and  C_25
REMARK    2  A    between atoms: O_2  and  C_30
REMARK    3  A    between atoms: O_3  and  C_28
REMARK    4  A    between atoms: O_3  and  C_31
REMARK    5  A    between atoms: O_4  and  C_32
REMARK    6  A    between atoms: N_6  and  C_16
REMARK    7  A    between atoms: C_9  and  C_13
REMARK    8  A    between atoms: C_10  and  C_16
REMARK    9  A    between atoms: C_12  and  C_17
REMARK   10  A    between atoms: C_13  and  C_18
REMARK   11  A    between atoms: C_13  and  C_19
REMARK   12  A    between atoms: C_14  and  C_20
REMARK   13  A    between atoms: C_17  and  C_21
REMARK   14  A    between atoms: C_22  and  C_25
REMARK   15  A    between atoms: C_30  and  C_32
REMARK                            x       y       z     vdW  Elec       q    Type
REMARK                         _______ _______ _______ _____ _____    ______ ____
ROOT
ATOM      9  C   UNL     1      -1.752  -0.861  25.092  0.00  0.00    +0.000 C 
ATOM     10  C   UNL     1      -1.214  -2.176  24.473  0.00  0.00    +0.032 C 
ATOM     11  C   UNL     1      -3.076  -1.117  25.829  0.00  0.00    +0.012 C 
ATOM     12  C   UNL     1      -4.158  -1.696  24.899  0.00  0.00    +0.022 C 
ATOM     14  C   UNL     1      -3.623  -2.834  24.052  0.00  0.00    -0.073 C 
ATOM     15  C   UNL     1      -2.305  -3.041  23.884  0.00  0.00    -0.022 C 
ATOM     20  C   UNL     1      -4.639  -3.756  23.439  0.00  0.00    +0.039 C 
ENDROOT
BRANCH   9  13
ATOM     13  C   UNL     1      -0.738  -0.230  26.052  0.00  0.00    -0.013 C 
ATOM     18  C   UNL     1      -0.981  -0.715  27.478  0.00  0.00    +0.007 C 
ATOM     19  C   UNL     1      -0.813   1.292  25.978  0.00  0.00    +0.007 C 
ENDBRANCH   9  13
BRANCH  10  16
ATOM     16  C   UNL     1      -0.156  -1.890  23.403  0.00  0.00    +0.112 C 
BRANCH  16   6
ATOM      1  O   UNL     1       1.421  -0.272  21.596  0.00  0.00    -0.273 OA
ATOM      6  N   UNL     1       0.587  -0.712  23.724  0.00  0.00    -0.313 N 
ATOM     22  C   UNL     1       1.323   0.011  22.787  0.00  0.00    +0.239 C 
ATOM     33  H   UNL     1       0.529  -0.354  24.673  0.00  0.00    +0.149 HD
BRANCH  22  25
ATOM     25  C   UNL     1       2.008   1.214  23.401  0.00  0.00    +0.256 C 
BRANCH  25   2
ATOM      2  O   UNL     1       3.321   1.350  22.900  0.00  0.00    -0.359 OA
BRANCH   2  30
ATOM     30  C   UNL     1       3.959   0.087  22.734  0.00  0.00    +0.280 C 
BRANCH  30  32
ATOM      5  O   UNL     1       5.620   0.712  24.394  0.00  0.00    -0.248 OA
ATOM     32  C   UNL     1       4.931  -0.143  23.858  0.00  0.00    +0.331 C 
BRANCH  32   4
ATOM      4  O   UNL     1       4.942  -1.454  24.207  0.00  0.00    -0.479 OA
ATOM     35  H   UNL     1       4.326  -1.642  24.946  0.00  0.00    +0.295 HD
ENDBRANCH  32   4
ENDBRANCH  30  32
ENDBRANCH   2  30
ENDBRANCH  25   2
ENDBRANCH  22  25
ENDBRANCH  16   6
ENDBRANCH  10  16
BRANCH  12  17
ATOM     17  C   UNL     1      -4.773  -0.601  24.019  0.00  0.00    +0.082 C 
BRANCH  17  21
ATOM      7  N   UNL     1      -3.294   1.413  23.890  0.00  0.00    -0.342 N 
ATOM      8  N   UNL     1      -4.900   1.486  25.425  0.00  0.00    -0.232 NA
ATOM     21  C   UNL     1      -4.350   0.768  24.471  0.00  0.00    +0.109 A 
ATOM     23  C   UNL     1      -3.154   2.628  24.510  0.00  0.00    +0.070 A 
ATOM     24  C   UNL     1      -4.168   2.650  25.463  0.00  0.00    +0.089 A 
ATOM     26  C   UNL     1      -2.254   3.678  24.324  0.00  0.00    +0.073 A 
ATOM     27  C   UNL     1      -4.307   3.778  26.289  0.00  0.00    +0.033 A 
ATOM     28  C   UNL     1      -2.408   4.793  25.154  0.00  0.00    +0.122 A 
ATOM     29  C   UNL     1      -3.415   4.844  26.121  0.00  0.00    +0.048 A 
ATOM     34  H   UNL     1      -2.719   1.060  23.137  0.00  0.00    +0.167 HD
BRANCH  28   3
ATOM      3  O   UNL     1      -1.556   5.850  25.018  0.00  0.00    -0.495 OA
ATOM     31  C   UNL     1      -0.239   5.562  24.553  0.00  0.00    +0.277 C 
ENDBRANCH  28   3
ENDBRANCH  17  21
ENDBRANCH  12  17
TORSDOF 11
ENDMDL
MODEL 4
REMARK VINA RESULT:      -1.8      2.678      4.431
REMARK  Name = 71693196
REMARK  15 active torsions:
REMARK  status: ('A' for Active; 'I' for Inactive)
REMARK    1  A    between atoms: O_2  and  C_25
REMARK    2  A    between atoms: O_2  and  C_30
REMARK    3  A    between atoms: O_3  and  C_28
REMARK    4  A    between atoms: O_3  and  C_31
REMARK    5  A    between atoms: O_4  and  C_32
REMARK    6  A    between atoms: N_6  and  C_16
REMARK    7  A    between atoms: C_9  and  C_13
REMARK    8  A    between atoms: C_10  and  C_16
REMARK    9  A    between atoms: C_12  and  C_17
REMARK   10  A    between atoms: C_13  and  C_18
REMARK   11  A    between atoms: C_13  and  C_19
REMARK   12  A    between atoms: C_14  and  C_20
REMARK   13  A    between atoms: C_17  and  C_21
REMARK   14  A    between atoms: C_22  and  C_25
REMARK   15  A    between atoms: C_30  and  C_32
REMARK                            x       y       z     vdW  Elec       q    Type
REMARK                         _______ _______ _______ _____ _____    ______ ____
ROOT
ATOM      9  C   UNL     1      -3.523   2.358  23.981  0.00  0.00    +0.000 C 
ATOM     10  C   UNL     1      -4.340   3.459  24.703  0.00  0.00    +0.032 C 
ATOM     11  C   UNL     1      -4.395   1.117  23.736  0.00  0.00    +0.012 C 
ATOM     12  C   UNL     1      -4.954   0.530  25.045  0.00  0.00    +0.022 C 
ATOM     14  C   UNL     1      -5.541   1.604  25.939  0.00  0.00    -0.073 C 
ATOM     15  C   UNL     1      -5.267   2.908  25.763  0.00  0.00    -0.022 C 
ATOM     20  C   UNL     1      -6.489   1.146  27.013  0.00  0.00    +0.039 C 
ENDROOT
BRANCH   9  13
ATOM     13  C   UNL     1      -2.948   2.858  22.653  0.00  0.00    -0.013 C 
ATOM     18  C   UNL     1      -3.996   3.655  21.883  0.00  0.00    +0.007 C 
ATOM     19  C   UNL     1      -2.441   1.685  21.818  0.00  0.00    +0.007 C 
ENDBRANCH   9  13
BRANCH  10  16
ATOM     16  C   UNL     1      -3.419   4.512  25.329  0.00  0.00    +0.112 C 
BRANCH  16   6
ATOM      1  O   UNL     1      -0.720   5.315  24.669  0.00  0.00    -0.273 OA
ATOM      6  N   UNL     1      -2.204   3.914  25.788  0.00  0.00    -0.313 N 
ATOM     22  C   UNL     1      -0.938   4.367  25.418  0.00  0.00    +0.239 C 
ATOM     33  H   UNL     1      -2.267   3.156  26.460  0.00  0.00    +0.149 HD
BRANCH  22  25
ATOM     25  C   UNL     1       0.169   3.552  26.052  0.00  0.00    +0.256 C 
BRANCH  25   2
ATOM      2  O   UNL     1      -0.258   3.001  27.279  0.00  0.00    -0.359 OA
BRANCH   2  30
ATOM     30  C   UNL     1       0.638   1.998  27.752  0.00  0.00    +0.280 C 
BRANCH  30  32
ATOM      5  O   UNL     1       0.967   2.725  30.047  0.00  0.00    -0.248 OA
ATOM     32  C   UNL     1       1.413   2.523  28.927  0.00  0.00    +0.331 C 
BRANCH  32   4
ATOM      4  O   UNL     1       2.704   2.748  28.574  0.00  0.00    -0.479 OA
ATOM     35  H   UNL     1       2.844   3.668  28.263  0.00  0.00    +0.295 HD
ENDBRANCH  32   4
ENDBRANCH  30  32
ENDBRANCH   2  30
ENDBRANCH  25   2
ENDBRANCH  22  25
ENDBRANCH  16   6
ENDBRANCH  10  16
BRANCH  12  17
ATOM     17  C   UNL     1      -3.884  -0.278  25.790  0.00  0.00    +0.082 C 
BRANCH  17  21
ATOM      7  N   UNL     1      -1.673   0.789  25.301  0.00  0.00    -0.342 N 
ATOM      8  N   UNL     1      -2.110  -1.090  24.196  0.00  0.00    -0.232 NA
ATOM     21  C   UNL     1      -2.562  -0.225  25.076  0.00  0.00    +0.109 A 
ATOM     23  C   UNL     1      -0.573   0.562  24.514  0.00  0.00    +0.070 A 
ATOM     24  C   UNL     1      -0.870  -0.616  23.834  0.00  0.00    +0.089 A 
ATOM     26  C   UNL     1       0.619   1.267  24.342  0.00  0.00    +0.073 A 
ATOM     27  C   UNL     1       0.066  -1.136  22.925  0.00  0.00    +0.033 A 
ATOM     28  C   UNL     1       1.540   0.733  23.435  0.00  0.00    +0.122 A 
ATOM     29  C   UNL     1       1.271  -0.446  22.738  0.00  0.00    +0.048 A 
ATOM     34  H   UNL     1      -1.801   1.566  25.936  0.00  0.00    +0.167 HD
BRANCH  28   3
ATOM      3  O   UNL     1       2.723   1.380  23.227  0.00  0.00    -0.495 OA
ATOM     31  C   UNL     1       3.798   0.606  22.700  0.00  0.00    +0.277 C 
ENDBRANCH  28   3
ENDBRANCH  17  21
ENDBRANCH  12  17
TORSDOF 11
ENDMDL
MODEL 5
REMARK VINA RESULT:      -1.0      2.125      4.922
REMARK  Name = 71693196
REMARK  15 active torsions:
REMARK  status: ('A' for Active; 'I' for Inactive)
REMARK    1  A    between atoms: O_2  and  C_25
REMARK    2  A    between atoms: O_2  and  C_30
REMARK    3  A    between atoms: O_3  and  C_28
REMARK    4  A    between atoms: O_3  and  C_31
REMARK    5  A    between atoms: O_4  and  C_32
REMARK    6  A    between atoms: N_6  and  C_16
REMARK    7  A    between atoms: C_9  and  C_13
REMARK    8  A    between atoms: C_10  and  C_16
REMARK    9  A    between atoms: C_12  and  C_17
REMARK   10  A    between atoms: C_13  and  C_18
REMARK   11  A    between atoms: C_13  and  C_19
REMARK   12  A    between atoms: C_14  and  C_20
REMARK   13  A    between atoms: C_17  and  C_21
REMARK   14  A    between atoms: C_22  and  C_25
REMARK   15  A    between atoms: C_30  and  C_32
REMARK                            x       y       z     vdW  Elec       q    Type
REMARK                         _______ _______ _______ _____ _____    ______ ____
ROOT
ATOM      9  C   UNL     1      -1.393   0.477  25.359  0.00  0.00    +0.000 C 
ATOM     10  C   UNL     1      -0.147   0.017  24.561  0.00  0.00    +0.032 C 
ATOM     11  C   UNL     1      -1.953  -0.684  26.195  0.00  0.00    +0.012 C 
ATOM     12  C   UNL     1      -2.349  -1.891  25.325  0.00  0.00    +0.022 C 
ATOM     14  C   UNL     1      -1.269  -2.240  24.320  0.00  0.00    -0.073 C 
ATOM     15  C   UNL     1      -0.285  -1.380  24.001  0.00  0.00    -0.022 C 
ATOM     20  C   UNL     1      -1.320  -3.618  23.723  0.00  0.00    +0.039 C 
ENDROOT
BRANCH   9  13
ATOM     13  C   UNL     1      -1.077   1.667  26.270  0.00  0.00    -0.013 C 
ATOM     18  C   UNL     1      -1.713   2.941  25.724  0.00  0.00    +0.007 C 
ATOM     19  C   UNL     1       0.432   1.836  26.419  0.00  0.00    +0.007 C 
ENDBRANCH   9  13
BRANCH  10  16
ATOM     16  C   UNL     1       0.172   0.994  23.424  0.00  0.00    +0.112 C 
BRANCH  16   6
ATOM      1  O   UNL     1       1.486  -0.476  21.307  0.00  0.00    -0.273 OA
ATOM      6  N   UNL     1       1.569   0.980  23.121  0.00  0.00    -0.313 N 
ATOM     22  C   UNL     1       2.121   0.239  22.076  0.00  0.00    +0.239 C 
ATOM     33  H   UNL     1       2.183   1.584  23.660  0.00  0.00    +0.149 HD
BRANCH  22  25
ATOM     25  C   UNL     1       3.622   0.412  21.983  0.00  0.00    +0.256 C 
BRANCH  25   2
ATOM      2  O   UNL     1       4.125   1.034  23.147  0.00  0.00    -0.359 OA
BRANCH   2  30
ATOM     30  C   UNL     1       5.387   0.496  23.533  0.00  0.00    +0.280 C 
BRANCH  30  32
ATOM      5  O   UNL     1       4.257  -1.625  23.887  0.00  0.00    -0.248 OA
ATOM     32  C   UNL     1       5.200  -0.879  24.108  0.00  0.00    +0.331 C 
BRANCH  32   4
ATOM      4  O   UNL     1       6.237  -1.191  24.925  0.00  0.00    -0.479 OA
ATOM     35  H   UNL     1       6.808  -0.414  25.105  0.00  0.00    +0.295 HD
ENDBRANCH  32   4
ENDBRANCH  30  32
ENDBRANCH   2  30
ENDBRANCH  25   2
ENDBRANCH  22  25
ENDBRANCH  16   6
ENDBRANCH  10  16
BRANCH  12  17
ATOM     17  C   UNL     1      -3.692  -1.651  24.624  0.00  0.00    +0.082 C 
BRANCH  17  21
ATOM      7  N   UNL     1      -4.837   0.358  25.580  0.00  0.00    -0.342 N 
ATOM      8  N   UNL     1      -3.674   0.699  23.716  0.00  0.00    -0.232 NA
ATOM     21  C   UNL     1      -4.048  -0.191  24.608  0.00  0.00    +0.109 A 
ATOM     23  C   UNL     1      -4.982   1.692  25.296  0.00  0.00    +0.070 A 
ATOM     24  C   UNL     1      -4.247   1.880  24.129  0.00  0.00    +0.089 A 
ATOM     26  C   UNL     1      -5.672   2.719  25.941  0.00  0.00    +0.073 A 
ATOM     27  C   UNL     1      -4.187   3.161  23.556  0.00  0.00    +0.033 A 
ATOM     28  C   UNL     1      -5.601   3.988  25.357  0.00  0.00    +0.122 A 
ATOM     29  C   UNL     1      -4.873   4.208  24.186  0.00  0.00    +0.048 A 
ATOM     34  H   UNL     1      -5.240  -0.129  26.369  0.00  0.00    +0.167 HD
BRANCH  28   3
ATOM      3  O   UNL     1      -6.257   5.030  25.944  0.00  0.00    -0.495 OA
ATOM     31  C   UNL     1      -6.642   6.110  25.097  0.00  0.00    +0.277 C 
ENDBRANCH  28   3
ENDBRANCH  17  21
ENDBRANCH  12  17
TORSDOF 11
ENDMDL
MODEL 6
REMARK VINA RESULT:      -0.9      2.671      6.954
REMARK  Name = 71693196
REMARK  15 active torsions:
REMARK  status: ('A' for Active; 'I' for Inactive)
REMARK    1  A    between atoms: O_2  and  C_25
REMARK    2  A    between atoms: O_2  and  C_30
REMARK    3  A    between atoms: O_3  and  C_28
REMARK    4  A    between atoms: O_3  and  C_31
REMARK    5  A    between atoms: O_4  and  C_32
REMARK    6  A    between atoms: N_6  and  C_16
REMARK    7  A    between atoms: C_9  and  C_13
REMARK    8  A    between atoms: C_10  and  C_16
REMARK    9  A    between atoms: C_12  and  C_17
REMARK   10  A    between atoms: C_13  and  C_18
REMARK   11  A    between atoms: C_13  and  C_19
REMARK   12  A    between atoms: C_14  and  C_20
REMARK   13  A    between atoms: C_17  and  C_21
REMARK   14  A    between atoms: C_22  and  C_25
REMARK   15  A    between atoms: C_30  and  C_32
REMARK                            x       y       z     vdW  Elec       q    Type
REMARK                         _______ _______ _______ _____ _____    ______ ____
ROOT
ATOM      9  C   UNL     1      -3.324  -1.451  24.321  0.00  0.00    +0.000 C 
ATOM     10  C   UNL     1      -3.839  -0.380  25.315  0.00  0.00    +0.032 C 
ATOM     11  C   UNL     1      -1.916  -1.920  24.720  0.00  0.00    +0.012 C 
ATOM     12  C   UNL     1      -0.904  -0.760  24.754  0.00  0.00    +0.022 C 
ATOM     14  C   UNL     1      -1.451   0.444  25.494  0.00  0.00    -0.073 C 
ATOM     15  C   UNL     1      -2.764   0.590  25.748  0.00  0.00    -0.022 C 
ATOM     20  C   UNL     1      -0.448   1.454  25.976  0.00  0.00    +0.039 C 
ENDROOT
BRANCH   9  13
ATOM     13  C   UNL     1      -4.269  -2.655  24.245  0.00  0.00    -0.013 C 
ATOM     18  C   UNL     1      -3.586  -3.904  24.790  0.00  0.00    +0.007 C 
ATOM     19  C   UNL     1      -4.733  -2.875  22.808  0.00  0.00    +0.007 C 
ENDBRANCH   9  13
BRANCH  10  16
ATOM     16  C   UNL     1      -5.021   0.398  24.727  0.00  0.00    +0.112 C 
BRANCH  16   6
ATOM      1  O   UNL     1      -6.126   2.356  26.546  0.00  0.00    -0.273 OA
ATOM      6  N   UNL     1      -4.762   1.804  24.743  0.00  0.00    -0.313 N 
ATOM     22  C   UNL     1      -5.341   2.681  25.660  0.00  0.00    +0.239 C 
ATOM     33  H   UNL     1      -4.080   2.173  24.087  0.00  0.00    +0.149 HD
BRANCH  22  25
ATOM     25  C   UNL     1      -4.889   4.110  25.448  0.00  0.00    +0.256 C 
BRANCH  25   2
ATOM      2  O   UNL     1      -3.648   4.146  24.776  0.00  0.00    -0.359 OA
BRANCH   2  30
ATOM     30  C   UNL     1      -2.556   4.272  25.682  0.00  0.00    +0.280 C 
BRANCH  30  32
ATOM      5  O   UNL     1      -0.509   4.026  24.397  0.00  0.00    -0.248 OA
ATOM     32  C   UNL     1      -1.334   4.742  24.944  0.00  0.00    +0.331 C 
BRANCH  32   4
ATOM      4  O   UNL     1      -1.265   6.097  24.967  0.00  0.00    -0.479 OA
ATOM     35  H   UNL     1      -2.129   6.511  24.756  0.00  0.00    +0.295 HD
ENDBRANCH  32   4
ENDBRANCH  30  32
ENDBRANCH   2  30
ENDBRANCH  25   2
ENDBRANCH  22  25
ENDBRANCH  16   6
ENDBRANCH  10  16
BRANCH  12  17
ATOM     17  C   UNL     1      -0.456  -0.376  23.339  0.00  0.00    +0.082 C 
BRANCH  17  21
ATOM      7  N   UNL     1       1.889  -1.152  23.741  0.00  0.00    -0.342 N 
ATOM      8  N   UNL     1       1.678   0.834  22.766  0.00  0.00    -0.232 NA
ATOM     21  C   UNL     1       1.034  -0.197  23.265  0.00  0.00    +0.109 A 
ATOM     23  C   UNL     1       3.170  -0.706  23.535  0.00  0.00    +0.070 A 
ATOM     24  C   UNL     1       3.011   0.535  22.925  0.00  0.00    +0.089 A 
ATOM     26  C   UNL     1       4.415  -1.266  23.822  0.00  0.00    +0.073 A 
ATOM     27  C   UNL     1       4.152   1.276  22.574  0.00  0.00    +0.033 A 
ATOM     28  C   UNL     1       5.540  -0.515  23.465  0.00  0.00    +0.122 A 
ATOM     29  C   UNL     1       5.413   0.733  22.852  0.00  0.00    +0.048 A 
ATOM     34  H   UNL     1       1.626  -2.030  24.168  0.00  0.00    +0.167 HD
BRANCH  28   3
ATOM      3  O   UNL     1       6.784  -1.013  23.721  0.00  0.00    -0.495 OA
ATOM     31  C   UNL     1       7.880  -0.383  23.062  0.00  0.00    +0.277 C 
ENDBRANCH  28   3
ENDBRANCH  17  21
ENDBRANCH  12  17
TORSDOF 11
ENDMDL
MODEL 7
REMARK VINA RESULT:      -0.4      2.576      3.314
REMARK  Name = 71693196
REMARK  15 active torsions:
REMARK  status: ('A' for Active; 'I' for Inactive)
REMARK    1  A    between atoms: O_2  and  C_25
REMARK    2  A    between atoms: O_2  and  C_30
REMARK    3  A    between atoms: O_3  and  C_28
REMARK    4  A    between atoms: O_3  and  C_31
REMARK    5  A    between atoms: O_4  and  C_32
REMARK    6  A    between atoms: N_6  and  C_16
REMARK    7  A    between atoms: C_9  and  C_13
REMARK    8  A    between atoms: C_10  and  C_16
REMARK    9  A    between atoms: C_12  and  C_17
REMARK   10  A    between atoms: C_13  and  C_18
REMARK   11  A    between atoms: C_13  and  C_19
REMARK   12  A    between atoms: C_14  and  C_20
REMARK   13  A    between atoms: C_17  and  C_21
REMARK   14  A    between atoms: C_22  and  C_25
REMARK   15  A    between atoms: C_30  and  C_32
REMARK                            x       y       z     vdW  Elec       q    Type
REMARK                         _______ _______ _______ _____ _____    ______ ____
ROOT
ATOM      9  C   UNL     1      -2.969   2.842  23.805  0.00  0.00    +0.000 C 
ATOM     10  C   UNL     1      -2.773   4.357  24.062  0.00  0.00    +0.032 C 
ATOM     11  C   UNL     1      -4.430   2.545  23.434  0.00  0.00    +0.012 C 
ATOM     12  C   UNL     1      -5.412   2.983  24.536  0.00  0.00    +0.022 C 
ATOM     14  C   UNL     1      -5.111   4.382  25.035  0.00  0.00    -0.073 C 
ATOM     15  C   UNL     1      -3.931   4.986  24.802  0.00  0.00    -0.022 C 
ATOM     20  C   UNL     1      -6.215   5.091  25.768  0.00  0.00    +0.039 C 
ENDROOT
BRANCH   9  13
ATOM     13  C   UNL     1      -2.038   2.328  22.701  0.00  0.00    -0.013 C 
ATOM     18  C   UNL     1      -2.777   2.266  21.368  0.00  0.00    +0.007 C 
ATOM     19  C   UNL     1      -1.478   0.959  23.073  0.00  0.00    +0.007 C 
ENDBRANCH   9  13
BRANCH  10  16
ATOM     16  C   UNL     1      -1.473   4.624  24.828  0.00  0.00    +0.112 C 
BRANCH  16   6
ATOM      1  O   UNL     1       0.722   2.745  24.711  0.00  0.00    -0.273 OA
ATOM      6  N   UNL     1      -1.196   3.563  25.745  0.00  0.00    -0.313 N 
ATOM     22  C   UNL     1      -0.110   2.698  25.613  0.00  0.00    +0.239 C 
ATOM     33  H   UNL     1      -1.790   3.469  26.563  0.00  0.00    +0.149 HD
BRANCH  22  25
ATOM     25  C   UNL     1      -0.058   1.671  26.723  0.00  0.00    +0.256 C 
BRANCH  25   2
ATOM      2  O   UNL     1      -0.000   2.303  27.984  0.00  0.00    -0.359 OA
BRANCH   2  30
ATOM     30  C   UNL     1       1.343   2.537  28.400  0.00  0.00    +0.280 C 
BRANCH  30  32
ATOM      5  O   UNL     1       0.856   2.906  30.752  0.00  0.00    -0.248 OA
ATOM     32  C   UNL     1       1.465   2.304  29.880  0.00  0.00    +0.331 C 
BRANCH  32   4
ATOM      4  O   UNL     1       2.361   1.314  30.126  0.00  0.00    -0.479 OA
ATOM     35  H   UNL     1       2.219   0.903  31.005  0.00  0.00    +0.295 HD
ENDBRANCH  32   4
ENDBRANCH  30  32
ENDBRANCH   2  30
ENDBRANCH  25   2
ENDBRANCH  22  25
ENDBRANCH  16   6
ENDBRANCH  10  16
BRANCH  12  17
ATOM     17  C   UNL     1      -5.425   1.980  25.695  0.00  0.00    +0.082 C 
BRANCH  17  21
ATOM      7  N   UNL     1      -3.402   0.517  25.868  0.00  0.00    -0.342 N 
ATOM      8  N   UNL     1      -5.039  -0.240  24.568  0.00  0.00    -0.232 NA
ATOM     21  C   UNL     1      -4.650   0.739  25.355  0.00  0.00    +0.109 A 
ATOM     23  C   UNL     1      -2.957  -0.685  25.381  0.00  0.00    +0.070 A 
ATOM     24  C   UNL     1      -3.996  -1.137  24.572  0.00  0.00    +0.089 A 
ATOM     26  C   UNL     1      -1.770  -1.393  25.572  0.00  0.00    +0.073 A 
ATOM     27  C   UNL     1      -3.860  -2.367  23.907  0.00  0.00    +0.033 A 
ATOM     28  C   UNL     1      -1.652  -2.615  24.902  0.00  0.00    +0.122 A 
ATOM     29  C   UNL     1      -2.677  -3.096  24.084  0.00  0.00    +0.048 A 
ATOM     34  H   UNL     1      -2.898   1.128  26.497  0.00  0.00    +0.167 HD
BRANCH  28   3
ATOM      3  O   UNL     1      -0.513  -3.351  25.052  0.00  0.00    -0.495 OA
ATOM     31  C   UNL     1       0.666  -2.646  25.434  0.00  0.00    +0.277 C 
ENDBRANCH  28   3
ENDBRANCH  17  21
ENDBRANCH  12  17
TORSDOF 11
ENDMDL
MODEL 8
REMARK VINA RESULT:      -0.4      1.752      6.403
REMARK  Name = 71693196
REMARK  15 active torsions:
REMARK  status: ('A' for Active; 'I' for Inactive)
REMARK    1  A    between atoms: O_2  and  C_25
REMARK    2  A    between atoms: O_2  and  C_30
REMARK    3  A    between atoms: O_3  and  C_28
REMARK    4  A    between atoms: O_3  and  C_31
REMARK    5  A    between atoms: O_4  and  C_32
REMARK    6  A    between atoms: N_6  and  C_16
REMARK    7  A    between atoms: C_9  and  C_13
REMARK    8  A    between atoms: C_10  and  C_16
REMARK    9  A    between atoms: C_12  and  C_17
REMARK   10  A    between atoms: C_13  and  C_18
REMARK   11  A    between atoms: C_13  and  C_19
REMARK   12  A    between atoms: C_14  and  C_20
REMARK   13  A    between atoms: C_17  and  C_21
REMARK   14  A    between atoms: C_22  and  C_25
REMARK   15  A    between atoms: C_30  and  C_32
REMARK                            x       y       z     vdW  Elec       q    Type
REMARK                         _______ _______ _______ _____ _____    ______ ____
ROOT
ATOM      9  C   UNL     1      -2.221   3.141  24.862  0.00  0.00    +0.000 C 
ATOM     10  C   UNL     1      -3.465   3.448  23.992  0.00  0.00    +0.032 C 
ATOM     11  C   UNL     1      -0.960   3.065  23.987  0.00  0.00    +0.012 C 
ATOM     12  C   UNL     1      -1.071   1.984  22.897  0.00  0.00    +0.022 C 
ATOM     14  C   UNL     1      -2.398   2.053  22.168  0.00  0.00    -0.073 C 
ATOM     15  C   UNL     1      -3.452   2.723  22.666  0.00  0.00    -0.022 C 
ATOM     20  C   UNL     1      -2.471   1.372  20.830  0.00  0.00    +0.039 C 
ENDROOT
BRANCH   9  13
ATOM     13  C   UNL     1      -2.026   4.189  25.963  0.00  0.00    -0.013 C 
ATOM     18  C   UNL     1      -3.256   4.253  26.862  0.00  0.00    +0.007 C 
ATOM     19  C   UNL     1      -1.731   5.555  25.350  0.00  0.00    +0.007 C 
ENDBRANCH   9  13
BRANCH  10  16
ATOM     16  C   UNL     1      -4.760   3.116  24.742  0.00  0.00    +0.112 C 
BRANCH  16   6
ATOM      1  O   UNL     1      -3.501   0.673  25.644  0.00  0.00    -0.273 OA
ATOM      6  N   UNL     1      -5.177   1.777  24.466  0.00  0.00    -0.313 N 
ATOM     22  C   UNL     1      -4.509   0.650  24.944  0.00  0.00    +0.239 C 
ATOM     33  H   UNL     1      -6.036   1.642  23.941  0.00  0.00    +0.149 HD
BRANCH  22  25
ATOM     25  C   UNL     1      -5.169  -0.638  24.500  0.00  0.00    +0.256 C 
BRANCH  25   2
ATOM      2  O   UNL     1      -4.267  -1.431  23.758  0.00  0.00    -0.359 OA
BRANCH   2  30
ATOM     30  C   UNL     1      -3.766  -2.523  24.525  0.00  0.00    +0.280 C 
BRANCH  30  32
ATOM      5  O   UNL     1      -1.472  -2.956  23.851  0.00  0.00    -0.248 OA
ATOM     32  C   UNL     1      -2.268  -2.434  24.617  0.00  0.00    +0.331 C 
BRANCH  32   4
ATOM      4  O   UNL     1      -1.909  -1.682  25.688  0.00  0.00    -0.479 OA
ATOM     35  H   UNL     1      -2.516  -1.812  26.448  0.00  0.00    +0.295 HD
ENDBRANCH  32   4
ENDBRANCH  30  32
ENDBRANCH   2  30
ENDBRANCH  25   2
ENDBRANCH  22  25
ENDBRANCH  16   6
ENDBRANCH  10  16
BRANCH  12  17
ATOM     17  C   UNL     1      -0.839   0.585  23.481  0.00  0.00    +0.082 C 
BRANCH  17  21
ATOM      7  N   UNL     1       1.577   1.147  23.157  0.00  0.00    -0.342 N 
ATOM      8  N   UNL     1       1.142  -0.940  23.788  0.00  0.00    -0.232 NA
ATOM     21  C   UNL     1       0.620   0.228  23.486  0.00  0.00    +0.109 A 
ATOM     23  C   UNL     1       2.799   0.530  23.253  0.00  0.00    +0.070 A 
ATOM     24  C   UNL     1       2.501  -0.770  23.648  0.00  0.00    +0.089 A 
ATOM     26  C   UNL     1       4.100   0.986  23.034  0.00  0.00    +0.073 A 
ATOM     27  C   UNL     1       3.550  -1.685  23.841  0.00  0.00    +0.033 A 
ATOM     28  C   UNL     1       5.131   0.062  23.231  0.00  0.00    +0.122 A 
ATOM     29  C   UNL     1       4.864  -1.250  23.627  0.00  0.00    +0.048 A 
ATOM     34  H   UNL     1       1.416   2.109  22.892  0.00  0.00    +0.167 HD
BRANCH  28   3
ATOM      3  O   UNL     1       6.423   0.452  23.032  0.00  0.00    -0.495 OA
ATOM     31  C   UNL     1       7.403  -0.580  22.945  0.00  0.00    +0.277 C 
ENDBRANCH  28   3
ENDBRANCH  17  21
ENDBRANCH  12  17
TORSDOF 11
ENDMDL
MODEL 9
REMARK VINA RESULT:      -0.2      2.000      4.371
REMARK  Name = 71693196
REMARK  15 active torsions:
REMARK  status: ('A' for Active; 'I' for Inactive)
REMARK    1  A    between atoms: O_2  and  C_25
REMARK    2  A    between atoms: O_2  and  C_30
REMARK    3  A    between atoms: O_3  and  C_28
REMARK    4  A    between atoms: O_3  and  C_31
REMARK    5  A    between atoms: O_4  and  C_32
REMARK    6  A    between atoms: N_6  and  C_16
REMARK    7  A    between atoms: C_9  and  C_13
REMARK    8  A    between atoms: C_10  and  C_16
REMARK    9  A    between atoms: C_12  and  C_17
REMARK   10  A    between atoms: C_13  and  C_18
REMARK   11  A    between atoms: C_13  and  C_19
REMARK   12  A    between atoms: C_14  and  C_20
REMARK   13  A    between atoms: C_17  and  C_21
REMARK   14  A    between atoms: C_22  and  C_25
REMARK   15  A    between atoms: C_30  and  C_32
REMARK                            x       y       z     vdW  Elec       q    Type
REMARK                         _______ _______ _______ _____ _____    ______ ____
ROOT
ATOM      9  C   UNL     1      -3.353  -0.338  24.891  0.00  0.00    +0.000 C 
ATOM     10  C   UNL     1      -2.187  -0.505  23.885  0.00  0.00    +0.032 C 
ATOM     11  C   UNL     1      -4.617   0.157  24.172  0.00  0.00    +0.012 C 
ATOM     12  C   UNL     1      -4.392   1.503  23.459  0.00  0.00    +0.022 C 
ATOM     14  C   UNL     1      -3.108   1.506  22.653  0.00  0.00    -0.073 C 
ATOM     15  C   UNL     1      -2.140   0.593  22.847  0.00  0.00    -0.022 C 
ATOM     20  C   UNL     1      -2.983   2.556  21.585  0.00  0.00    +0.039 C 
ENDROOT
BRANCH   9  13
ATOM     13  C   UNL     1      -3.656  -1.645  25.631  0.00  0.00    -0.013 C 
ATOM     18  C   UNL     1      -2.860  -1.721  26.929  0.00  0.00    +0.007 C 
ATOM     19  C   UNL     1      -3.350  -2.844  24.738  0.00  0.00    +0.007 C 
ENDBRANCH   9  13
BRANCH  10  16
ATOM     16  C   UNL     1      -0.838  -0.582  24.608  0.00  0.00    +0.112 C 
BRANCH  16   6
ATOM      1  O   UNL     1       1.101   1.492  24.059  0.00  0.00    -0.273 OA
ATOM      6  N   UNL     1       0.238  -0.634  23.669  0.00  0.00    -0.313 N 
ATOM     22  C   UNL     1       1.132   0.417  23.467  0.00  0.00    +0.239 C 
ATOM     33  H   UNL     1       0.392  -1.502  23.164  0.00  0.00    +0.149 HD
BRANCH  22  25
ATOM     25  C   UNL     1       2.172   0.090  22.417  0.00  0.00    +0.256 C 
BRANCH  25   2
ATOM      2  O   UNL     1       3.319   0.896  22.583  0.00  0.00    -0.359 OA
BRANCH   2  30
ATOM     30  C   UNL     1       4.521   0.137  22.485  0.00  0.00    +0.280 C 
BRANCH  30  32
ATOM      5  O   UNL     1       5.597   0.772  24.569  0.00  0.00    -0.248 OA
ATOM     32  C   UNL     1       5.095  -0.085  23.857  0.00  0.00    +0.331 C 
BRANCH  32   4
ATOM      4  O   UNL     1       4.981  -1.391  24.207  0.00  0.00    -0.479 OA
ATOM     35  H   UNL     1       5.544  -1.614  24.979  0.00  0.00    +0.295 HD
ENDBRANCH  32   4
ENDBRANCH  30  32
ENDBRANCH   2  30
ENDBRANCH  25   2
ENDBRANCH  22  25
ENDBRANCH  16   6
ENDBRANCH  10  16
BRANCH  12  17
ATOM     17  C   UNL     1      -4.414   2.667  24.456  0.00  0.00    +0.082 C 
BRANCH  17  21
ATOM      7  N   UNL     1      -2.494   2.169  25.982  0.00  0.00    -0.342 N 
ATOM      8  N   UNL     1      -2.235   3.919  24.635  0.00  0.00    -0.232 NA
ATOM     21  C   UNL     1      -3.043   2.949  25.001  0.00  0.00    +0.109 A 
ATOM     23  C   UNL     1      -1.249   2.670  26.266  0.00  0.00    +0.070 A 
ATOM     24  C   UNL     1      -1.111   3.761  25.413  0.00  0.00    +0.089 A 
ATOM     26  C   UNL     1      -0.263   2.274  27.170  0.00  0.00    +0.073 A 
ATOM     27  C   UNL     1       0.074   4.514  25.451  0.00  0.00    +0.033 A 
ATOM     28  C   UNL     1       0.911   3.034  27.193  0.00  0.00    +0.122 A 
ATOM     29  C   UNL     1       1.079   4.134  26.350  0.00  0.00    +0.048 A 
ATOM     34  H   UNL     1      -2.926   1.366  26.418  0.00  0.00    +0.167 HD
BRANCH  28   3
ATOM      3  O   UNL     1       1.910   2.693  28.058  0.00  0.00    -0.495 OA
ATOM     31  C   UNL     1       1.528   2.377  29.394  0.00  0.00    +0.277 C 
ENDBRANCH  28   3
ENDBRANCH  17  21
ENDBRANCH  12  17
TORSDOF 11
ENDMDL
