MODEL 1
REMARK VINA RESULT:       4.8      0.000      0.000
REMARK  Name = 45783326
REMARK  5 active torsions:
REMARK  status: ('A' for Active; 'I' for Inactive)
REMARK    1  A    between atoms: N_3  and  C_17
REMARK    2  A    between atoms: C_10  and  C_20
REMARK    3  A    between atoms: C_14  and  C_23
REMARK    4  A    between atoms: C_17  and  C_22
REMARK    5  A    between atoms: C_24  and  C_26
REMARK                            x       y       z     vdW  Elec       q    Type
REMARK                         _______ _______ _______ _____ _____    ______ ____
ROOT
ATOM      1  O   UNL     1      -5.855   0.909  24.892  0.00  0.00    -0.336 OA
ATOM      5  N   UNL     1      -3.707   1.322  25.376  0.00  0.00    -0.190 NA
ATOM      6  N   UNL     1      -5.126  -0.176  24.388  0.00  0.00    -0.056 NA
ATOM     20  C   UNL     1      -4.944   1.745  25.457  0.00  0.00    +0.245 A 
ATOM     24  C   UNL     1      -3.869   0.141  24.713  0.00  0.00    +0.202 A 
ENDROOT
BRANCH  24  26
ATOM      4  N   UNL     1       0.723  -0.408  23.332  0.00  0.00    -0.315 N 
ATOM      7  N   UNL     1      -0.577  -2.340  23.757  0.00  0.00    -0.240 NA
ATOM     14  C   UNL     1       3.257   0.748  22.508  0.00  0.00    +0.078 C 
ATOM     15  C   UNL     1       2.477  -0.213  21.614  0.00  0.00    +0.031 C 
ATOM     16  C   UNL     1       2.335   1.449  23.504  0.00  0.00    +0.031 C 
ATOM     18  C   UNL     1       1.576  -1.163  22.404  0.00  0.00    +0.107 C 
ATOM     19  C   UNL     1       1.414   0.491  24.261  0.00  0.00    +0.107 C 
ATOM     21  C   UNL     1      -0.491  -0.992  23.709  0.00  0.00    +0.122 A 
ATOM     25  C   UNL     1      -1.539  -0.136  24.013  0.00  0.00    +0.055 A 
ATOM     26  C   UNL     1      -2.753  -0.702  24.388  0.00  0.00    +0.027 A 
ATOM     29  C   UNL     1      -2.880  -2.084  24.449  0.00  0.00    +0.031 A 
ATOM     30  C   UNL     1      -1.773  -2.852  24.126  0.00  0.00    +0.113 A 
BRANCH  14  23
ATOM      2  O   UNL     1       4.332  -1.175  23.437  0.00  0.00    -0.276 OA
ATOM      8  N   UNL     1       5.419   0.850  23.566  0.00  0.00    -0.329 N 
ATOM     23  C   UNL     1       4.375   0.031  23.205  0.00  0.00    +0.214 C 
ATOM     33  H   UNL     1       6.232   0.471  24.043  0.00  0.00    +0.145 HD
ATOM     34  H   UNL     1       5.409   1.854  23.422  0.00  0.00    +0.145 HD
ENDBRANCH  14  23
ENDBRANCH  24  26
BRANCH  20  10
ATOM      3  N   UNL     1      -4.661   4.196  25.776  0.00  0.00    -0.287 NA
ATOM     10  C   UNL     1      -5.487   3.012  26.083  0.00  0.00    +0.146 C 
ATOM     11  C   UNL     1      -6.894   3.372  25.570  0.00  0.00    +0.030 C 
ATOM     12  C   UNL     1      -6.774   4.797  25.048  0.00  0.00    +0.017 C 
ATOM     13  C   UNL     1      -5.567   5.345  25.783  0.00  0.00    +0.085 C 
BRANCH   3  17
ATOM     17  C   UNL     1      -3.546   4.372  26.697  0.00  0.00    +0.121 C 
BRANCH  17  22
ATOM      9  N   UNL     1      -0.214   2.930  25.623  0.00  0.00    -0.263 NA
ATOM     22  C   UNL     1      -2.217   4.229  26.003  0.00  0.00    -0.015 A 
ATOM     27  C   UNL     1      -1.755   5.211  25.133  0.00  0.00    +0.008 A 
ATOM     28  C   UNL     1      -1.417   3.118  26.212  0.00  0.00    +0.115 A 
ATOM     31  C   UNL     1      -0.522   5.053  24.509  0.00  0.00    +0.020 A 
ATOM     32  C   UNL     1       0.202   3.905  24.783  0.00  0.00    +0.111 A 
ENDBRANCH  17  22
ENDBRANCH   3  17
ENDBRANCH  20  10
TORSDOF 5
ENDMDL
MODEL 2
REMARK VINA RESULT:       8.6      1.707      2.792
REMARK  Name = 45783326
REMARK  5 active torsions:
REMARK  status: ('A' for Active; 'I' for Inactive)
REMARK    1  A    between atoms: N_3  and  C_17
REMARK    2  A    between atoms: C_10  and  C_20
REMARK    3  A    between atoms: C_14  and  C_23
REMARK    4  A    between atoms: C_17  and  C_22
REMARK    5  A    between atoms: C_24  and  C_26
REMARK                            x       y       z     vdW  Elec       q    Type
REMARK                         _______ _______ _______ _____ _____    ______ ____
ROOT
ATOM      1  O   UNL     1      -2.600  -0.778  25.798  0.00  0.00    -0.336 OA
ATOM      5  N   UNL     1      -2.291   0.719  24.160  0.00  0.00    -0.190 NA
ATOM      6  N   UNL     1      -1.447  -1.182  25.114  0.00  0.00    -0.056 NA
ATOM     20  C   UNL     1      -3.035   0.348  25.173  0.00  0.00    +0.245 A 
ATOM     24  C   UNL     1      -1.331  -0.249  24.163  0.00  0.00    +0.202 A 
ENDROOT
BRANCH  24  26
ATOM      4  N   UNL     1       3.374  -0.090  23.094  0.00  0.00    -0.315 N 
ATOM      7  N   UNL     1       1.809  -0.279  21.327  0.00  0.00    -0.240 NA
ATOM     14  C   UNL     1       6.140   0.135  23.948  0.00  0.00    +0.078 C 
ATOM     15  C   UNL     1       5.503   1.143  22.994  0.00  0.00    +0.031 C 
ATOM     16  C   UNL     1       5.084  -0.560  24.805  0.00  0.00    +0.031 C 
ATOM     18  C   UNL     1       4.341   0.554  22.195  0.00  0.00    +0.107 C 
ATOM     19  C   UNL     1       3.909  -1.113  23.996  0.00  0.00    +0.107 C 
ATOM     21  C   UNL     1       2.048  -0.182  22.654  0.00  0.00    +0.122 A 
ATOM     25  C   UNL     1       1.056  -0.169  23.622  0.00  0.00    +0.055 A 
ATOM     26  C   UNL     1      -0.266  -0.258  23.200  0.00  0.00    +0.027 A 
ATOM     29  C   UNL     1      -0.552  -0.359  21.844  0.00  0.00    +0.031 A 
ATOM     30  C   UNL     1       0.512  -0.364  20.955  0.00  0.00    +0.113 A 
BRANCH  14  23
ATOM      2  O   UNL     1       6.555  -1.977  22.906  0.00  0.00    -0.276 OA
ATOM      8  N   UNL     1       8.227  -0.396  22.866  0.00  0.00    -0.329 N 
ATOM     23  C   UNL     1       6.971  -0.856  23.189  0.00  0.00    +0.214 C 
ATOM     33  H   UNL     1       8.876  -0.982  22.351  0.00  0.00    +0.145 HD
ATOM     34  H   UNL     1       8.576   0.509  23.162  0.00  0.00    +0.145 HD
ENDBRANCH  14  23
ENDBRANCH  24  26
BRANCH  20  10
ATOM      3  N   UNL     1      -4.372   2.432  25.421  0.00  0.00    -0.287 NA
ATOM     10  C   UNL     1      -4.286   0.991  25.733  0.00  0.00    +0.146 C 
ATOM     11  C   UNL     1      -5.576   0.387  25.149  0.00  0.00    +0.030 C 
ATOM     12  C   UNL     1      -6.351   1.570  24.585  0.00  0.00    +0.017 C 
ATOM     13  C   UNL     1      -5.797   2.755  25.351  0.00  0.00    +0.085 C 
BRANCH   3  17
ATOM     17  C   UNL     1      -3.666   3.270  26.382  0.00  0.00    +0.121 C 
BRANCH  17  22
ATOM      9  N   UNL     1      -0.013   3.469  25.407  0.00  0.00    -0.263 NA
ATOM     22  C   UNL     1      -2.372   3.798  25.821  0.00  0.00    -0.015 A 
ATOM     27  C   UNL     1      -2.310   5.052  25.223  0.00  0.00    +0.008 A 
ATOM     28  C   UNL     1      -1.207   3.052  25.887  0.00  0.00    +0.115 A 
ATOM     31  C   UNL     1      -1.101   5.515  24.716  0.00  0.00    +0.020 A 
ATOM     32  C   UNL     1       0.008   4.693  24.831  0.00  0.00    +0.111 A 
ENDBRANCH  17  22
ENDBRANCH   3  17
ENDBRANCH  20  10
TORSDOF 5
ENDMDL
