MODEL 1
REMARK VINA RESULT:      25.3      0.000      0.000
REMARK  Name = 7673970
REMARK  8 active torsions:
REMARK  status: ('A' for Active; 'I' for Inactive)
REMARK    1  A    between atoms: O_5  and  C_30
REMARK    2  A    between atoms: O_5  and  C_37
REMARK    3  A    between atoms: N_9  and  C_16
REMARK    4  A    between atoms: N_11  and  C_27
REMARK    5  A    between atoms: C_12  and  C_17
REMARK    6  A    between atoms: C_20  and  C_24
REMARK    7  A    between atoms: C_35  and  C_36
REMARK    8  A    between atoms: C_36  and  C_38
REMARK                            x       y       z     vdW  Elec       q    Type
REMARK                         _______ _______ _______ _____ _____    ______ ____
ROOT
ATOM      2  O   UNL     1      -1.812   0.634  26.365  0.00  0.00    -0.270 OA
ATOM      4  O   UNL     1       3.679  -1.852  23.764  0.00  0.00    -0.252 OA
ATOM      7  N   UNL     1      -0.561   0.563  24.391  0.00  0.00    -0.283 N 
ATOM      8  N   UNL     1       2.003  -0.276  23.522  0.00  0.00    -0.282 N 
ATOM     11  N   UNL     1       4.267   0.370  23.388  0.00  0.00    -0.269 N 
ATOM     12  C   UNL     1      -0.172  -0.840  24.574  0.00  0.00    +0.179 C 
ATOM     13  C   UNL     1       0.947  -1.284  23.627  0.00  0.00    +0.141 C 
ATOM     14  C   UNL     1       0.035   1.240  23.233  0.00  0.00    +0.128 C 
ATOM     15  C   UNL     1       1.556   1.108  23.296  0.00  0.00    +0.128 C 
ATOM     20  C   UNL     1      -1.309   1.195  25.393  0.00  0.00    +0.247 C 
ATOM     23  C   UNL     1       3.360  -0.677  23.572  0.00  0.00    +0.307 C 
ATOM     41  H   UNL     1       3.899   1.304  23.242  0.00  0.00    +0.156 HD
ENDROOT
BRANCH  20  24
ATOM     24  C   UNL     1      -1.541   2.641  25.282  0.00  0.00    +0.037 A 
ATOM     25  C   UNL     1      -2.841   3.138  25.310  0.00  0.00    +0.016 A 
ATOM     26  C   UNL     1      -0.459   3.507  25.147  0.00  0.00    +0.016 A 
ATOM     28  C   UNL     1      -3.060   4.511  25.204  0.00  0.00    +0.046 A 
ATOM     29  C   UNL     1      -0.679   4.880  25.042  0.00  0.00    +0.046 A 
ATOM     30  C   UNL     1      -1.980   5.383  25.069  0.00  0.00    +0.120 A 
BRANCH  30   5
ATOM      5  O   UNL     1      -2.194   6.722  24.963  0.00  0.00    -0.495 OA
ATOM     37  C   UNL     1      -2.499   7.231  23.666  0.00  0.00    +0.277 C 
ENDBRANCH  30   5
ENDBRANCH  20  24
BRANCH  11  27
ATOM     27  C   UNL     1       5.683   0.303  23.387  0.00  0.00    +0.035 A 
ATOM     31  C   UNL     1       6.420   1.221  24.131  0.00  0.00    +0.024 A 
ATOM     32  C   UNL     1       6.330  -0.681  22.644  0.00  0.00    +0.024 A 
ATOM     33  C   UNL     1       7.814   1.155  24.130  0.00  0.00    +0.013 A 
ATOM     34  C   UNL     1       7.723  -0.748  22.642  0.00  0.00    +0.013 A 
ATOM     35  C   UNL     1       8.465   0.171  23.385  0.00  0.00    +0.017 A 
BRANCH  35  36
ATOM      6  O   UNL     1      10.573   0.179  22.327  0.00  0.00    -0.292 OA
ATOM     36  C   UNL     1       9.918   0.101  23.386  0.00  0.00    +0.160 C 
ATOM     38  C   UNL     1      10.679  -0.072  24.696  0.00  0.00    +0.091 C 
ENDBRANCH  35  36
ENDBRANCH  11  27
BRANCH  12  17
ATOM      1  O   UNL     1      -1.385  -2.620  23.546  0.00  0.00    -0.274 OA
ATOM      9  N   UNL     1      -2.514  -1.155  24.961  0.00  0.00    -0.302 N 
ATOM     17  C   UNL     1      -1.403  -1.649  24.298  0.00  0.00    +0.236 C 
ATOM     39  H   UNL     1      -2.403  -0.360  25.583  0.00  0.00    +0.150 HD
BRANCH   9  16
ATOM      3  O   UNL     1      -2.854  -3.735  25.796  0.00  0.00    -0.274 OA
ATOM     10  N   UNL     1      -4.612  -4.028  24.368  0.00  0.00    -0.314 N 
ATOM     16  C   UNL     1      -3.825  -1.740  24.844  0.00  0.00    +0.159 C 
ATOM     18  C   UNL     1      -4.490  -1.325  23.540  0.00  0.00    +0.033 C 
ATOM     19  C   UNL     1      -5.790  -2.094  23.363  0.00  0.00    +0.021 C 
ATOM     21  C   UNL     1      -5.484  -3.577  23.299  0.00  0.00    +0.104 C 
ATOM     22  C   UNL     1      -3.683  -3.248  25.025  0.00  0.00    +0.233 C 
ATOM     40  H   UNL     1      -4.563  -5.030  24.528  0.00  0.00    +0.149 HD
ENDBRANCH   9  16
ENDBRANCH  12  17
TORSDOF 6
ENDMDL
MODEL 2
REMARK VINA RESULT:      25.6      2.261      5.558
REMARK  Name = 7673970
REMARK  8 active torsions:
REMARK  status: ('A' for Active; 'I' for Inactive)
REMARK    1  A    between atoms: O_5  and  C_30
REMARK    2  A    between atoms: O_5  and  C_37
REMARK    3  A    between atoms: N_9  and  C_16
REMARK    4  A    between atoms: N_11  and  C_27
REMARK    5  A    between atoms: C_12  and  C_17
REMARK    6  A    between atoms: C_20  and  C_24
REMARK    7  A    between atoms: C_35  and  C_36
REMARK    8  A    between atoms: C_36  and  C_38
REMARK                            x       y       z     vdW  Elec       q    Type
REMARK                         _______ _______ _______ _____ _____    ______ ____
ROOT
ATOM      2  O   UNL     1      -3.426   1.124  22.579  0.00  0.00    -0.270 OA
ATOM      4  O   UNL     1       2.934   2.412  23.577  0.00  0.00    -0.252 OA
ATOM      7  N   UNL     1      -1.723   0.941  24.171  0.00  0.00    -0.283 N 
ATOM      8  N   UNL     1       1.093   1.226  24.322  0.00  0.00    -0.282 N 
ATOM     11  N   UNL     1       3.137   0.119  23.926  0.00  0.00    -0.269 N 
ATOM     12  C   UNL     1      -1.118   2.230  23.814  0.00  0.00    +0.179 C 
ATOM     13  C   UNL     1       0.272   2.434  24.424  0.00  0.00    +0.141 C 
ATOM     14  C   UNL     1      -1.000   0.161  25.182  0.00  0.00    +0.128 C 
ATOM     15  C   UNL     1       0.448  -0.031  24.734  0.00  0.00    +0.128 C 
ATOM     20  C   UNL     1      -2.814   0.475  23.427  0.00  0.00    +0.247 C 
ATOM     23  C   UNL     1       2.444   1.332  23.912  0.00  0.00    +0.307 C 
ATOM     41  H   UNL     1       2.638  -0.716  24.214  0.00  0.00    +0.156 HD
ENDROOT
BRANCH  20  24
ATOM     24  C   UNL     1      -3.297  -0.889  23.678  0.00  0.00    +0.037 A 
ATOM     25  C   UNL     1      -2.425  -1.851  24.179  0.00  0.00    +0.016 A 
ATOM     26  C   UNL     1      -4.625  -1.212  23.412  0.00  0.00    +0.016 A 
ATOM     28  C   UNL     1      -2.885  -3.147  24.416  0.00  0.00    +0.046 A 
ATOM     29  C   UNL     1      -5.084  -2.507  23.650  0.00  0.00    +0.046 A 
ATOM     30  C   UNL     1      -4.213  -3.475  24.152  0.00  0.00    +0.120 A 
BRANCH  30   5
ATOM      5  O   UNL     1      -4.661  -4.740  24.382  0.00  0.00    -0.495 OA
ATOM     37  C   UNL     1      -4.015  -5.797  23.675  0.00  0.00    +0.277 C 
ENDBRANCH  30   5
ENDBRANCH  20  24
BRANCH  11  27
ATOM     27  C   UNL     1       4.489  -0.114  23.570  0.00  0.00    +0.035 A 
ATOM     31  C   UNL     1       5.412  -0.472  24.550  0.00  0.00    +0.024 A 
ATOM     32  C   UNL     1       4.889   0.015  22.242  0.00  0.00    +0.024 A 
ATOM     33  C   UNL     1       6.742  -0.701  24.200  0.00  0.00    +0.013 A 
ATOM     34  C   UNL     1       6.219  -0.214  21.891  0.00  0.00    +0.013 A 
ATOM     35  C   UNL     1       7.146  -0.572  22.870  0.00  0.00    +0.017 A 
BRANCH  35  36
ATOM      6  O   UNL     1       8.863  -1.802  21.820  0.00  0.00    -0.292 OA
ATOM     36  C   UNL     1       8.533  -0.812  22.504  0.00  0.00    +0.160 C 
ATOM     38  C   UNL     1       9.625   0.152  22.955  0.00  0.00    +0.091 C 
ENDBRANCH  35  36
ENDBRANCH  11  27
BRANCH  12  17
ATOM      1  O   UNL     1      -1.860   4.477  24.127  0.00  0.00    -0.274 OA
ATOM      9  N   UNL     1      -3.085   2.741  25.081  0.00  0.00    -0.302 N 
ATOM     17  C   UNL     1      -2.048   3.281  24.339  0.00  0.00    +0.236 C 
ATOM     39  H   UNL     1      -3.157   1.732  25.165  0.00  0.00    +0.150 HD
BRANCH   9  16
ATOM      3  O   UNL     1      -5.320   1.482  26.023  0.00  0.00    -0.274 OA
ATOM     10  N   UNL     1      -6.561   3.387  25.796  0.00  0.00    -0.314 N 
ATOM     16  C   UNL     1      -4.101   3.543  25.714  0.00  0.00    +0.159 C 
ATOM     18  C   UNL     1      -4.288   4.861  24.977  0.00  0.00    +0.033 C 
ATOM     19  C   UNL     1      -5.481   5.604  25.558  0.00  0.00    +0.021 C 
ATOM     21  C   UNL     1      -6.729   4.763  25.369  0.00  0.00    +0.104 C 
ATOM     22  C   UNL     1      -5.366   2.697  25.820  0.00  0.00    +0.233 C 
ATOM     40  H   UNL     1      -7.407   2.841  25.925  0.00  0.00    +0.149 HD
ENDBRANCH   9  16
ENDBRANCH  12  17
TORSDOF 6
ENDMDL
