MODEL 1
REMARK VINA RESULT:       7.1      0.000      0.000
REMARK  Name = 38028961
REMARK  9 active torsions:
REMARK  status: ('A' for Active; 'I' for Inactive)
REMARK    1  A    between atoms: N_4  and  C_16
REMARK    2  A    between atoms: C_8  and  C_12
REMARK    3  A    between atoms: C_9  and  C_16
REMARK    4  A    between atoms: C_11  and  C_15
REMARK    5  A    between atoms: C_12  and  C_17
REMARK    6  A    between atoms: C_12  and  C_18
REMARK    7  A    between atoms: C_13  and  C_19
REMARK    8  A    between atoms: C_15  and  C_20
REMARK    9  A    between atoms: C_25  and  C_27
REMARK                            x       y       z     vdW  Elec       q    Type
REMARK                         _______ _______ _______ _____ _____    ______ ____
ROOT
ATOM      8  C   UNL     1      -3.417   2.107  23.859  0.00  0.00    +0.000 C 
ATOM      9  C   UNL     1      -4.256   3.334  24.299  0.00  0.00    +0.032 C 
ATOM     10  C   UNL     1      -4.304   0.855  23.774  0.00  0.00    +0.012 C 
ATOM     11  C   UNL     1      -4.981   0.528  25.119  0.00  0.00    +0.023 C 
ATOM     13  C   UNL     1      -5.604   1.758  25.750  0.00  0.00    -0.073 C 
ATOM     14  C   UNL     1      -5.277   3.003  25.361  0.00  0.00    -0.022 C 
ATOM     19  C   UNL     1      -6.645   1.521  26.807  0.00  0.00    +0.039 C 
ENDROOT
BRANCH   8  12
ATOM     12  C   UNL     1      -2.725   2.344  22.513  0.00  0.00    -0.013 C 
ATOM     17  C   UNL     1      -3.618   3.170  21.593  0.00  0.00    +0.007 C 
ATOM     18  C   UNL     1      -2.360   1.013  21.862  0.00  0.00    +0.007 C 
ENDBRANCH   8  12
BRANCH  11  15
ATOM     15  C   UNL     1      -3.997  -0.144  26.083  0.00  0.00    +0.103 C 
BRANCH  15  20
ATOM      1  O   UNL     1      -3.795  -2.353  25.238  0.00  0.00    -0.276 OA
ATOM      3  N   UNL     1      -1.978  -0.942  24.911  0.00  0.00    -0.298 N 
ATOM      5  N   UNL     1       0.592  -0.345  23.722  0.00  0.00    -0.312 N 
ATOM      6  N   UNL     1       2.835   0.375  23.901  0.00  0.00    -0.240 NA
ATOM     20  C   UNL     1      -3.258  -1.252  25.373  0.00  0.00    +0.216 C 
ATOM     21  C   UNL     1      -1.346   0.371  25.063  0.00  0.00    +0.126 C 
ATOM     22  C   UNL     1      -1.197  -1.962  24.218  0.00  0.00    +0.126 C 
ATOM     23  C   UNL     1       0.178   0.309  24.965  0.00  0.00    +0.125 C 
ATOM     24  C   UNL     1      -0.294  -1.359  23.143  0.00  0.00    +0.125 C 
ATOM     26  C   UNL     1       1.812  -0.042  23.121  0.00  0.00    +0.121 A 
ATOM     28  C   UNL     1       1.896  -0.189  21.746  0.00  0.00    +0.043 A 
ATOM     30  C   UNL     1       3.108   0.110  21.132  0.00  0.00    +0.005 A 
ATOM     31  C   UNL     1       3.996   0.656  23.270  0.00  0.00    +0.113 A 
ATOM     32  C   UNL     1       4.183   0.541  21.902  0.00  0.00    +0.020 A 
ENDBRANCH  15  20
ENDBRANCH  11  15
BRANCH   9  16
ATOM     16  C   UNL     1      -3.354   4.471  24.794  0.00  0.00    +0.112 C 
BRANCH  16   4
ATOM      2  O   UNL     1      -0.550   3.929  24.491  0.00  0.00    -0.269 OA
ATOM      4  N   UNL     1      -2.460   4.004  25.808  0.00  0.00    -0.310 N 
ATOM     25  C   UNL     1      -1.106   3.765  25.574  0.00  0.00    +0.262 C 
ATOM     36  H   UNL     1      -2.820   3.879  26.750  0.00  0.00    +0.149 HD
BRANCH  25  27
ATOM      7  N   UNL     1       1.015   3.152  26.523  0.00  0.00    -0.250 NA
ATOM     27  C   UNL     1      -0.318   3.257  26.726  0.00  0.00    +0.125 A 
ATOM     29  C   UNL     1      -0.950   2.922  27.912  0.00  0.00    +0.033 A 
ATOM     33  C   UNL     1      -0.165   2.452  28.958  0.00  0.00    +0.004 A 
ATOM     34  C   UNL     1       1.747   2.691  27.562  0.00  0.00    +0.111 A 
ATOM     35  C   UNL     1       1.210   2.331  28.788  0.00  0.00    +0.020 A 
ENDBRANCH  25  27
ENDBRANCH  16   4
ENDBRANCH   9  16
TORSDOF 6
ENDMDL
MODEL 2
REMARK VINA RESULT:       8.3      2.364      5.760
REMARK  Name = 38028961
REMARK  9 active torsions:
REMARK  status: ('A' for Active; 'I' for Inactive)
REMARK    1  A    between atoms: N_4  and  C_16
REMARK    2  A    between atoms: C_8  and  C_12
REMARK    3  A    between atoms: C_9  and  C_16
REMARK    4  A    between atoms: C_11  and  C_15
REMARK    5  A    between atoms: C_12  and  C_17
REMARK    6  A    between atoms: C_12  and  C_18
REMARK    7  A    between atoms: C_13  and  C_19
REMARK    8  A    between atoms: C_15  and  C_20
REMARK    9  A    between atoms: C_25  and  C_27
REMARK                            x       y       z     vdW  Elec       q    Type
REMARK                         _______ _______ _______ _____ _____    ______ ____
ROOT
ATOM      8  C   UNL     1      -2.501   2.830  23.465  0.00  0.00    +0.000 C 
ATOM      9  C   UNL     1      -0.995   2.547  23.237  0.00  0.00    +0.032 C 
ATOM     10  C   UNL     1      -2.739   4.336  23.662  0.00  0.00    +0.012 C 
ATOM     11  C   UNL     1      -1.949   4.899  24.858  0.00  0.00    +0.023 C 
ATOM     13  C   UNL     1      -0.505   4.437  24.848  0.00  0.00    -0.073 C 
ATOM     14  C   UNL     1      -0.095   3.393  24.107  0.00  0.00    -0.022 C 
ATOM     19  C   UNL     1       0.466   5.233  25.674  0.00  0.00    +0.039 C 
ENDROOT
BRANCH   8  12
ATOM     12  C   UNL     1      -3.359   2.317  22.304  0.00  0.00    -0.013 C 
ATOM     17  C   UNL     1      -2.473   1.864  21.148  0.00  0.00    +0.007 C 
ATOM     18  C   UNL     1      -4.334   3.397  21.847  0.00  0.00    +0.007 C 
ENDBRANCH   8  12
BRANCH  11  15
ATOM     15  C   UNL     1      -2.628   4.544  26.185  0.00  0.00    +0.103 C 
BRANCH  15  20
ATOM      1  O   UNL     1      -4.985   4.531  25.903  0.00  0.00    -0.276 OA
ATOM      3  N   UNL     1      -3.901   2.484  25.712  0.00  0.00    -0.298 N 
ATOM      5  N   UNL     1      -3.894  -0.334  25.051  0.00  0.00    -0.312 N 
ATOM      6  N   UNL     1      -3.399  -2.581  25.586  0.00  0.00    -0.240 NA
ATOM     20  C   UNL     1      -3.949   3.863  25.920  0.00  0.00    +0.216 C 
ATOM     21  C   UNL     1      -2.667   1.695  25.721  0.00  0.00    +0.126 C 
ATOM     22  C   UNL     1      -5.138   1.752  25.454  0.00  0.00    +0.126 C 
ATOM     23  C   UNL     1      -2.916   0.212  25.995  0.00  0.00    +0.125 C 
ATOM     24  C   UNL     1      -4.916   0.568  24.514  0.00  0.00    +0.125 C 
ATOM     26  C   UNL     1      -3.881  -1.682  24.699  0.00  0.00    +0.121 A 
ATOM     28  C   UNL     1      -4.367  -2.014  23.445  0.00  0.00    +0.043 A 
ATOM     30  C   UNL     1      -4.359  -3.356  23.079  0.00  0.00    +0.005 A 
ATOM     31  C   UNL     1      -3.407  -3.875  25.196  0.00  0.00    +0.113 A 
ATOM     32  C   UNL     1      -3.872  -4.310  23.966  0.00  0.00    +0.020 A 
ENDBRANCH  15  20
ENDBRANCH  11  15
BRANCH   9  16
ATOM     16  C   UNL     1      -0.672   1.064  23.458  0.00  0.00    +0.112 C 
BRANCH  16   4
ATOM      2  O   UNL     1       1.066  -0.469  21.762  0.00  0.00    -0.269 OA
ATOM      4  N   UNL     1       0.734   0.871  23.629  0.00  0.00    -0.310 N 
ATOM     25  C   UNL     1       1.507   0.108  22.754  0.00  0.00    +0.262 C 
ATOM     36  H   UNL     1       1.198   1.344  24.399  0.00  0.00    +0.149 HD
BRANCH  25  27
ATOM      7  N   UNL     1       3.342  -1.227  23.545  0.00  0.00    -0.250 NA
ATOM     27  C   UNL     1       2.949  -0.018  23.085  0.00  0.00    +0.125 A 
ATOM     29  C   UNL     1       3.801   1.062  22.918  0.00  0.00    +0.033 A 
ATOM     33  C   UNL     1       5.141   0.890  23.242  0.00  0.00    +0.004 A 
ATOM     34  C   UNL     1       4.653  -1.357  23.850  0.00  0.00    +0.111 A 
ATOM     35  C   UNL     1       5.583  -0.340  23.718  0.00  0.00    +0.020 A 
ENDBRANCH  25  27
ENDBRANCH  16   4
ENDBRANCH   9  16
TORSDOF 6
ENDMDL
MODEL 3
REMARK VINA RESULT:       9.0      1.333      2.052
REMARK  Name = 38028961
REMARK  9 active torsions:
REMARK  status: ('A' for Active; 'I' for Inactive)
REMARK    1  A    between atoms: N_4  and  C_16
REMARK    2  A    between atoms: C_8  and  C_12
REMARK    3  A    between atoms: C_9  and  C_16
REMARK    4  A    between atoms: C_11  and  C_15
REMARK    5  A    between atoms: C_12  and  C_17
REMARK    6  A    between atoms: C_12  and  C_18
REMARK    7  A    between atoms: C_13  and  C_19
REMARK    8  A    between atoms: C_15  and  C_20
REMARK    9  A    between atoms: C_25  and  C_27
REMARK                            x       y       z     vdW  Elec       q    Type
REMARK                         _______ _______ _______ _____ _____    ______ ____
ROOT
ATOM      8  C   UNL     1      -4.391   2.395  24.510  0.00  0.00    +0.000 C 
ATOM      9  C   UNL     1      -3.450   2.405  25.742  0.00  0.00    +0.032 C 
ATOM     10  C   UNL     1      -5.529   1.383  24.715  0.00  0.00    +0.012 C 
ATOM     11  C   UNL     1      -5.004  -0.047  24.940  0.00  0.00    +0.023 C 
ATOM     13  C   UNL     1      -3.879  -0.081  25.954  0.00  0.00    -0.073 C 
ATOM     14  C   UNL     1      -3.205   1.027  26.310  0.00  0.00    -0.022 C 
ATOM     19  C   UNL     1      -3.576  -1.411  26.585  0.00  0.00    +0.039 C 
ENDROOT
BRANCH   8  12
ATOM     12  C   UNL     1      -4.975   3.783  24.230  0.00  0.00    -0.013 C 
ATOM     17  C   UNL     1      -3.910   4.699  23.635  0.00  0.00    +0.007 C 
ATOM     18  C   UNL     1      -5.553   4.384  25.507  0.00  0.00    +0.007 C 
ENDBRANCH   8  12
BRANCH  11  15
ATOM     15  C   UNL     1      -4.571  -0.691  23.618  0.00  0.00    +0.103 C 
BRANCH  15  20
ATOM      1  O   UNL     1      -3.668  -2.809  24.194  0.00  0.00    -0.276 OA
ATOM      3  N   UNL     1      -2.144  -1.127  23.694  0.00  0.00    -0.298 N 
ATOM      5  N   UNL     1       0.552  -0.219  23.163  0.00  0.00    -0.312 N 
ATOM      6  N   UNL     1       2.349   1.263  23.557  0.00  0.00    -0.240 NA
ATOM     20  C   UNL     1      -3.429  -1.646  23.862  0.00  0.00    +0.216 C 
ATOM     21  C   UNL     1      -1.863   0.252  23.288  0.00  0.00    +0.126 C 
ATOM     22  C   UNL     1      -0.985  -1.988  23.916  0.00  0.00    +0.126 C 
ATOM     23  C   UNL     1      -0.457   0.708  23.679  0.00  0.00    +0.125 C 
ATOM     24  C   UNL     1       0.180  -1.626  22.996  0.00  0.00    +0.125 C 
ATOM     26  C   UNL     1       1.845   0.212  22.871  0.00  0.00    +0.121 A 
ATOM     28  C   UNL     1       2.534  -0.471  21.884  0.00  0.00    +0.043 A 
ATOM     30  C   UNL     1       3.825  -0.052  21.582  0.00  0.00    +0.005 A 
ATOM     31  C   UNL     1       3.606   1.642  23.237  0.00  0.00    +0.113 A 
ATOM     32  C   UNL     1       4.379   1.025  22.267  0.00  0.00    +0.020 A 
ENDBRANCH  15  20
ENDBRANCH  11  15
BRANCH   9  16
ATOM     16  C   UNL     1      -2.107   3.065  25.406  0.00  0.00    +0.112 C 
BRANCH  16   4
ATOM      2  O   UNL     1       0.673   2.349  25.396  0.00  0.00    -0.269 OA
ATOM      4  N   UNL     1      -1.231   3.034  26.534  0.00  0.00    -0.310 N 
ATOM     25  C   UNL     1       0.113   2.673  26.441  0.00  0.00    +0.262 C 
ATOM     36  H   UNL     1      -1.593   3.326  27.437  0.00  0.00    +0.149 HD
BRANCH  25  27
ATOM      7  N   UNL     1       2.195   2.978  27.603  0.00  0.00    -0.250 NA
ATOM     27  C   UNL     1       0.884   2.665  27.711  0.00  0.00    +0.125 A 
ATOM     29  C   UNL     1       0.258   2.350  28.906  0.00  0.00    +0.033 A 
ATOM     33  C   UNL     1       1.026   2.358  30.064  0.00  0.00    +0.004 A 
ATOM     34  C   UNL     1       2.910   2.976  28.750  0.00  0.00    +0.111 A 
ATOM     35  C   UNL     1       2.378   2.676  29.993  0.00  0.00    +0.020 A 
ENDBRANCH  25  27
ENDBRANCH  16   4
ENDBRANCH   9  16
TORSDOF 6
ENDMDL
MODEL 4
REMARK VINA RESULT:      10.4      1.862      4.663
REMARK  Name = 38028961
REMARK  9 active torsions:
REMARK  status: ('A' for Active; 'I' for Inactive)
REMARK    1  A    between atoms: N_4  and  C_16
REMARK    2  A    between atoms: C_8  and  C_12
REMARK    3  A    between atoms: C_9  and  C_16
REMARK    4  A    between atoms: C_11  and  C_15
REMARK    5  A    between atoms: C_12  and  C_17
REMARK    6  A    between atoms: C_12  and  C_18
REMARK    7  A    between atoms: C_13  and  C_19
REMARK    8  A    between atoms: C_15  and  C_20
REMARK    9  A    between atoms: C_25  and  C_27
REMARK                            x       y       z     vdW  Elec       q    Type
REMARK                         _______ _______ _______ _____ _____    ______ ____
ROOT
ATOM      8  C   UNL     1      -4.537   2.871  24.856  0.00  0.00    +0.000 C 
ATOM      9  C   UNL     1      -4.384   2.984  23.318  0.00  0.00    +0.032 C 
ATOM     10  C   UNL     1      -5.112   4.174  25.433  0.00  0.00    +0.012 C 
ATOM     11  C   UNL     1      -4.224   5.392  25.118  0.00  0.00    +0.023 C 
ATOM     13  C   UNL     1      -3.807   5.424  23.662  0.00  0.00    -0.073 C 
ATOM     14  C   UNL     1      -3.898   4.341  22.869  0.00  0.00    -0.022 C 
ATOM     19  C   UNL     1      -3.324   6.742  23.125  0.00  0.00    +0.039 C 
ENDROOT
BRANCH   8  12
ATOM     12  C   UNL     1      -5.428   1.690  25.254  0.00  0.00    -0.013 C 
ATOM     17  C   UNL     1      -6.629   1.590  24.318  0.00  0.00    +0.007 C 
ATOM     18  C   UNL     1      -5.882   1.832  26.703  0.00  0.00    +0.007 C 
ENDBRANCH   8  12
BRANCH  11  15
ATOM     15  C   UNL     1      -3.000   5.437  26.041  0.00  0.00    +0.103 C 
BRANCH  15  20
ATOM      1  O   UNL     1      -3.260   3.525  27.424  0.00  0.00    -0.276 OA
ATOM      3  N   UNL     1      -1.606   3.416  25.795  0.00  0.00    -0.298 N 
ATOM      5  N   UNL     1       0.379   1.946  24.287  0.00  0.00    -0.312 N 
ATOM      6  N   UNL     1       2.571   1.709  23.438  0.00  0.00    -0.240 NA
ATOM     20  C   UNL     1      -2.644   4.040  26.489  0.00  0.00    +0.216 C 
ATOM     21  C   UNL     1      -0.883   4.026  24.677  0.00  0.00    +0.126 C 
ATOM     22  C   UNL     1      -1.199   2.065  26.173  0.00  0.00    +0.126 C 
ATOM     23  C   UNL     1       0.492   3.398  24.449  0.00  0.00    +0.125 C 
ATOM     24  C   UNL     1      -0.718   1.256  24.969  0.00  0.00    +0.125 C 
ATOM     26  C   UNL     1       1.310   1.231  23.536  0.00  0.00    +0.121 A 
ATOM     28  C   UNL     1       0.873   0.065  22.929  0.00  0.00    +0.043 A 
ATOM     30  C   UNL     1       1.791  -0.659  22.176  0.00  0.00    +0.005 A 
ATOM     31  C   UNL     1       3.435   0.979  22.699  0.00  0.00    +0.113 A 
ATOM     32  C   UNL     1       3.098  -0.200  22.053  0.00  0.00    +0.020 A 
ENDBRANCH  15  20
ENDBRANCH  11  15
BRANCH   9  16
ATOM     16  C   UNL     1      -3.445   1.900  22.775  0.00  0.00    +0.112 C 
BRANCH  16   4
ATOM      2  O   UNL     1      -4.099  -0.872  22.410  0.00  0.00    -0.269 OA
ATOM      4  N   UNL     1      -3.276   0.850  23.731  0.00  0.00    -0.310 N 
ATOM     25  C   UNL     1      -3.621  -0.476  23.470  0.00  0.00    +0.262 C 
ATOM     36  H   UNL     1      -2.848   1.074  24.625  0.00  0.00    +0.149 HD
BRANCH  25  27
ATOM      7  N   UNL     1      -3.417  -2.748  24.225  0.00  0.00    -0.250 NA
ATOM     27  C   UNL     1      -3.409  -1.443  24.577  0.00  0.00    +0.125 A 
ATOM     29  C   UNL     1      -3.220  -0.990  25.873  0.00  0.00    +0.033 A 
ATOM     33  C   UNL     1      -3.025  -1.938  26.871  0.00  0.00    +0.004 A 
ATOM     34  C   UNL     1      -3.224  -3.641  25.222  0.00  0.00    +0.111 A 
ATOM     35  C   UNL     1      -3.026  -3.290  26.548  0.00  0.00    +0.020 A 
ENDBRANCH  25  27
ENDBRANCH  16   4
ENDBRANCH   9  16
TORSDOF 6
ENDMDL
