MODEL 1
REMARK VINA RESULT:      -6.4      0.000      0.000
REMARK  Name = 38027684
REMARK  13 active torsions:
REMARK  status: ('A' for Active; 'I' for Inactive)
REMARK    1  A    between atoms: O_3  and  C_27
REMARK    2  A    between atoms: O_3  and  C_28
REMARK    3  A    between atoms: N_4  and  C_13
REMARK    4  A    between atoms: N_5  and  C_26
REMARK    5  A    between atoms: C_6  and  C_10
REMARK    6  A    between atoms: C_7  and  C_13
REMARK    7  A    between atoms: C_9  and  C_14
REMARK    8  A    between atoms: C_10  and  C_15
REMARK    9  A    between atoms: C_10  and  C_16
REMARK   10  A    between atoms: C_11  and  C_18
REMARK   11  A    between atoms: C_14  and  C_25
REMARK   12  A    between atoms: C_17  and  C_21
REMARK   13  A    between atoms: C_26  and  C_27
REMARK                            x       y       z     vdW  Elec       q    Type
REMARK                         _______ _______ _______ _____ _____    ______ ____
ROOT
ATOM      6  C   UNL     1      -2.295  -1.334  24.352  0.00  0.00    +0.000 C 
ATOM      7  C   UNL     1      -2.866  -0.543  25.556  0.00  0.00    +0.032 C 
ATOM      8  C   UNL     1      -0.770  -1.472  24.477  0.00  0.00    +0.012 C 
ATOM      9  C   UNL     1      -0.064  -0.104  24.541  0.00  0.00    +0.023 C 
ATOM     11  C   UNL     1      -0.741   0.834  25.520  0.00  0.00    -0.073 C 
ATOM     12  C   UNL     1      -1.989   0.614  25.973  0.00  0.00    -0.022 C 
ATOM     18  C   UNL     1       0.065   2.005  26.004  0.00  0.00    +0.039 C 
ENDROOT
BRANCH   6  10
ATOM     10  C   UNL     1      -2.933  -2.721  24.229  0.00  0.00    -0.013 C 
ATOM     15  C   UNL     1      -3.137  -3.337  25.610  0.00  0.00    +0.007 C 
ATOM     16  C   UNL     1      -4.256  -2.632  23.476  0.00  0.00    +0.007 C 
ENDBRANCH   6  10
BRANCH   7  13
ATOM     13  C   UNL     1      -4.280  -0.030  25.261  0.00  0.00    +0.112 C 
BRANCH  13   4
ATOM      1  O   UNL     1      -6.147   2.002  26.165  0.00  0.00    -0.276 OA
ATOM      4  N   UNL     1      -4.260   1.365  24.954  0.00  0.00    -0.315 N 
ATOM     21  C   UNL     1      -5.200   2.276  25.433  0.00  0.00    +0.216 C 
ATOM     29  H   UNL     1      -3.456   1.718  24.444  0.00  0.00    +0.149 HD
BRANCH  21  17
ATOM     17  C   UNL     1      -4.931   3.681  24.979  0.00  0.00    +0.075 C 
ATOM     19  C   UNL     1      -4.280   4.504  26.092  0.00  0.00    +0.013 C 
ATOM     20  C   UNL     1      -4.105   3.670  23.691  0.00  0.00    +0.013 C 
ATOM     22  C   UNL     1      -2.798   4.186  26.297  0.00  0.00    +0.001 C 
ATOM     23  C   UNL     1      -2.631   3.343  23.928  0.00  0.00    +0.001 C 
ATOM     24  C   UNL     1      -2.018   4.251  24.988  0.00  0.00    +0.000 C 
ENDBRANCH  21  17
ENDBRANCH  13   4
ENDBRANCH   7  13
BRANCH   9  14
ATOM     14  C   UNL     1       0.033   0.534  23.150  0.00  0.00    +0.103 C 
BRANCH  14  25
ATOM      2  O   UNL     1       1.260  -0.663  21.443  0.00  0.00    -0.276 OA
ATOM      5  N   UNL     1       2.414   0.656  22.970  0.00  0.00    -0.313 N 
ATOM     25  C   UNL     1       1.275   0.094  22.410  0.00  0.00    +0.214 C 
ATOM     30  H   UNL     1       2.321   1.268  23.775  0.00  0.00    +0.149 HD
BRANCH   5  26
ATOM     26  C   UNL     1       3.745   0.408  22.467  0.00  0.00    +0.132 C 
BRANCH  26  27
ATOM     27  C   UNL     1       4.806   0.803  23.479  0.00  0.00    +0.178 C 
BRANCH  27   3
ATOM      3  O   UNL     1       5.574  -0.341  23.829  0.00  0.00    -0.381 OA
ATOM     28  C   UNL     1       4.764  -1.507  23.914  0.00  0.00    +0.194 C 
ENDBRANCH  27   3
ENDBRANCH  26  27
ENDBRANCH   5  26
ENDBRANCH  14  25
ENDBRANCH   9  14
TORSDOF 9
ENDMDL
MODEL 2
REMARK VINA RESULT:      -4.6      1.342      4.472
REMARK  Name = 38027684
REMARK  13 active torsions:
REMARK  status: ('A' for Active; 'I' for Inactive)
REMARK    1  A    between atoms: O_3  and  C_27
REMARK    2  A    between atoms: O_3  and  C_28
REMARK    3  A    between atoms: N_4  and  C_13
REMARK    4  A    between atoms: N_5  and  C_26
REMARK    5  A    between atoms: C_6  and  C_10
REMARK    6  A    between atoms: C_7  and  C_13
REMARK    7  A    between atoms: C_9  and  C_14
REMARK    8  A    between atoms: C_10  and  C_15
REMARK    9  A    between atoms: C_10  and  C_16
REMARK   10  A    between atoms: C_11  and  C_18
REMARK   11  A    between atoms: C_14  and  C_25
REMARK   12  A    between atoms: C_17  and  C_21
REMARK   13  A    between atoms: C_26  and  C_27
REMARK                            x       y       z     vdW  Elec       q    Type
REMARK                         _______ _______ _______ _____ _____    ______ ____
ROOT
ATOM      6  C   UNL     1      -2.101   2.995  24.980  0.00  0.00    +0.000 C 
ATOM      7  C   UNL     1      -3.408   2.877  24.157  0.00  0.00    +0.032 C 
ATOM      8  C   UNL     1      -0.901   3.227  24.050  0.00  0.00    +0.012 C 
ATOM      9  C   UNL     1      -0.730   2.091  23.023  0.00  0.00    +0.023 C 
ATOM     11  C   UNL     1      -2.043   1.732  22.357  0.00  0.00    -0.073 C 
ATOM     12  C   UNL     1      -3.230   2.104  22.871  0.00  0.00    -0.022 C 
ATOM     18  C   UNL     1      -1.961   0.977  21.061  0.00  0.00    +0.039 C 
ENDROOT
BRANCH   6  10
ATOM     10  C   UNL     1      -2.180   4.121  26.015  0.00  0.00    -0.013 C 
ATOM     15  C   UNL     1      -1.771   5.450  25.389  0.00  0.00    +0.007 C 
ATOM     16  C   UNL     1      -3.588   4.209  26.597  0.00  0.00    +0.007 C 
ENDBRANCH   6  10
BRANCH   7  13
ATOM     13  C   UNL     1      -4.528   2.238  24.985  0.00  0.00    +0.112 C 
BRANCH  13   4
ATOM      1  O   UNL     1      -4.716  -0.463  23.936  0.00  0.00    -0.276 OA
ATOM      4  N   UNL     1      -4.076   1.033  25.605  0.00  0.00    -0.315 N 
ATOM     21  C   UNL     1      -4.206  -0.229  25.029  0.00  0.00    +0.216 C 
ATOM     29  H   UNL     1      -3.541   1.124  26.464  0.00  0.00    +0.149 HD
BRANCH  21  17
ATOM     17  C   UNL     1      -3.626  -1.320  25.881  0.00  0.00    +0.075 C 
ATOM     19  C   UNL     1      -3.460  -2.614  25.082  0.00  0.00    +0.013 C 
ATOM     20  C   UNL     1      -2.318  -0.848  26.521  0.00  0.00    +0.013 C 
ATOM     22  C   UNL     1      -2.265  -2.592  24.130  0.00  0.00    +0.001 C 
ATOM     23  C   UNL     1      -1.145  -0.832  25.543  0.00  0.00    +0.001 C 
ATOM     24  C   UNL     1      -0.981  -2.175  24.839  0.00  0.00    +0.000 C 
ENDBRANCH  21  17
ENDBRANCH  13   4
ENDBRANCH   7  13
BRANCH   9  14
ATOM     14  C   UNL     1      -0.087   0.857  23.666  0.00  0.00    +0.103 C 
BRANCH  14  25
ATOM      2  O   UNL     1       0.839  -0.576  21.951  0.00  0.00    -0.276 OA
ATOM      5  N   UNL     1       2.244   0.851  23.132  0.00  0.00    -0.313 N 
ATOM     25  C   UNL     1       1.019   0.282  22.810  0.00  0.00    +0.214 C 
ATOM     30  H   UNL     1       2.289   1.552  23.864  0.00  0.00    +0.149 HD
BRANCH   5  26
ATOM     26  C   UNL     1       3.478   0.488  22.475  0.00  0.00    +0.132 C 
BRANCH  26  27
ATOM     27  C   UNL     1       4.687   0.864  23.313  0.00  0.00    +0.178 C 
BRANCH  27   3
ATOM      3  O   UNL     1       5.511  -0.280  23.492  0.00  0.00    -0.381 OA
ATOM     28  C   UNL     1       4.753  -1.409  23.906  0.00  0.00    +0.194 C 
ENDBRANCH  27   3
ENDBRANCH  26  27
ENDBRANCH   5  26
ENDBRANCH  14  25
ENDBRANCH   9  14
TORSDOF 9
ENDMDL
MODEL 3
REMARK VINA RESULT:      -4.1      1.818      6.449
REMARK  Name = 38027684
REMARK  13 active torsions:
REMARK  status: ('A' for Active; 'I' for Inactive)
REMARK    1  A    between atoms: O_3  and  C_27
REMARK    2  A    between atoms: O_3  and  C_28
REMARK    3  A    between atoms: N_4  and  C_13
REMARK    4  A    between atoms: N_5  and  C_26
REMARK    5  A    between atoms: C_6  and  C_10
REMARK    6  A    between atoms: C_7  and  C_13
REMARK    7  A    between atoms: C_9  and  C_14
REMARK    8  A    between atoms: C_10  and  C_15
REMARK    9  A    between atoms: C_10  and  C_16
REMARK   10  A    between atoms: C_11  and  C_18
REMARK   11  A    between atoms: C_14  and  C_25
REMARK   12  A    between atoms: C_17  and  C_21
REMARK   13  A    between atoms: C_26  and  C_27
REMARK                            x       y       z     vdW  Elec       q    Type
REMARK                         _______ _______ _______ _____ _____    ______ ____
ROOT
ATOM      6  C   UNL     1      -2.877  -0.775  24.801  0.00  0.00    +0.000 C 
ATOM      7  C   UNL     1      -1.789  -0.177  23.873  0.00  0.00    +0.032 C 
ATOM      8  C   UNL     1      -4.278  -0.455  24.260  0.00  0.00    +0.012 C 
ATOM      9  C   UNL     1      -4.523   1.061  24.134  0.00  0.00    +0.023 C 
ATOM     11  C   UNL     1      -3.361   1.765  23.462  0.00  0.00    -0.073 C 
ATOM     12  C   UNL     1      -2.151   1.190  23.342  0.00  0.00    -0.022 C 
ATOM     18  C   UNL     1      -3.635   3.127  22.889  0.00  0.00    +0.039 C 
ENDROOT
BRANCH   6  10
ATOM     10  C   UNL     1      -2.716  -2.289  24.964  0.00  0.00    -0.013 C 
ATOM     15  C   UNL     1      -3.901  -3.020  24.339  0.00  0.00    +0.007 C 
ATOM     16  C   UNL     1      -1.404  -2.754  24.340  0.00  0.00    +0.007 C 
ENDBRANCH   6  10
BRANCH   7  13
ATOM     13  C   UNL     1      -0.433  -0.108  24.582  0.00  0.00    +0.112 C 
BRANCH  13   4
ATOM      1  O   UNL     1       1.701   1.721  23.848  0.00  0.00    -0.276 OA
ATOM      4  N   UNL     1       0.634  -0.344  23.660  0.00  0.00    -0.315 N 
ATOM     21  C   UNL     1       1.622   0.594  23.364  0.00  0.00    +0.216 C 
ATOM     29  H   UNL     1       0.726  -1.283  23.285  0.00  0.00    +0.149 HD
BRANCH  21  17
ATOM     17  C   UNL     1       2.635   0.081  22.383  0.00  0.00    +0.075 C 
ATOM     19  C   UNL     1       3.819   1.042  22.261  0.00  0.00    +0.013 C 
ATOM     20  C   UNL     1       3.061  -1.339  22.761  0.00  0.00    +0.013 C 
ATOM     22  C   UNL     1       4.786   0.968  23.442  0.00  0.00    +0.001 C 
ATOM     23  C   UNL     1       4.023  -1.380  23.948  0.00  0.00    +0.001 C 
ATOM     24  C   UNL     1       5.223  -0.464  23.730  0.00  0.00    +0.000 C 
ENDBRANCH  21  17
ENDBRANCH  13   4
ENDBRANCH   7  13
BRANCH   9  14
ATOM     14  C   UNL     1      -4.827   1.687  25.500  0.00  0.00    +0.103 C 
BRANCH  14  25
ATOM      2  O   UNL     1      -5.288   4.052  25.281  0.00  0.00    -0.276 OA
ATOM      5  N   UNL     1      -3.158   3.353  25.898  0.00  0.00    -0.313 N 
ATOM     25  C   UNL     1      -4.485   3.159  25.539  0.00  0.00    +0.214 C 
ATOM     30  H   UNL     1      -2.572   2.545  26.088  0.00  0.00    +0.149 HD
BRANCH   5  26
ATOM     26  C   UNL     1      -2.555   4.660  26.013  0.00  0.00    +0.132 C 
BRANCH  26  27
ATOM     27  C   UNL     1      -1.240   4.735  25.258  0.00  0.00    +0.178 C 
BRANCH  27   3
ATOM      3  O   UNL     1      -0.729   3.422  25.068  0.00  0.00    -0.381 OA
ATOM     28  C   UNL     1      -0.037   2.960  26.220  0.00  0.00    +0.194 C 
ENDBRANCH  27   3
ENDBRANCH  26  27
ENDBRANCH   5  26
ENDBRANCH  14  25
ENDBRANCH   9  14
TORSDOF 9
ENDMDL
MODEL 4
REMARK VINA RESULT:      -3.1      3.070      5.459
REMARK  Name = 38027684
REMARK  13 active torsions:
REMARK  status: ('A' for Active; 'I' for Inactive)
REMARK    1  A    between atoms: O_3  and  C_27
REMARK    2  A    between atoms: O_3  and  C_28
REMARK    3  A    between atoms: N_4  and  C_13
REMARK    4  A    between atoms: N_5  and  C_26
REMARK    5  A    between atoms: C_6  and  C_10
REMARK    6  A    between atoms: C_7  and  C_13
REMARK    7  A    between atoms: C_9  and  C_14
REMARK    8  A    between atoms: C_10  and  C_15
REMARK    9  A    between atoms: C_10  and  C_16
REMARK   10  A    between atoms: C_11  and  C_18
REMARK   11  A    between atoms: C_14  and  C_25
REMARK   12  A    between atoms: C_17  and  C_21
REMARK   13  A    between atoms: C_26  and  C_27
REMARK                            x       y       z     vdW  Elec       q    Type
REMARK                         _______ _______ _______ _____ _____    ______ ____
ROOT
ATOM      6  C   UNL     1      -3.697   2.747  25.294  0.00  0.00    +0.000 C 
ATOM      7  C   UNL     1      -4.606   1.965  24.313  0.00  0.00    +0.032 C 
ATOM      8  C   UNL     1      -2.721   3.646  24.521  0.00  0.00    +0.012 C 
ATOM      9  C   UNL     1      -1.824   2.843  23.560  0.00  0.00    +0.023 C 
ATOM     11  C   UNL     1      -2.624   1.850  22.740  0.00  0.00    -0.073 C 
ATOM     12  C   UNL     1      -3.871   1.481  23.085  0.00  0.00    -0.022 C 
ATOM     18  C   UNL     1      -1.977   1.328  21.489  0.00  0.00    +0.039 C 
ENDROOT
BRANCH   6  10
ATOM     10  C   UNL     1      -4.514   3.591  26.276  0.00  0.00    -0.013 C 
ATOM     15  C   UNL     1      -3.624   4.626  26.957  0.00  0.00    +0.007 C 
ATOM     16  C   UNL     1      -5.676   4.268  25.556  0.00  0.00    +0.007 C 
ENDBRANCH   6  10
BRANCH   7  13
ATOM     13  C   UNL     1      -5.278   0.776  25.007  0.00  0.00    +0.112 C 
BRANCH  13   4
ATOM      1  O   UNL     1      -4.700  -1.770  23.735  0.00  0.00    -0.276 OA
ATOM      4  N   UNL     1      -4.306  -0.193  25.407  0.00  0.00    -0.315 N 
ATOM     21  C   UNL     1      -4.093  -1.396  24.736  0.00  0.00    +0.216 C 
ATOM     29  H   UNL     1      -3.674   0.064  26.159  0.00  0.00    +0.149 HD
BRANCH  21  17
ATOM     17  C   UNL     1      -2.998  -2.218  25.351  0.00  0.00    +0.075 C 
ATOM     19  C   UNL     1      -2.036  -2.741  24.282  0.00  0.00    +0.013 C 
ATOM     20  C   UNL     1      -2.288  -1.416  26.444  0.00  0.00    +0.013 C 
ATOM     22  C   UNL     1      -1.072  -1.676  23.757  0.00  0.00    +0.001 C 
ATOM     23  C   UNL     1      -1.337  -0.357  25.888  0.00  0.00    +0.001 C 
ATOM     24  C   UNL     1      -0.351  -0.955  24.891  0.00  0.00    +0.000 C 
ENDBRANCH  21  17
ENDBRANCH  13   4
ENDBRANCH   7  13
BRANCH   9  14
ATOM     14  C   UNL     1      -0.692   2.141  24.317  0.00  0.00    +0.103 C 
BRANCH  14  25
ATOM      2  O   UNL     1      -0.108   4.260  25.329  0.00  0.00    -0.276 OA
ATOM      5  N   UNL     1       0.528   2.281  26.369  0.00  0.00    -0.313 N 
ATOM     25  C   UNL     1      -0.074   3.033  25.370  0.00  0.00    +0.214 C 
ATOM     30  H   UNL     1       0.505   1.267  26.310  0.00  0.00    +0.149 HD
BRANCH   5  26
ATOM     26  C   UNL     1       1.200   2.870  27.504  0.00  0.00    +0.132 C 
BRANCH  26  27
ATOM     27  C   UNL     1       0.773   2.216  28.806  0.00  0.00    +0.178 C 
BRANCH  27   3
ATOM      3  O   UNL     1       1.841   2.287  29.742  0.00  0.00    -0.381 OA
ATOM     28  C   UNL     1       2.953   2.996  29.210  0.00  0.00    +0.194 C 
ENDBRANCH  27   3
ENDBRANCH  26  27
ENDBRANCH   5  26
ENDBRANCH  14  25
ENDBRANCH   9  14
TORSDOF 9
ENDMDL
MODEL 5
REMARK VINA RESULT:      -3.1      1.592      3.125
REMARK  Name = 38027684
REMARK  13 active torsions:
REMARK  status: ('A' for Active; 'I' for Inactive)
REMARK    1  A    between atoms: O_3  and  C_27
REMARK    2  A    between atoms: O_3  and  C_28
REMARK    3  A    between atoms: N_4  and  C_13
REMARK    4  A    between atoms: N_5  and  C_26
REMARK    5  A    between atoms: C_6  and  C_10
REMARK    6  A    between atoms: C_7  and  C_13
REMARK    7  A    between atoms: C_9  and  C_14
REMARK    8  A    between atoms: C_10  and  C_15
REMARK    9  A    between atoms: C_10  and  C_16
REMARK   10  A    between atoms: C_11  and  C_18
REMARK   11  A    between atoms: C_14  and  C_25
REMARK   12  A    between atoms: C_17  and  C_21
REMARK   13  A    between atoms: C_26  and  C_27
REMARK                            x       y       z     vdW  Elec       q    Type
REMARK                         _______ _______ _______ _____ _____    ______ ____
ROOT
ATOM      6  C   UNL     1      -3.157   1.068  23.530  0.00  0.00    +0.000 C 
ATOM      7  C   UNL     1      -4.441   0.462  24.151  0.00  0.00    +0.032 C 
ATOM      8  C   UNL     1      -2.229  -0.047  23.024  0.00  0.00    +0.012 C 
ATOM      9  C   UNL     1      -1.817  -1.018  24.147  0.00  0.00    +0.023 C 
ATOM     11  C   UNL     1      -3.006  -1.453  24.979  0.00  0.00    -0.073 C 
ATOM     12  C   UNL     1      -4.175  -0.787  24.958  0.00  0.00    -0.022 C 
ATOM     18  C   UNL     1      -2.837  -2.699  25.802  0.00  0.00    +0.039 C 
ENDROOT
BRANCH   6  10
ATOM     10  C   UNL     1      -3.480   2.034  22.386  0.00  0.00    -0.013 C 
ATOM     15  C   UNL     1      -3.628   3.456  22.917  0.00  0.00    +0.007 C 
ATOM     16  C   UNL     1      -2.398   1.967  21.313  0.00  0.00    +0.007 C 
ENDBRANCH   6  10
BRANCH   7  13
ATOM     13  C   UNL     1      -5.170   1.488  25.025  0.00  0.00    +0.112 C 
BRANCH  13   4
ATOM      1  O   UNL     1      -5.294   4.363  25.419  0.00  0.00    -0.276 OA
ATOM      4  N   UNL     1      -4.236   2.309  25.730  0.00  0.00    -0.315 N 
ATOM     21  C   UNL     1      -4.373   3.689  25.872  0.00  0.00    +0.216 C 
ATOM     29  H   UNL     1      -3.493   1.838  26.237  0.00  0.00    +0.149 HD
BRANCH  21  17
ATOM     17  C   UNL     1      -3.265   4.302  26.679  0.00  0.00    +0.075 C 
ATOM     19  C   UNL     1      -2.063   3.360  26.768  0.00  0.00    +0.013 C 
ATOM     20  C   UNL     1      -2.900   5.676  26.113  0.00  0.00    +0.013 C 
ATOM     22  C   UNL     1      -1.231   3.312  25.486  0.00  0.00    +0.001 C 
ATOM     23  C   UNL     1      -2.074   5.595  24.830  0.00  0.00    +0.001 C 
ATOM     24  C   UNL     1      -0.846   4.708  25.008  0.00  0.00    +0.000 C 
ENDBRANCH  21  17
ENDBRANCH  13   4
ENDBRANCH   7  13
BRANCH   9  14
ATOM     14  C   UNL     1      -0.723  -0.408  25.030  0.00  0.00    +0.103 C 
BRANCH  14  25
ATOM      2  O   UNL     1       0.492   1.569  24.347  0.00  0.00    -0.276 OA
ATOM      5  N   UNL     1       0.961  -0.470  23.334  0.00  0.00    -0.313 N 
ATOM     25  C   UNL     1       0.295   0.363  24.223  0.00  0.00    +0.214 C 
ATOM     30  H   UNL     1       0.722  -1.456  23.304  0.00  0.00    +0.149 HD
BRANCH   5  26
ATOM     26  C   UNL     1       1.988  -0.002  22.433  0.00  0.00    +0.132 C 
BRANCH  26  27
ATOM     27  C   UNL     1       3.374  -0.381  22.922  0.00  0.00    +0.178 C 
BRANCH  27   3
ATOM      3  O   UNL     1       4.117   0.799  23.197  0.00  0.00    -0.381 OA
ATOM     28  C   UNL     1       5.414   0.494  23.693  0.00  0.00    +0.194 C 
ENDBRANCH  27   3
ENDBRANCH  26  27
ENDBRANCH   5  26
ENDBRANCH  14  25
ENDBRANCH   9  14
TORSDOF 9
ENDMDL
