MODEL 1
REMARK VINA RESULT:      -2.1      0.000      0.000
REMARK  Name = 71692987
REMARK  11 active torsions:
REMARK  status: ('A' for Active; 'I' for Inactive)
REMARK    1  A    between atoms: N_1  and  C_11
REMARK    2  A    between atoms: N_1  and  C_17
REMARK    3  A    between atoms: N_1  and  C_18
REMARK    4  A    between atoms: C_4  and  C_8
REMARK    5  A    between atoms: C_5  and  C_11
REMARK    6  A    between atoms: C_7  and  C_12
REMARK    7  A    between atoms: C_8  and  C_13
REMARK    8  A    between atoms: C_8  and  C_14
REMARK    9  A    between atoms: C_9  and  C_15
REMARK   10  A    between atoms: C_12  and  C_16
REMARK   11  A    between atoms: C_21  and  C_25
REMARK                            x       y       z     vdW  Elec       q    Type
REMARK                         _______ _______ _______ _____ _____    ______ ____
ROOT
ATOM      4  C   UNL     1       0.822  -0.085  23.195  0.00  0.00    +0.000 C 
ATOM      5  C   UNL     1       0.085  -0.776  24.367  0.00  0.00    +0.029 C 
ATOM      6  C   UNL     1       0.251   1.319  22.955  0.00  0.00    +0.012 C 
ATOM      7  C   UNL     1       0.308   2.226  24.203  0.00  0.00    +0.022 C 
ATOM      9  C   UNL     1      -0.021   1.486  25.491  0.00  0.00    -0.073 C 
ATOM     10  C   UNL     1      -0.127   0.146  25.541  0.00  0.00    -0.023 C 
ATOM     15  C   UNL     1      -0.169   2.305  26.744  0.00  0.00    +0.039 C 
ENDROOT
BRANCH   4   8
ATOM      8  C   UNL     1       2.336  -0.033  23.440  0.00  0.00    -0.013 C 
ATOM     13  C   UNL     1       2.903  -1.444  23.566  0.00  0.00    +0.007 C 
ATOM     14  C   UNL     1       3.031   0.730  22.317  0.00  0.00    +0.007 C 
ENDBRANCH   4   8
BRANCH   5  11
ATOM     11  C   UNL     1      -1.265  -1.350  23.925  0.00  0.00    +0.091 C 
BRANCH  11   1
ATOM      1  N   UNL     1      -1.874  -2.113  25.000  0.00  0.00    -0.308 NA
ATOM     17  C   UNL     1      -2.846  -3.075  24.469  0.00  0.00    +0.104 C 
ATOM     18  C   UNL     1      -2.524  -1.224  25.967  0.00  0.00    +0.104 C 
ENDBRANCH  11   1
ENDBRANCH   5  11
BRANCH   7  12
ATOM     12  C   UNL     1      -0.595   3.442  23.967  0.00  0.00    +0.082 C 
BRANCH  12  16
ATOM      2  N   UNL     1      -2.823   4.105  24.891  0.00  0.00    -0.342 N 
ATOM      3  N   UNL     1      -2.651   2.005  24.184  0.00  0.00    -0.232 NA
ATOM     16  C   UNL     1      -2.020   3.148  24.336  0.00  0.00    +0.109 A 
ATOM     19  C   UNL     1      -4.054   3.542  25.113  0.00  0.00    +0.066 A 
ATOM     20  C   UNL     1      -3.921   2.231  24.664  0.00  0.00    +0.092 A 
ATOM     21  C   UNL     1      -5.022   1.363  24.750  0.00  0.00    -0.023 A 
ATOM     22  C   UNL     1      -5.236   4.052  25.652  0.00  0.00    +0.028 A 
ATOM     23  C   UNL     1      -6.219   1.853  25.288  0.00  0.00    +0.005 A 
ATOM     24  C   UNL     1      -6.322   3.175  25.730  0.00  0.00    +0.002 A 
ATOM     25  C   UNL     1      -4.963  -0.057  24.291  0.00  0.00    +0.046 C 
ATOM     26  H   UNL     1      -2.561   5.059  25.101  0.00  0.00    +0.167 HD
ENDBRANCH  12  16
ENDBRANCH   7  12
TORSDOF 5
ENDMDL
MODEL 2
REMARK VINA RESULT:      -1.8      1.891      5.497
REMARK  Name = 71692987
REMARK  11 active torsions:
REMARK  status: ('A' for Active; 'I' for Inactive)
REMARK    1  A    between atoms: N_1  and  C_11
REMARK    2  A    between atoms: N_1  and  C_17
REMARK    3  A    between atoms: N_1  and  C_18
REMARK    4  A    between atoms: C_4  and  C_8
REMARK    5  A    between atoms: C_5  and  C_11
REMARK    6  A    between atoms: C_7  and  C_12
REMARK    7  A    between atoms: C_8  and  C_13
REMARK    8  A    between atoms: C_8  and  C_14
REMARK    9  A    between atoms: C_9  and  C_15
REMARK   10  A    between atoms: C_12  and  C_16
REMARK   11  A    between atoms: C_21  and  C_25
REMARK                            x       y       z     vdW  Elec       q    Type
REMARK                         _______ _______ _______ _____ _____    ______ ____
ROOT
ATOM      4  C   UNL     1      -2.130   4.477  25.765  0.00  0.00    +0.000 C 
ATOM      5  C   UNL     1      -3.430   3.896  25.162  0.00  0.00    +0.029 C 
ATOM      6  C   UNL     1      -0.991   3.452  25.675  0.00  0.00    +0.012 C 
ATOM      7  C   UNL     1      -0.717   2.966  24.235  0.00  0.00    +0.022 C 
ATOM      9  C   UNL     1      -1.988   2.758  23.425  0.00  0.00    -0.073 C 
ATOM     10  C   UNL     1      -3.192   3.171  23.862  0.00  0.00    -0.023 C 
ATOM     15  C   UNL     1      -1.852   2.118  22.071  0.00  0.00    +0.039 C 
ENDROOT
BRANCH   4   8
ATOM      8  C   UNL     1      -1.741   5.798  25.089  0.00  0.00    -0.013 C 
ATOM     13  C   UNL     1      -0.331   5.705  24.511  0.00  0.00    +0.007 C 
ATOM     14  C   UNL     1      -2.748   6.156  24.001  0.00  0.00    +0.007 C 
ENDBRANCH   4   8
BRANCH   5  11
ATOM     11  C   UNL     1      -4.138   2.956  26.143  0.00  0.00    +0.091 C 
BRANCH  11   1
ATOM      1  N   UNL     1      -5.579   3.080  26.024  0.00  0.00    -0.308 NA
ATOM     17  C   UNL     1      -6.125   2.019  25.172  0.00  0.00    +0.104 C 
ATOM     18  C   UNL     1      -5.947   4.394  25.488  0.00  0.00    +0.104 C 
ENDBRANCH  11   1
ENDBRANCH   5  11
BRANCH   7  12
ATOM     12  C   UNL     1       0.160   1.710  24.300  0.00  0.00    +0.082 C 
BRANCH  12  16
ATOM      2  N   UNL     1      -0.329  -0.696  23.819  0.00  0.00    -0.342 N 
ATOM      3  N   UNL     1      -1.765   0.336  25.166  0.00  0.00    -0.232 NA
ATOM     16  C   UNL     1      -0.670   0.467  24.451  0.00  0.00    +0.109 A 
ATOM     19  C   UNL     1      -1.267  -1.641  24.147  0.00  0.00    +0.066 A 
ATOM     20  C   UNL     1      -2.153  -0.972  24.988  0.00  0.00    +0.092 A 
ATOM     21  C   UNL     1      -3.254  -1.667  25.515  0.00  0.00    -0.023 A 
ATOM     22  C   UNL     1      -1.412  -2.982  23.791  0.00  0.00    +0.028 A 
ATOM     23  C   UNL     1      -3.420  -3.015  25.171  0.00  0.00    +0.005 A 
ATOM     24  C   UNL     1      -2.514  -3.659  24.324  0.00  0.00    +0.002 A 
ATOM     25  C   UNL     1      -4.249  -1.024  26.424  0.00  0.00    +0.046 C 
ATOM     26  H   UNL     1       0.471  -0.838  23.218  0.00  0.00    +0.167 HD
ENDBRANCH  12  16
ENDBRANCH   7  12
TORSDOF 5
ENDMDL
MODEL 3
REMARK VINA RESULT:      -1.7      0.753      1.767
REMARK  Name = 71692987
REMARK  11 active torsions:
REMARK  status: ('A' for Active; 'I' for Inactive)
REMARK    1  A    between atoms: N_1  and  C_11
REMARK    2  A    between atoms: N_1  and  C_17
REMARK    3  A    between atoms: N_1  and  C_18
REMARK    4  A    between atoms: C_4  and  C_8
REMARK    5  A    between atoms: C_5  and  C_11
REMARK    6  A    between atoms: C_7  and  C_12
REMARK    7  A    between atoms: C_8  and  C_13
REMARK    8  A    between atoms: C_8  and  C_14
REMARK    9  A    between atoms: C_9  and  C_15
REMARK   10  A    between atoms: C_12  and  C_16
REMARK   11  A    between atoms: C_21  and  C_25
REMARK                            x       y       z     vdW  Elec       q    Type
REMARK                         _______ _______ _______ _____ _____    ______ ____
ROOT
ATOM      4  C   UNL     1       0.087   0.134  23.126  0.00  0.00    +0.000 C 
ATOM      5  C   UNL     1      -0.466  -0.633  24.350  0.00  0.00    +0.029 C 
ATOM      6  C   UNL     1      -0.402   1.589  23.137  0.00  0.00    +0.012 C 
ATOM      7  C   UNL     1      -0.033   2.350  24.429  0.00  0.00    +0.022 C 
ATOM      9  C   UNL     1      -0.168   1.496  25.681  0.00  0.00    -0.073 C 
ATOM     10  C   UNL     1      -0.373   0.167  25.624  0.00  0.00    -0.023 C 
ATOM     15  C   UNL     1      -0.007   2.182  27.010  0.00  0.00    +0.039 C 
ENDROOT
BRANCH   4   8
ATOM      8  C   UNL     1       1.619   0.065  23.068  0.00  0.00    -0.013 C 
ATOM     13  C   UNL     1       2.075  -0.549  21.747  0.00  0.00    +0.007 C 
ATOM     14  C   UNL     1       2.222   1.454  23.255  0.00  0.00    +0.007 C 
ENDBRANCH   4   8
BRANCH   5  11
ATOM     11  C   UNL     1      -1.918  -1.071  24.134  0.00  0.00    +0.091 C 
BRANCH  11   1
ATOM      1  N   UNL     1      -2.327  -2.016  25.157  0.00  0.00    -0.308 NA
ATOM     17  C   UNL     1      -3.018  -3.163  24.560  0.00  0.00    +0.104 C 
ATOM     18  C   UNL     1      -3.191  -1.369  26.149  0.00  0.00    +0.104 C 
ENDBRANCH  11   1
ENDBRANCH   5  11
BRANCH   7  12
ATOM     12  C   UNL     1      -0.861   3.638  24.493  0.00  0.00    +0.082 C 
BRANCH  12  16
ATOM      2  N   UNL     1      -2.807   2.071  24.628  0.00  0.00    -0.342 N 
ATOM      3  N   UNL     1      -3.258   4.214  25.010  0.00  0.00    -0.232 NA
ATOM     16  C   UNL     1      -2.317   3.344  24.717  0.00  0.00    +0.109 A 
ATOM     19  C   UNL     1      -4.154   2.122  24.880  0.00  0.00    +0.066 A 
ATOM     20  C   UNL     1      -4.411   3.471  25.115  0.00  0.00    +0.092 A 
ATOM     21  C   UNL     1      -5.723   3.876  25.411  0.00  0.00    -0.023 A 
ATOM     22  C   UNL     1      -5.140   1.135  24.922  0.00  0.00    +0.028 A 
ATOM     23  C   UNL     1      -6.729   2.902  25.458  0.00  0.00    +0.005 A 
ATOM     24  C   UNL     1      -6.440   1.556  25.217  0.00  0.00    +0.002 A 
ATOM     25  C   UNL     1      -6.083   5.301  25.675  0.00  0.00    +0.046 C 
ATOM     26  H   UNL     1      -2.275   1.238  24.416  0.00  0.00    +0.167 HD
ENDBRANCH  12  16
ENDBRANCH   7  12
TORSDOF 5
ENDMDL
MODEL 4
REMARK VINA RESULT:      -1.5      1.914      4.823
REMARK  Name = 71692987
REMARK  11 active torsions:
REMARK  status: ('A' for Active; 'I' for Inactive)
REMARK    1  A    between atoms: N_1  and  C_11
REMARK    2  A    between atoms: N_1  and  C_17
REMARK    3  A    between atoms: N_1  and  C_18
REMARK    4  A    between atoms: C_4  and  C_8
REMARK    5  A    between atoms: C_5  and  C_11
REMARK    6  A    between atoms: C_7  and  C_12
REMARK    7  A    between atoms: C_8  and  C_13
REMARK    8  A    between atoms: C_8  and  C_14
REMARK    9  A    between atoms: C_9  and  C_15
REMARK   10  A    between atoms: C_12  and  C_16
REMARK   11  A    between atoms: C_21  and  C_25
REMARK                            x       y       z     vdW  Elec       q    Type
REMARK                         _______ _______ _______ _____ _____    ______ ____
ROOT
ATOM      4  C   UNL     1      -3.842  -1.027  24.008  0.00  0.00    +0.000 C 
ATOM      5  C   UNL     1      -4.104  -0.717  25.500  0.00  0.00    +0.029 C 
ATOM      6  C   UNL     1      -2.495  -0.439  23.566  0.00  0.00    +0.012 C 
ATOM      7  C   UNL     1      -1.302  -0.935  24.412  0.00  0.00    +0.022 C 
ATOM      9  C   UNL     1      -1.629  -1.047  25.893  0.00  0.00    -0.073 C 
ATOM     10  C   UNL     1      -2.886  -0.935  26.360  0.00  0.00    -0.023 C 
ATOM     15  C   UNL     1      -0.495  -1.350  26.834  0.00  0.00    +0.039 C 
ENDROOT
BRANCH   4   8
ATOM      8  C   UNL     1      -3.905  -2.536  23.731  0.00  0.00    -0.013 C 
ATOM     13  C   UNL     1      -3.591  -3.323  24.999  0.00  0.00    +0.007 C 
ATOM     14  C   UNL     1      -5.276  -2.919  23.182  0.00  0.00    +0.007 C 
ENDBRANCH   4   8
BRANCH   5  11
ATOM     11  C   UNL     1      -4.613   0.714  25.699  0.00  0.00    +0.091 C 
BRANCH  11   1
ATOM      1  N   UNL     1      -5.289   1.189  24.505  0.00  0.00    -0.308 NA
ATOM     17  C   UNL     1      -4.541   2.286  23.884  0.00  0.00    +0.104 C 
ATOM     18  C   UNL     1      -6.654   1.626  24.818  0.00  0.00    +0.104 C 
ENDBRANCH  11   1
ENDBRANCH   5  11
BRANCH   7  12
ATOM     12  C   UNL     1      -0.095  -0.032  24.134  0.00  0.00    +0.082 C 
BRANCH  12  16
ATOM      2  N   UNL     1       0.272   2.411  23.743  0.00  0.00    -0.342 N 
ATOM      3  N   UNL     1      -1.373   1.889  25.143  0.00  0.00    -0.232 NA
ATOM     16  C   UNL     1      -0.427   1.414  24.364  0.00  0.00    +0.109 A 
ATOM     19  C   UNL     1      -0.258   3.609  24.148  0.00  0.00    +0.066 A 
ATOM     20  C   UNL     1      -1.283   3.257  25.022  0.00  0.00    +0.092 A 
ATOM     21  C   UNL     1      -2.045   4.269  25.627  0.00  0.00    -0.023 A 
ATOM     22  C   UNL     1       0.062   4.931  23.834  0.00  0.00    +0.028 A 
ATOM     23  C   UNL     1      -1.742   5.604  25.327  0.00  0.00    +0.005 A 
ATOM     24  C   UNL     1      -0.707   5.927  24.446  0.00  0.00    +0.002 A 
ATOM     25  C   UNL     1      -3.161   3.976  26.575  0.00  0.00    +0.046 C 
ATOM     26  H   UNL     1       1.042   2.291  23.098  0.00  0.00    +0.167 HD
ENDBRANCH  12  16
ENDBRANCH   7  12
TORSDOF 5
ENDMDL
MODEL 5
REMARK VINA RESULT:      -1.3      1.906      6.785
REMARK  Name = 71692987
REMARK  11 active torsions:
REMARK  status: ('A' for Active; 'I' for Inactive)
REMARK    1  A    between atoms: N_1  and  C_11
REMARK    2  A    between atoms: N_1  and  C_17
REMARK    3  A    between atoms: N_1  and  C_18
REMARK    4  A    between atoms: C_4  and  C_8
REMARK    5  A    between atoms: C_5  and  C_11
REMARK    6  A    between atoms: C_7  and  C_12
REMARK    7  A    between atoms: C_8  and  C_13
REMARK    8  A    between atoms: C_8  and  C_14
REMARK    9  A    between atoms: C_9  and  C_15
REMARK   10  A    between atoms: C_12  and  C_16
REMARK   11  A    between atoms: C_21  and  C_25
REMARK                            x       y       z     vdW  Elec       q    Type
REMARK                         _______ _______ _______ _____ _____    ______ ____
ROOT
ATOM      4  C   UNL     1      -2.167   3.391  25.730  0.00  0.00    +0.000 C 
ATOM      5  C   UNL     1      -3.550   3.498  25.044  0.00  0.00    +0.029 C 
ATOM      6  C   UNL     1      -1.477   2.076  25.344  0.00  0.00    +0.012 C 
ATOM      7  C   UNL     1      -1.311   1.894  23.820  0.00  0.00    +0.022 C 
ATOM      9  C   UNL     1      -2.517   2.376  23.029  0.00  0.00    -0.073 C 
ATOM     10  C   UNL     1      -3.513   3.081  23.597  0.00  0.00    -0.023 C 
ATOM     15  C   UNL     1      -2.540   2.086  21.553  0.00  0.00    +0.039 C 
ENDROOT
BRANCH   4   8
ATOM      8  C   UNL     1      -1.283   4.600  25.395  0.00  0.00    -0.013 C 
ATOM     13  C   UNL     1      -0.235   4.220  24.353  0.00  0.00    +0.007 C 
ATOM     14  C   UNL     1      -2.136   5.765  24.904  0.00  0.00    +0.007 C 
ENDBRANCH   4   8
BRANCH   5  11
ATOM     11  C   UNL     1      -4.611   2.673  25.781  0.00  0.00    +0.091 C 
BRANCH  11   1
ATOM      1  N   UNL     1      -5.161   1.650  24.910  0.00  0.00    -0.308 NA
ATOM     17  C   UNL     1      -6.626   1.655  24.962  0.00  0.00    +0.104 C 
ATOM     18  C   UNL     1      -4.650   0.325  25.275  0.00  0.00    +0.104 C 
ENDBRANCH  11   1
ENDBRANCH   5  11
BRANCH   7  12
ATOM     12  C   UNL     1      -0.957   0.430  23.536  0.00  0.00    +0.082 C 
BRANCH  12  16
ATOM      2  N   UNL     1       1.106  -0.950  23.851  0.00  0.00    -0.342 N 
ATOM      3  N   UNL     1       1.422   1.098  23.046  0.00  0.00    -0.232 NA
ATOM     16  C   UNL     1       0.529   0.227  23.465  0.00  0.00    +0.109 A 
ATOM     19  C   UNL     1       2.460  -0.832  23.672  0.00  0.00    +0.066 A 
ATOM     20  C   UNL     1       2.632   0.455  23.169  0.00  0.00    +0.092 A 
ATOM     21  C   UNL     1       3.928   0.906  22.870  0.00  0.00    -0.023 A 
ATOM     22  C   UNL     1       3.518  -1.714  23.899  0.00  0.00    +0.028 A 
ATOM     23  C   UNL     1       5.005   0.037  23.090  0.00  0.00    +0.005 A 
ATOM     24  C   UNL     1       4.801  -1.250  23.595  0.00  0.00    +0.002 A 
ATOM     25  C   UNL     1       4.199   2.270  22.328  0.00  0.00    +0.046 C 
ATOM     26  H   UNL     1       0.623  -1.765  24.206  0.00  0.00    +0.167 HD
ENDBRANCH  12  16
ENDBRANCH   7  12
TORSDOF 5
ENDMDL
MODEL 6
REMARK VINA RESULT:      -1.3      1.754      4.622
REMARK  Name = 71692987
REMARK  11 active torsions:
REMARK  status: ('A' for Active; 'I' for Inactive)
REMARK    1  A    between atoms: N_1  and  C_11
REMARK    2  A    between atoms: N_1  and  C_17
REMARK    3  A    between atoms: N_1  and  C_18
REMARK    4  A    between atoms: C_4  and  C_8
REMARK    5  A    between atoms: C_5  and  C_11
REMARK    6  A    between atoms: C_7  and  C_12
REMARK    7  A    between atoms: C_8  and  C_13
REMARK    8  A    between atoms: C_8  and  C_14
REMARK    9  A    between atoms: C_9  and  C_15
REMARK   10  A    between atoms: C_12  and  C_16
REMARK   11  A    between atoms: C_21  and  C_25
REMARK                            x       y       z     vdW  Elec       q    Type
REMARK                         _______ _______ _______ _____ _____    ______ ____
ROOT
ATOM      4  C   UNL     1      -0.816   3.468  23.863  0.00  0.00    +0.000 C 
ATOM      5  C   UNL     1      -0.440   3.171  25.334  0.00  0.00    +0.029 C 
ATOM      6  C   UNL     1      -2.227   2.948  23.554  0.00  0.00    +0.012 C 
ATOM      7  C   UNL     1      -3.311   3.527  24.489  0.00  0.00    +0.022 C 
ATOM      9  C   UNL     1      -2.849   3.648  25.933  0.00  0.00    -0.073 C 
ATOM     10  C   UNL     1      -1.563   3.474  26.291  0.00  0.00    -0.023 C 
ATOM     15  C   UNL     1      -3.877   4.032  26.962  0.00  0.00    +0.039 C 
ENDROOT
BRANCH   4   8
ATOM      8  C   UNL     1      -0.695   4.964  23.546  0.00  0.00    -0.013 C 
ATOM     13  C   UNL     1      -0.627   5.778  24.835  0.00  0.00    +0.007 C 
ATOM     14  C   UNL     1       0.530   5.227  22.676  0.00  0.00    +0.007 C 
ENDBRANCH   4   8
BRANCH   5  11
ATOM     11  C   UNL     1       0.005   1.717  25.521  0.00  0.00    +0.091 C 
BRANCH  11   1
ATOM      1  N   UNL     1       0.069   1.031  24.243  0.00  0.00    -0.308 NA
ATOM     17  C   UNL     1      -0.362  -0.364  24.379  0.00  0.00    +0.104 C 
ATOM     18  C   UNL     1       1.425   1.086  23.689  0.00  0.00    +0.104 C 
ENDBRANCH  11   1
ENDBRANCH   5  11
BRANCH   7  12
ATOM     12  C   UNL     1      -4.586   2.689  24.339  0.00  0.00    +0.082 C 
BRANCH  12  16
ATOM      2  N   UNL     1      -4.561   0.329  23.509  0.00  0.00    -0.342 N 
ATOM      3  N   UNL     1      -3.800   0.639  25.574  0.00  0.00    -0.232 NA
ATOM     16  C   UNL     1      -4.303   1.224  24.510  0.00  0.00    +0.109 A 
ATOM     19  C   UNL     1      -4.201  -0.916  23.957  0.00  0.00    +0.066 A 
ATOM     20  C   UNL     1      -3.730  -0.696  25.249  0.00  0.00    +0.092 A 
ATOM     21  C   UNL     1      -3.273  -1.788  26.006  0.00  0.00    -0.023 A 
ATOM     22  C   UNL     1      -4.246  -2.178  23.362  0.00  0.00    +0.028 A 
ATOM     23  C   UNL     1      -3.309  -3.064  25.429  0.00  0.00    +0.005 A 
ATOM     24  C   UNL     1      -3.788  -3.253  24.130  0.00  0.00    +0.002 A 
ATOM     25  C   UNL     1      -2.753  -1.637  27.398  0.00  0.00    +0.046 C 
ATOM     26  H   UNL     1      -4.946   0.543  22.599  0.00  0.00    +0.167 HD
ENDBRANCH  12  16
ENDBRANCH   7  12
TORSDOF 5
ENDMDL
MODEL 7
REMARK VINA RESULT:      -1.2      2.110      6.612
REMARK  Name = 71692987
REMARK  11 active torsions:
REMARK  status: ('A' for Active; 'I' for Inactive)
REMARK    1  A    between atoms: N_1  and  C_11
REMARK    2  A    between atoms: N_1  and  C_17
REMARK    3  A    between atoms: N_1  and  C_18
REMARK    4  A    between atoms: C_4  and  C_8
REMARK    5  A    between atoms: C_5  and  C_11
REMARK    6  A    between atoms: C_7  and  C_12
REMARK    7  A    between atoms: C_8  and  C_13
REMARK    8  A    between atoms: C_8  and  C_14
REMARK    9  A    between atoms: C_9  and  C_15
REMARK   10  A    between atoms: C_12  and  C_16
REMARK   11  A    between atoms: C_21  and  C_25
REMARK                            x       y       z     vdW  Elec       q    Type
REMARK                         _______ _______ _______ _____ _____    ______ ____
ROOT
ATOM      4  C   UNL     1      -2.188   1.757  25.543  0.00  0.00    +0.000 C 
ATOM      5  C   UNL     1      -3.567   1.756  24.841  0.00  0.00    +0.029 C 
ATOM      6  C   UNL     1      -1.212   0.826  24.812  0.00  0.00    +0.012 C 
ATOM      7  C   UNL     1      -1.029   1.180  23.320  0.00  0.00    +0.022 C 
ATOM      9  C   UNL     1      -2.326   1.598  22.644  0.00  0.00    -0.073 C 
ATOM     10  C   UNL     1      -3.452   1.839  23.341  0.00  0.00    -0.023 C 
ATOM     15  C   UNL     1      -2.300   1.794  21.153  0.00  0.00    +0.039 C 
ENDROOT
BRANCH   4   8
ATOM      8  C   UNL     1      -1.620   3.178  25.657  0.00  0.00    -0.013 C 
ATOM     13  C   UNL     1      -2.634   4.105  26.319  0.00  0.00    +0.007 C 
ATOM     14  C   UNL     1      -0.309   3.166  26.437  0.00  0.00    +0.007 C 
ENDBRANCH   4   8
BRANCH   5  11
ATOM     11  C   UNL     1      -4.391   0.521  25.217  0.00  0.00    +0.091 C 
BRANCH  11   1
ATOM      1  N   UNL     1      -3.646  -0.696  24.948  0.00  0.00    -0.308 NA
ATOM     17  C   UNL     1      -4.319  -1.505  23.928  0.00  0.00    +0.104 C 
ATOM     18  C   UNL     1      -3.468  -1.480  26.174  0.00  0.00    +0.104 C 
ENDBRANCH  11   1
ENDBRANCH   5  11
BRANCH   7  12
ATOM     12  C   UNL     1      -0.342   0.003  22.617  0.00  0.00    +0.082 C 
BRANCH  12  16
ATOM      2  N   UNL     1       1.891   1.128  22.688  0.00  0.00    -0.342 N 
ATOM      3  N   UNL     1       1.866  -1.017  23.270  0.00  0.00    -0.232 NA
ATOM     16  C   UNL     1       1.138   0.001  22.868  0.00  0.00    +0.109 A 
ATOM     19  C   UNL     1       3.191   0.816  22.993  0.00  0.00    +0.066 A 
ATOM     20  C   UNL     1       3.149  -0.529  23.353  0.00  0.00    +0.092 A 
ATOM     21  C   UNL     1       4.338  -1.174  23.731  0.00  0.00    -0.023 A 
ATOM     22  C   UNL     1       4.365   1.571  22.986  0.00  0.00    +0.028 A 
ATOM     23  C   UNL     1       5.529  -0.435  23.731  0.00  0.00    +0.005 A 
ATOM     24  C   UNL     1       5.539   0.913  23.364  0.00  0.00    +0.002 A 
ATOM     25  C   UNL     1       4.379  -2.612  24.131  0.00  0.00    +0.046 C 
ATOM     26  H   UNL     1       1.554   2.031  22.385  0.00  0.00    +0.167 HD
ENDBRANCH  12  16
ENDBRANCH   7  12
TORSDOF 5
ENDMDL
MODEL 8
REMARK VINA RESULT:      -0.9      2.086      6.843
REMARK  Name = 71692987
REMARK  11 active torsions:
REMARK  status: ('A' for Active; 'I' for Inactive)
REMARK    1  A    between atoms: N_1  and  C_11
REMARK    2  A    between atoms: N_1  and  C_17
REMARK    3  A    between atoms: N_1  and  C_18
REMARK    4  A    between atoms: C_4  and  C_8
REMARK    5  A    between atoms: C_5  and  C_11
REMARK    6  A    between atoms: C_7  and  C_12
REMARK    7  A    between atoms: C_8  and  C_13
REMARK    8  A    between atoms: C_8  and  C_14
REMARK    9  A    between atoms: C_9  and  C_15
REMARK   10  A    between atoms: C_12  and  C_16
REMARK   11  A    between atoms: C_21  and  C_25
REMARK                            x       y       z     vdW  Elec       q    Type
REMARK                         _______ _______ _______ _____ _____    ______ ____
ROOT
ATOM      4  C   UNL     1      -3.310  -0.213  24.176  0.00  0.00    +0.000 C 
ATOM      5  C   UNL     1      -3.621   1.071  24.980  0.00  0.00    +0.029 C 
ATOM      6  C   UNL     1      -2.157   0.033  23.194  0.00  0.00    +0.012 C 
ATOM      7  C   UNL     1      -0.866   0.536  23.878  0.00  0.00    +0.022 C 
ATOM      9  C   UNL     1      -1.136   1.533  24.995  0.00  0.00    -0.073 C 
ATOM     10  C   UNL     1      -2.375   1.766  25.465  0.00  0.00    -0.023 C 
ATOM     15  C   UNL     1       0.051   2.222  25.612  0.00  0.00    +0.039 C 
ENDROOT
BRANCH   4   8
ATOM      8  C   UNL     1      -3.003  -1.395  25.106  0.00  0.00    -0.013 C 
ATOM     13  C   UNL     1      -3.615  -1.160  26.484  0.00  0.00    +0.007 C 
ATOM     14  C   UNL     1      -3.518  -2.697  24.501  0.00  0.00    +0.007 C 
ENDBRANCH   4   8
BRANCH   5  11
ATOM     11  C   UNL     1      -4.464   2.057  24.166  0.00  0.00    +0.091 C 
BRANCH  11   1
ATOM      1  N   UNL     1      -5.571   2.563  24.959  0.00  0.00    -0.308 NA
ATOM     17  C   UNL     1      -5.176   3.770  25.693  0.00  0.00    +0.104 C 
ATOM     18  C   UNL     1      -6.052   1.542  25.894  0.00  0.00    +0.104 C 
ENDBRANCH  11   1
ENDBRANCH   5  11
BRANCH   7  12
ATOM     12  C   UNL     1       0.076   1.087  22.802  0.00  0.00    +0.082 C 
BRANCH  12  16
ATOM      2  N   UNL     1       2.531   1.552  22.933  0.00  0.00    -0.342 N 
ATOM      3  N   UNL     1       1.913  -0.535  23.385  0.00  0.00    -0.232 NA
ATOM     16  C   UNL     1       1.496   0.665  23.047  0.00  0.00    +0.109 A 
ATOM     19  C   UNL     1       3.692   0.879  23.215  0.00  0.00    +0.066 A 
ATOM     20  C   UNL     1       3.280  -0.422  23.493  0.00  0.00    +0.092 A 
ATOM     21  C   UNL     1       4.242  -1.388  23.827  0.00  0.00    -0.023 A 
ATOM     22  C   UNL     1       5.027   1.284  23.250  0.00  0.00    +0.028 A 
ATOM     23  C   UNL     1       5.589  -1.004  23.868  0.00  0.00    +0.005 A 
ATOM     24  C   UNL     1       5.972   0.309  23.584  0.00  0.00    +0.002 A 
ATOM     25  C   UNL     1       3.884  -2.804  24.139  0.00  0.00    +0.046 C 
ATOM     26  H   UNL     1       2.457   2.530  22.687  0.00  0.00    +0.167 HD
ENDBRANCH  12  16
ENDBRANCH   7  12
TORSDOF 5
ENDMDL
MODEL 9
REMARK VINA RESULT:      -0.8      1.471      5.897
REMARK  Name = 71692987
REMARK  11 active torsions:
REMARK  status: ('A' for Active; 'I' for Inactive)
REMARK    1  A    between atoms: N_1  and  C_11
REMARK    2  A    between atoms: N_1  and  C_17
REMARK    3  A    between atoms: N_1  and  C_18
REMARK    4  A    between atoms: C_4  and  C_8
REMARK    5  A    between atoms: C_5  and  C_11
REMARK    6  A    between atoms: C_7  and  C_12
REMARK    7  A    between atoms: C_8  and  C_13
REMARK    8  A    between atoms: C_8  and  C_14
REMARK    9  A    between atoms: C_9  and  C_15
REMARK   10  A    between atoms: C_12  and  C_16
REMARK   11  A    between atoms: C_21  and  C_25
REMARK                            x       y       z     vdW  Elec       q    Type
REMARK                         _______ _______ _______ _____ _____    ______ ____
ROOT
ATOM      4  C   UNL     1      -4.552   1.717  26.004  0.00  0.00    +0.000 C 
ATOM      5  C   UNL     1      -4.435   0.579  24.963  0.00  0.00    +0.029 C 
ATOM      6  C   UNL     1      -3.299   2.602  25.976  0.00  0.00    +0.012 C 
ATOM      7  C   UNL     1      -3.006   3.206  24.585  0.00  0.00    +0.022 C 
ATOM      9  C   UNL     1      -3.271   2.233  23.447  0.00  0.00    -0.073 C 
ATOM     10  C   UNL     1      -3.901   1.059  23.638  0.00  0.00    -0.023 C 
ATOM     15  C   UNL     1      -2.854   2.652  22.063  0.00  0.00    +0.039 C 
ENDROOT
BRANCH   4   8
ATOM      8  C   UNL     1      -5.823   2.548  25.783  0.00  0.00    -0.013 C 
ATOM     13  C   UNL     1      -5.462   3.994  25.455  0.00  0.00    +0.007 C 
ATOM     14  C   UNL     1      -6.673   1.938  24.673  0.00  0.00    +0.007 C 
ENDBRANCH   4   8
BRANCH   5  11
ATOM     11  C   UNL     1      -3.558  -0.568  25.475  0.00  0.00    +0.091 C 
BRANCH  11   1
ATOM      1  N   UNL     1      -4.089  -1.851  25.049  0.00  0.00    -0.308 NA
ATOM     17  C   UNL     1      -3.190  -2.941  25.439  0.00  0.00    +0.104 C 
ATOM     18  C   UNL     1      -4.304  -1.870  23.599  0.00  0.00    +0.104 C 
ENDBRANCH  11   1
ENDBRANCH   5  11
BRANCH   7  12
ATOM     12  C   UNL     1      -1.575   3.755  24.580  0.00  0.00    +0.082 C 
BRANCH  12  16
ATOM      2  N   UNL     1       0.648   3.006  23.711  0.00  0.00    -0.342 N 
ATOM      3  N   UNL     1      -0.741   1.390  24.342  0.00  0.00    -0.232 NA
ATOM     16  C   UNL     1      -0.580   2.689  24.221  0.00  0.00    +0.109 A 
ATOM     19  C   UNL     1       1.324   1.834  23.486  0.00  0.00    +0.066 A 
ATOM     20  C   UNL     1       0.435   0.840  23.887  0.00  0.00    +0.092 A 
ATOM     21  C   UNL     1       0.823  -0.506  23.787  0.00  0.00    -0.023 A 
ATOM     22  C   UNL     1       2.597   1.566  22.982  0.00  0.00    +0.028 A 
ATOM     23  C   UNL     1       2.097  -0.799  23.283  0.00  0.00    +0.005 A 
ATOM     24  C   UNL     1       2.967   0.221  22.889  0.00  0.00    +0.002 A 
ATOM     25  C   UNL     1      -0.069  -1.632  24.195  0.00  0.00    +0.046 C 
ATOM     26  H   UNL     1       1.000   3.937  23.531  0.00  0.00    +0.167 HD
ENDBRANCH  12  16
ENDBRANCH   7  12
TORSDOF 5
ENDMDL
MODEL 10
REMARK VINA RESULT:       0.5      1.612      6.289
REMARK  Name = 71692987
REMARK  11 active torsions:
REMARK  status: ('A' for Active; 'I' for Inactive)
REMARK    1  A    between atoms: N_1  and  C_11
REMARK    2  A    between atoms: N_1  and  C_17
REMARK    3  A    between atoms: N_1  and  C_18
REMARK    4  A    between atoms: C_4  and  C_8
REMARK    5  A    between atoms: C_5  and  C_11
REMARK    6  A    between atoms: C_7  and  C_12
REMARK    7  A    between atoms: C_8  and  C_13
REMARK    8  A    between atoms: C_8  and  C_14
REMARK    9  A    between atoms: C_9  and  C_15
REMARK   10  A    between atoms: C_12  and  C_16
REMARK   11  A    between atoms: C_21  and  C_25
REMARK                            x       y       z     vdW  Elec       q    Type
REMARK                         _______ _______ _______ _____ _____    ______ ____
ROOT
ATOM      4  C   UNL     1      -3.371   3.612  24.043  0.00  0.00    +0.000 C 
ATOM      5  C   UNL     1      -3.498   4.059  25.518  0.00  0.00    +0.029 C 
ATOM      6  C   UNL     1      -3.633   2.105  23.914  0.00  0.00    +0.012 C 
ATOM      7  C   UNL     1      -5.009   1.673  24.466  0.00  0.00    +0.022 C 
ATOM      9  C   UNL     1      -5.391   2.400  25.746  0.00  0.00    -0.073 C 
ATOM     10  C   UNL     1      -4.696   3.457  26.205  0.00  0.00    -0.023 C 
ATOM     15  C   UNL     1      -6.626   1.933  26.468  0.00  0.00    +0.039 C 
ENDROOT
BRANCH   4   8
ATOM      8  C   UNL     1      -4.308   4.417  23.133  0.00  0.00    -0.013 C 
ATOM     13  C   UNL     1      -3.980   5.905  23.214  0.00  0.00    +0.007 C 
ATOM     14  C   UNL     1      -4.210   3.920  21.694  0.00  0.00    +0.007 C 
ENDBRANCH   4   8
BRANCH   5  11
ATOM     11  C   UNL     1      -2.236   3.725  26.320  0.00  0.00    +0.091 C 
BRANCH  11   1
ATOM      1  N   UNL     1      -1.108   3.500  25.433  0.00  0.00    -0.308 NA
ATOM     17  C   UNL     1      -0.065   2.720  26.105  0.00  0.00    +0.104 C 
ATOM     18  C   UNL     1      -0.556   4.773  24.958  0.00  0.00    +0.104 C 
ENDBRANCH  11   1
ENDBRANCH   5  11
BRANCH   7  12
ATOM     12  C   UNL     1      -5.017   0.148  24.622  0.00  0.00    +0.082 C 
BRANCH  12  16
ATOM      2  N   UNL     1      -3.350  -1.599  25.280  0.00  0.00    -0.342 N 
ATOM      3  N   UNL     1      -2.541   0.140  24.155  0.00  0.00    -0.232 NA
ATOM     16  C   UNL     1      -3.622  -0.407  24.667  0.00  0.00    +0.109 A 
ATOM     19  C   UNL     1      -2.006  -1.836  25.157  0.00  0.00    +0.066 A 
ATOM     20  C   UNL     1      -1.523  -0.736  24.452  0.00  0.00    +0.092 A 
ATOM     21  C   UNL     1      -0.153  -0.664  24.151  0.00  0.00    -0.023 A 
ATOM     22  C   UNL     1      -1.194  -2.887  25.588  0.00  0.00    +0.028 A 
ATOM     23  C   UNL     1       0.681  -1.707  24.574  0.00  0.00    +0.005 A 
ATOM     24  C   UNL     1       0.167  -2.798  25.280  0.00  0.00    +0.002 A 
ATOM     25  C   UNL     1       0.444   0.480  23.399  0.00  0.00    +0.046 C 
ATOM     26  H   UNL     1      -4.019  -2.201  25.741  0.00  0.00    +0.167 HD
ENDBRANCH  12  16
ENDBRANCH   7  12
TORSDOF 5
ENDMDL
