MODEL 1
REMARK VINA RESULT:       5.3      0.000      0.000
REMARK  Name = 45361444
REMARK  9 active torsions:
REMARK  status: ('A' for Active; 'I' for Inactive)
REMARK    1  A    between atoms: O_1  and  C_10
REMARK    2  A    between atoms: N_4  and  C_14
REMARK    3  A    between atoms: C_7  and  C_17
REMARK    4  A    between atoms: C_9  and  C_19
REMARK    5  A    between atoms: C_12  and  C_18
REMARK    6  A    between atoms: C_18  and  C_20
REMARK    7  A    between atoms: C_18  and  C_21
REMARK    8  A    between atoms: C_22  and  C_27
REMARK    9  A    between atoms: C_33  and  C_34
REMARK                            x       y       z     vdW  Elec       q    Type
REMARK                         _______ _______ _______ _____ _____    ______ ____
ROOT
ATOM      7  C   UNL     1      -2.419  -1.170  25.367  0.00  0.00    -0.027 C 
ATOM      8  C   UNL     1      -2.092  -0.035  24.341  0.00  0.00    +0.028 C 
ATOM      9  C   UNL     1      -0.542   0.205  24.248  0.00  0.00    +0.012 C 
ATOM     10  C   UNL     1      -2.950   1.234  24.611  0.00  0.00    +0.122 C 
ATOM     11  C   UNL     1      -3.939  -1.459  25.350  0.00  0.00    +0.007 C 
ATOM     12  C   UNL     1      -4.463   0.922  24.696  0.00  0.00    +0.029 C 
ATOM     13  C   UNL     1      -1.690  -2.464  24.938  0.00  0.00    +0.009 C 
ATOM     14  C   UNL     1       0.187  -1.120  23.889  0.00  0.00    +0.076 C 
ATOM     15  C   UNL     1      -4.781  -0.226  25.654  0.00  0.00    +0.007 C 
ATOM     16  C   UNL     1      -0.184  -2.286  24.805  0.00  0.00    +0.023 C 
ATOM     17  C   UNL     1      -1.999  -0.803  26.813  0.00  0.00    +0.011 C 
ATOM     19  C   UNL     1      -0.147   1.291  23.234  0.00  0.00    +0.010 C 
ENDROOT
BRANCH  14   4
ATOM      3  O   UNL     1       1.836  -0.150  21.748  0.00  0.00    -0.270 OA
ATOM      4  N   UNL     1       1.627  -0.962  23.910  0.00  0.00    -0.308 N 
ATOM     22  C   UNL     1       2.334  -0.484  22.820  0.00  0.00    +0.244 C 
ATOM     35  H   UNL     1       2.116  -1.325  24.721  0.00  0.00    +0.149 HD
BRANCH  22  27
ATOM     27  C   UNL     1       3.807  -0.406  22.991  0.00  0.00    +0.037 A 
ATOM     29  C   UNL     1       4.520   0.652  22.427  0.00  0.00    +0.014 A 
ATOM     30  C   UNL     1       4.477  -1.389  23.719  0.00  0.00    +0.014 A 
ATOM     31  C   UNL     1       5.904   0.726  22.589  0.00  0.00    +0.019 A 
ATOM     32  C   UNL     1       5.861  -1.314  23.882  0.00  0.00    +0.019 A 
ATOM     33  C   UNL     1       6.574  -0.257  23.316  0.00  0.00    +0.052 A 
BRANCH  33  34
ATOM      6  N   UNL     1       9.142  -0.119  23.617  0.00  0.00    -0.191 NA
ATOM     34  C   UNL     1       7.992  -0.181  23.483  0.00  0.00    +0.099 C 
ENDBRANCH  33  34
ENDBRANCH  22  27
ENDBRANCH  14   4
BRANCH  10   1
ATOM      1  O   UNL     1      -2.784   2.159  23.536  0.00  0.00    -0.391 OA
ATOM     36  H   UNL     1      -2.082   1.823  22.952  0.00  0.00    +0.210 HD
ENDBRANCH  10   1
BRANCH  12  18
ATOM     18  C   UNL     1      -5.277   2.160  25.092  0.00  0.00    +0.078 C 
ATOM     20  C   UNL     1      -6.732   2.013  24.681  0.00  0.00    +0.017 C 
BRANCH  18  21
ATOM      2  O   UNL     1      -5.104   3.735  23.330  0.00  0.00    -0.275 OA
ATOM      5  N   UNL     1      -3.635   4.005  25.109  0.00  0.00    -0.301 N 
ATOM     21  C   UNL     1      -4.671   3.369  24.425  0.00  0.00    +0.219 C 
ATOM     23  C   UNL     1      -2.993   5.186  24.526  0.00  0.00    +0.108 C 
ATOM     24  C   UNL     1      -3.128   3.621  26.433  0.00  0.00    +0.108 C 
ATOM     25  C   UNL     1      -1.481   5.002  24.449  0.00  0.00    +0.019 C 
ATOM     26  C   UNL     1      -1.616   3.409  26.392  0.00  0.00    +0.019 C 
ATOM     28  C   UNL     1      -0.899   4.626  25.810  0.00  0.00    +0.003 C 
ENDBRANCH  18  21
ENDBRANCH  12  18
TORSDOF 6
ENDMDL
