MODEL 1
REMARK VINA RESULT:      -3.5      0.000      0.000
REMARK  Name = 75367037
REMARK  8 active torsions:
REMARK  status: ('A' for Active; 'I' for Inactive)
REMARK    1  A    between atoms: O_3  and  C_12
REMARK    2  A    between atoms: N_6  and  C_18
REMARK    3  A    between atoms: N_7  and  C_16
REMARK    4  A    between atoms: C_10  and  C_15
REMARK    5  A    between atoms: C_11  and  C_16
REMARK    6  A    between atoms: C_15  and  C_17
REMARK    7  A    between atoms: C_18  and  C_21
REMARK    8  A    between atoms: C_25  and  C_26
REMARK                            x       y       z     vdW  Elec       q    Type
REMARK                         _______ _______ _______ _____ _____    ______ ____
ROOT
ATOM      2  O   UNL     1      -2.714   2.901  26.061  0.00  0.00    -0.369 OA
ATOM     10  C   UNL     1      -1.569   3.029  25.214  0.00  0.00    +0.125 C 
ATOM     11  C   UNL     1      -3.859   3.664  25.657  0.00  0.00    +0.164 C 
ATOM     12  C   UNL     1      -3.515   5.152  25.506  0.00  0.00    +0.145 C 
ATOM     13  C   UNL     1      -1.120   4.486  25.129  0.00  0.00    +0.034 C 
ATOM     14  C   UNL     1      -2.266   5.376  24.659  0.00  0.00    +0.036 C 
ENDROOT
BRANCH  12   3
ATOM      3  O   UNL     1      -3.268   5.700  26.803  0.00  0.00    -0.389 OA
ATOM     32  H   UNL     1      -2.344   6.005  26.822  0.00  0.00    +0.210 HD
ENDBRANCH  12   3
BRANCH  10  15
ATOM     15  C   UNL     1      -0.468   2.154  25.799  0.00  0.00    +0.090 C 
BRANCH  15  17
ATOM      4  O   UNL     1       0.404  -0.572  23.609  0.00  0.00    -0.358 OA
ATOM      9  N   UNL     1      -0.348  -0.010  24.633  0.00  0.00    -0.083 NA
ATOM     17  C   UNL     1       0.123   1.233  24.764  0.00  0.00    +0.086 A 
ATOM     21  C   UNL     1       1.298   0.342  23.155  0.00  0.00    +0.151 A 
ATOM     22  C   UNL     1       1.162   1.509  23.858  0.00  0.00    +0.072 A 
BRANCH  21  18
ATOM     18  C   UNL     1       2.179  -0.090  22.063  0.00  0.00    +0.161 C 
BRANCH  18   6
ATOM      6  N   UNL     1       3.534  -0.410  22.508  0.00  0.00    -0.293 NA
ATOM      8  N   UNL     1       5.640  -0.541  24.495  0.00  0.00    -0.314 NA
ATOM     19  C   UNL     1       3.509  -1.415  23.578  0.00  0.00    +0.100 C 
ATOM     20  C   UNL     1       4.237   0.800  22.953  0.00  0.00    +0.100 C 
ATOM     23  C   UNL     1       4.929  -1.741  24.049  0.00  0.00    +0.096 C 
ATOM     24  C   UNL     1       5.653   0.462  23.428  0.00  0.00    +0.096 C 
ATOM     34  H   UNL     1       6.598  -0.786  24.745  0.00  0.00    +0.122 HD
ENDBRANCH  18   6
ENDBRANCH  21  18
ENDBRANCH  15  17
ENDBRANCH  10  15
BRANCH  11  16
ATOM     16  C   UNL     1      -4.501   3.070  24.405  0.00  0.00    +0.138 C 
BRANCH  16   7
ATOM      5  O   UNL     1      -5.563   0.856  25.894  0.00  0.00    -0.270 OA
ATOM      7  N   UNL     1      -4.151   1.691  24.253  0.00  0.00    -0.309 N 
ATOM     25  C   UNL     1      -4.718   0.676  25.021  0.00  0.00    +0.247 C 
ATOM     33  H   UNL     1      -3.416   1.468  23.588  0.00  0.00    +0.149 HD
BRANCH  25  26
ATOM      1  F   UNL     1      -2.773  -0.589  26.634  0.00  0.00    -0.205 F 
ATOM     26  C   UNL     1      -4.228  -0.701  24.759  0.00  0.00    +0.072 A 
ATOM     27  C   UNL     1      -3.266  -1.274  25.591  0.00  0.00    +0.135 A 
ATOM     28  C   UNL     1      -4.733  -1.424  23.678  0.00  0.00    +0.016 A 
ATOM     29  C   UNL     1      -2.808  -2.567  25.341  0.00  0.00    +0.039 A 
ATOM     30  C   UNL     1      -4.276  -2.718  23.428  0.00  0.00    +0.001 A 
ATOM     31  C   UNL     1      -3.314  -3.289  24.260  0.00  0.00    +0.003 A 
ENDBRANCH  25  26
ENDBRANCH  16   7
ENDBRANCH  11  16
TORSDOF 8
ENDMDL
MODEL 2
REMARK VINA RESULT:      -3.1      2.249      7.103
REMARK  Name = 75367037
REMARK  8 active torsions:
REMARK  status: ('A' for Active; 'I' for Inactive)
REMARK    1  A    between atoms: O_3  and  C_12
REMARK    2  A    between atoms: N_6  and  C_18
REMARK    3  A    between atoms: N_7  and  C_16
REMARK    4  A    between atoms: C_10  and  C_15
REMARK    5  A    between atoms: C_11  and  C_16
REMARK    6  A    between atoms: C_15  and  C_17
REMARK    7  A    between atoms: C_18  and  C_21
REMARK    8  A    between atoms: C_25  and  C_26
REMARK                            x       y       z     vdW  Elec       q    Type
REMARK                         _______ _______ _______ _____ _____    ______ ____
ROOT
ATOM      2  O   UNL     1      -2.853  -0.406  24.980  0.00  0.00    -0.369 OA
ATOM     10  C   UNL     1      -3.828  -0.743  23.990  0.00  0.00    +0.125 C 
ATOM     11  C   UNL     1      -1.555  -0.981  24.778  0.00  0.00    +0.164 C 
ATOM     12  C   UNL     1      -1.632  -2.508  24.655  0.00  0.00    +0.145 C 
ATOM     13  C   UNL     1      -4.023  -2.256  23.917  0.00  0.00    +0.034 C 
ATOM     14  C   UNL     1      -2.694  -2.958  23.655  0.00  0.00    +0.036 C 
ENDROOT
BRANCH  12   3
ATOM      3  O   UNL     1      -1.975  -3.055  25.931  0.00  0.00    -0.389 OA
ATOM     32  H   UNL     1      -2.820  -2.659  26.204  0.00  0.00    +0.210 HD
ENDBRANCH  12   3
BRANCH  10  15
ATOM     15  C   UNL     1      -5.127  -0.046  24.372  0.00  0.00    +0.090 C 
BRANCH  15  17
ATOM      4  O   UNL     1      -5.306   3.173  25.983  0.00  0.00    -0.358 OA
ATOM      9  N   UNL     1      -5.870   1.973  25.567  0.00  0.00    -0.083 NA
ATOM     17  C   UNL     1      -4.878   1.318  24.958  0.00  0.00    +0.086 A 
ATOM     21  C   UNL     1      -4.000   3.206  25.616  0.00  0.00    +0.151 A 
ATOM     22  C   UNL     1      -3.676   2.049  24.960  0.00  0.00    +0.072 A 
BRANCH  21  18
ATOM     18  C   UNL     1      -3.248   4.413  25.980  0.00  0.00    +0.161 C 
BRANCH  18   6
ATOM      6  N   UNL     1      -1.807   4.277  25.778  0.00  0.00    -0.293 NA
ATOM      8  N   UNL     1       0.537   2.992  24.659  0.00  0.00    -0.314 NA
ATOM     19  C   UNL     1      -1.462   4.427  24.359  0.00  0.00    +0.100 C 
ATOM     20  C   UNL     1      -1.327   2.988  26.293  0.00  0.00    +0.100 C 
ATOM     23  C   UNL     1       0.047   4.274  24.149  0.00  0.00    +0.096 C 
ATOM     24  C   UNL     1       0.181   2.844  26.072  0.00  0.00    +0.096 C 
ATOM     34  H   UNL     1       1.551   2.950  24.557  0.00  0.00    +0.122 HD
ENDBRANCH  18   6
ENDBRANCH  21  18
ENDBRANCH  15  17
ENDBRANCH  10  15
BRANCH  11  16
ATOM     16  C   UNL     1      -0.841  -0.323  23.598  0.00  0.00    +0.138 C 
BRANCH  16   7
ATOM      5  O   UNL     1       1.187  -0.325  21.565  0.00  0.00    -0.270 OA
ATOM      7  N   UNL     1       0.575  -0.300  23.803  0.00  0.00    -0.309 N 
ATOM     25  C   UNL     1       1.492  -0.302  22.754  0.00  0.00    +0.247 C 
ATOM     33  H   UNL     1       0.907  -0.338  24.762  0.00  0.00    +0.149 HD
BRANCH  25  26
ATOM      1  F   UNL     1       3.119   2.001  22.587  0.00  0.00    -0.205 F 
ATOM     26  C   UNL     1       2.928  -0.303  23.134  0.00  0.00    +0.072 A 
ATOM     27  C   UNL     1       3.681   0.867  23.030  0.00  0.00    +0.135 A 
ATOM     28  C   UNL     1       3.524  -1.475  23.598  0.00  0.00    +0.016 A 
ATOM     29  C   UNL     1       5.029   0.863  23.388  0.00  0.00    +0.039 A 
ATOM     30  C   UNL     1       4.872  -1.479  23.957  0.00  0.00    +0.001 A 
ATOM     31  C   UNL     1       5.624  -0.310  23.852  0.00  0.00    +0.003 A 
ENDBRANCH  25  26
ENDBRANCH  16   7
ENDBRANCH  11  16
TORSDOF 8
ENDMDL
MODEL 3
REMARK VINA RESULT:      -1.3      1.906      4.710
REMARK  Name = 75367037
REMARK  8 active torsions:
REMARK  status: ('A' for Active; 'I' for Inactive)
REMARK    1  A    between atoms: O_3  and  C_12
REMARK    2  A    between atoms: N_6  and  C_18
REMARK    3  A    between atoms: N_7  and  C_16
REMARK    4  A    between atoms: C_10  and  C_15
REMARK    5  A    between atoms: C_11  and  C_16
REMARK    6  A    between atoms: C_15  and  C_17
REMARK    7  A    between atoms: C_18  and  C_21
REMARK    8  A    between atoms: C_25  and  C_26
REMARK                            x       y       z     vdW  Elec       q    Type
REMARK                         _______ _______ _______ _____ _____    ______ ____
ROOT
ATOM      2  O   UNL     1      -2.432  -0.725  24.221  0.00  0.00    -0.369 OA
ATOM     10  C   UNL     1      -2.435  -0.797  25.650  0.00  0.00    +0.125 C 
ATOM     11  C   UNL     1      -3.577  -1.301  23.579  0.00  0.00    +0.164 C 
ATOM     12  C   UNL     1      -3.779  -2.762  24.002  0.00  0.00    +0.145 C 
ATOM     13  C   UNL     1      -2.517  -2.249  26.116  0.00  0.00    +0.034 C 
ATOM     14  C   UNL     1      -3.740  -2.939  25.517  0.00  0.00    +0.036 C 
ENDROOT
BRANCH  12   3
ATOM      3  O   UNL     1      -2.727  -3.553  23.443  0.00  0.00    -0.389 OA
ATOM     32  H   UNL     1      -2.908  -3.653  22.492  0.00  0.00    +0.210 HD
ENDBRANCH  12   3
BRANCH  10  15
ATOM     15  C   UNL     1      -1.153  -0.140  26.144  0.00  0.00    +0.090 C 
BRANCH  15  17
ATOM      4  O   UNL     1       0.900   1.496  23.675  0.00  0.00    -0.358 OA
ATOM      9  N   UNL     1       0.049   1.512  24.773  0.00  0.00    -0.083 NA
ATOM     17  C   UNL     1      -0.240   0.229  25.005  0.00  0.00    +0.086 A 
ATOM     21  C   UNL     1       1.099   0.213  23.281  0.00  0.00    +0.151 A 
ATOM     22  C   UNL     1       0.394  -0.634  24.094  0.00  0.00    +0.072 A 
BRANCH  21  18
ATOM     18  C   UNL     1       1.980   0.012  22.124  0.00  0.00    +0.161 C 
BRANCH  18   6
ATOM      6  N   UNL     1       3.362  -0.282  22.496  0.00  0.00    -0.293 NA
ATOM      8  N   UNL     1       5.560  -0.415  24.380  0.00  0.00    -0.314 NA
ATOM     19  C   UNL     1       3.414  -1.322  23.531  0.00  0.00    +0.100 C 
ATOM     20  C   UNL     1       4.050   0.933  22.949  0.00  0.00    +0.100 C 
ATOM     23  C   UNL     1       4.863  -1.620  23.927  0.00  0.00    +0.096 C 
ATOM     24  C   UNL     1       5.495   0.622  23.347  0.00  0.00    +0.096 C 
ATOM     34  H   UNL     1       6.536  -0.639  24.577  0.00  0.00    +0.122 HD
ENDBRANCH  18   6
ENDBRANCH  21  18
ENDBRANCH  15  17
ENDBRANCH  10  15
BRANCH  11  16
ATOM     16  C   UNL     1      -4.819  -0.440  23.795  0.00  0.00    +0.138 C 
BRANCH  16   7
ATOM      5  O   UNL     1      -3.335   1.755  22.687  0.00  0.00    -0.270 OA
ATOM      7  N   UNL     1      -4.487   0.786  24.453  0.00  0.00    -0.309 N 
ATOM     25  C   UNL     1      -3.759   1.803  23.839  0.00  0.00    +0.247 C 
ATOM     33  H   UNL     1      -4.755   0.878  25.429  0.00  0.00    +0.149 HD
BRANCH  25  26
ATOM      1  F   UNL     1      -5.691   2.996  25.520  0.00  0.00    -0.205 F 
ATOM     26  C   UNL     1      -3.474   3.003  24.667  0.00  0.00    +0.072 A 
ATOM     27  C   UNL     1      -4.469   3.547  25.479  0.00  0.00    +0.135 A 
ATOM     28  C   UNL     1      -2.207   3.584  24.634  0.00  0.00    +0.016 A 
ATOM     29  C   UNL     1      -4.198   4.673  26.255  0.00  0.00    +0.039 A 
ATOM     30  C   UNL     1      -1.935   4.710  25.411  0.00  0.00    +0.001 A 
ATOM     31  C   UNL     1      -2.930   5.255  26.221  0.00  0.00    +0.003 A 
ENDBRANCH  25  26
ENDBRANCH  16   7
ENDBRANCH  11  16
TORSDOF 8
ENDMDL
MODEL 4
REMARK VINA RESULT:      -1.1      2.445      7.627
REMARK  Name = 75367037
REMARK  8 active torsions:
REMARK  status: ('A' for Active; 'I' for Inactive)
REMARK    1  A    between atoms: O_3  and  C_12
REMARK    2  A    between atoms: N_6  and  C_18
REMARK    3  A    between atoms: N_7  and  C_16
REMARK    4  A    between atoms: C_10  and  C_15
REMARK    5  A    between atoms: C_11  and  C_16
REMARK    6  A    between atoms: C_15  and  C_17
REMARK    7  A    between atoms: C_18  and  C_21
REMARK    8  A    between atoms: C_25  and  C_26
REMARK                            x       y       z     vdW  Elec       q    Type
REMARK                         _______ _______ _______ _____ _____    ______ ____
ROOT
ATOM      2  O   UNL     1      -2.431   0.270  23.879  0.00  0.00    -0.369 OA
ATOM     10  C   UNL     1      -2.804  -0.979  24.468  0.00  0.00    +0.125 C 
ATOM     11  C   UNL     1      -1.036   0.590  23.959  0.00  0.00    +0.164 C 
ATOM     12  C   UNL     1      -0.536   0.554  25.409  0.00  0.00    +0.145 C 
ATOM     13  C   UNL     1      -2.429  -1.011  25.948  0.00  0.00    +0.034 C 
ATOM     14  C   UNL     1      -0.941  -0.727  26.132  0.00  0.00    +0.036 C 
ENDROOT
BRANCH  12   3
ATOM      3  O   UNL     1      -1.108   1.656  26.120  0.00  0.00    -0.389 OA
ATOM     32  H   UNL     1      -1.275   2.365  25.476  0.00  0.00    +0.210 HD
ENDBRANCH  12   3
BRANCH  10  15
ATOM     15  C   UNL     1      -4.308  -1.140  24.284  0.00  0.00    +0.090 C 
BRANCH  15  17
ATOM      4  O   UNL     1      -6.716   1.507  24.710  0.00  0.00    -0.358 OA
ATOM      9  N   UNL     1      -6.366   0.204  24.377  0.00  0.00    -0.083 NA
ATOM     17  C   UNL     1      -5.044   0.145  24.553  0.00  0.00    +0.086 A 
ATOM     21  C   UNL     1      -5.602   2.190  25.075  0.00  0.00    +0.151 A 
ATOM     22  C   UNL     1      -4.509   1.370  24.992  0.00  0.00    +0.072 A 
BRANCH  21  18
ATOM     18  C   UNL     1      -5.791   3.594  25.461  0.00  0.00    +0.161 C 
BRANCH  18   6
ATOM      6  N   UNL     1      -4.552   4.369  25.445  0.00  0.00    -0.293 NA
ATOM      8  N   UNL     1      -1.672   4.636  25.262  0.00  0.00    -0.314 NA
ATOM     19  C   UNL     1      -3.854   4.211  24.163  0.00  0.00    +0.100 C 
ATOM     20  C   UNL     1      -3.680   3.980  26.560  0.00  0.00    +0.100 C 
ATOM     23  C   UNL     1      -2.551   5.016  24.154  0.00  0.00    +0.096 C 
ATOM     24  C   UNL     1      -2.378   4.786  26.537  0.00  0.00    +0.096 C 
ATOM     34  H   UNL     1      -0.844   5.232  25.259  0.00  0.00    +0.122 HD
ENDBRANCH  18   6
ENDBRANCH  21  18
ENDBRANCH  15  17
ENDBRANCH  10  15
BRANCH  11  16
ATOM     16  C   UNL     1      -0.215  -0.296  23.024  0.00  0.00    +0.138 C 
BRANCH  16   7
ATOM      5  O   UNL     1       2.060  -0.218  21.274  0.00  0.00    -0.270 OA
ATOM      7  N   UNL     1       1.162  -0.315  23.411  0.00  0.00    -0.309 N 
ATOM     25  C   UNL     1       2.208  -0.274  22.492  0.00  0.00    +0.247 C 
ATOM     33  H   UNL     1       1.365  -0.418  24.401  0.00  0.00    +0.149 HD
BRANCH  25  26
ATOM      1  F   UNL     1       3.944   1.956  22.507  0.00  0.00    -0.205 F 
ATOM     26  C   UNL     1       3.582  -0.328  23.054  0.00  0.00    +0.072 A 
ATOM     27  C   UNL     1       4.393   0.808  23.034  0.00  0.00    +0.135 A 
ATOM     28  C   UNL     1       4.061  -1.516  23.606  0.00  0.00    +0.016 A 
ATOM     29  C   UNL     1       5.682   0.753  23.563  0.00  0.00    +0.039 A 
ATOM     30  C   UNL     1       5.350  -1.570  24.135  0.00  0.00    +0.001 A 
ATOM     31  C   UNL     1       6.160  -0.436  24.114  0.00  0.00    +0.003 A 
ENDBRANCH  25  26
ENDBRANCH  16   7
ENDBRANCH  11  16
TORSDOF 8
ENDMDL
