MODEL 1
REMARK VINA RESULT:       8.7      0.000      0.000
REMARK  Name = 11939952
REMARK  8 active torsions:
REMARK  status: ('A' for Active; 'I' for Inactive)
REMARK    1  A    between atoms: N_7  and  C_15
REMARK    2  A    between atoms: N_8  and  C_16
REMARK    3  A    between atoms: N_9  and  C_22
REMARK    4  A    between atoms: N_12  and  C_35
REMARK    5  A    between atoms: N_12  and  C_37
REMARK    6  A    between atoms: N_12  and  C_38
REMARK    7  A    between atoms: C_21  and  C_25
REMARK    8  A    between atoms: C_28  and  C_36
REMARK                            x       y       z     vdW  Elec       q    Type
REMARK                         _______ _______ _______ _____ _____    ______ ____
ROOT
ATOM      4  O   UNL     1      -4.470  -1.426  23.566  0.00  0.00    -0.370 OA
ATOM      5  O   UNL     1      -3.564  -0.937  26.512  0.00  0.00    -0.370 OA
ATOM     13  C   UNL     1      -3.617  -0.097  25.346  0.00  0.00    +0.171 C 
ATOM     14  C   UNL     1      -3.245  -0.958  24.154  0.00  0.00    +0.171 C 
ATOM     15  C   UNL     1      -5.041   0.323  25.068  0.00  0.00    +0.130 C 
ATOM     16  C   UNL     1      -2.477  -2.111  24.758  0.00  0.00    +0.131 C 
ATOM     17  C   UNL     1      -5.581  -0.844  24.263  0.00  0.00    +0.185 C 
ATOM     18  C   UNL     1      -3.119  -2.246  26.128  0.00  0.00    +0.185 C 
ENDROOT
BRANCH  15   7
ATOM      7  N   UNL     1      -5.054   1.529  24.271  0.00  0.00    -0.306 N 
ATOM     10  N   UNL     1      -3.103   2.314  25.256  0.00  0.00    -0.214 NA
ATOM     11  N   UNL     1      -4.241   3.583  23.552  0.00  0.00    -0.223 NA
ATOM     19  C   UNL     1      -4.090   2.519  24.364  0.00  0.00    +0.216 A 
ATOM     21  C   UNL     1      -2.181   3.297  25.320  0.00  0.00    +0.076 A 
ATOM     23  C   UNL     1      -3.284   4.527  23.668  0.00  0.00    +0.116 A 
ATOM     24  C   UNL     1      -2.221   4.437  24.543  0.00  0.00    +0.048 A 
ATOM     39  H   UNL     1      -5.771   1.653  23.565  0.00  0.00    +0.149 HD
BRANCH  21  25
ATOM     25  C   UNL     1      -1.120   3.082  26.274  0.00  0.00    +0.001 A 
ATOM     29  C   UNL     1      -1.403   3.066  27.640  0.00  0.00    +0.012 A 
ATOM     30  C   UNL     1       0.189   2.890  25.830  0.00  0.00    +0.012 A 
ATOM     33  C   UNL     1      -0.376   2.858  28.563  0.00  0.00    +0.024 A 
ATOM     34  C   UNL     1       1.214   2.683  26.752  0.00  0.00    +0.024 A 
ATOM     35  C   UNL     1       0.932   2.667  28.119  0.00  0.00    +0.029 A 
BRANCH  35  12
ATOM     12  N   UNL     1       1.969   2.457  29.051  0.00  0.00    -0.336 N 
ATOM     37  C   UNL     1       1.676   1.916  30.364  0.00  0.00    +0.129 C 
ATOM     38  C   UNL     1       3.337   2.794  28.715  0.00  0.00    +0.129 C 
ENDBRANCH  35  12
ENDBRANCH  21  25
ENDBRANCH  15   7
BRANCH  16   8
ATOM      6  O   UNL     1      -0.802  -1.007  22.715  0.00  0.00    -0.252 OA
ATOM      8  N   UNL     1      -1.072  -1.803  24.868  0.00  0.00    -0.292 N 
ATOM      9  N   UNL     1       1.005  -1.070  24.213  0.00  0.00    -0.269 N 
ATOM     20  C   UNL     1      -0.322  -1.262  23.816  0.00  0.00    +0.304 C 
ATOM     40  H   UNL     1      -0.619  -1.922  25.770  0.00  0.00    +0.151 HD
ATOM     41  H   UNL     1       1.239  -1.336  25.165  0.00  0.00    +0.156 HD
BRANCH   9  22
ATOM     22  C   UNL     1       2.072  -0.547  23.447  0.00  0.00    +0.035 A 
ATOM     26  C   UNL     1       3.364  -0.528  23.972  0.00  0.00    +0.035 A 
ATOM     27  C   UNL     1       1.832  -0.051  22.165  0.00  0.00    +0.023 A 
ATOM     28  C   UNL     1       4.416  -0.011  23.216  0.00  0.00    +0.057 A 
ATOM     31  C   UNL     1       2.886   0.465  21.410  0.00  0.00    +0.002 A 
ATOM     32  C   UNL     1       4.177   0.485  21.934  0.00  0.00    +0.012 A 
BRANCH  28  36
ATOM      1  F   UNL     1       6.156   1.223  24.299  0.00  0.00    -0.166 F 
ATOM      2  F   UNL     1       6.767  -0.281  22.861  0.00  0.00    -0.166 F 
ATOM      3  F   UNL     1       5.968  -0.887  24.790  0.00  0.00    -0.166 F 
ATOM     36  C   UNL     1       5.798   0.011  23.778  0.00  0.00    +0.417 C 
ENDBRANCH  28  36
ENDBRANCH   9  22
ENDBRANCH  16   8
TORSDOF 6
ENDMDL
