MODEL 1
REMARK VINA RESULT:       4.6      0.000      0.000
REMARK  Name = 26745072
REMARK  6 active torsions:
REMARK  status: ('A' for Active; 'I' for Inactive)
REMARK    1  A    between atoms: O_3  and  C_27
REMARK    2  A    between atoms: C_10  and  C_15
REMARK    3  A    between atoms: C_16  and  C_18
REMARK    4  A    between atoms: C_19  and  C_22
REMARK    5  A    between atoms: C_20  and  C_27
REMARK    6  A    between atoms: C_29  and  C_32
REMARK                            x       y       z     vdW  Elec       q    Type
REMARK                         _______ _______ _______ _____ _____    ______ ____
ROOT
ATOM      2  O   UNL     1      -1.817   0.443  22.511  0.00  0.00    -0.270 OA
ATOM      5  N   UNL     1      -2.968   1.424  24.302  0.00  0.00    -0.280 N 
ATOM      6  N   UNL     1      -5.823   2.606  26.390  0.00  0.00    -0.347 N 
ATOM      7  N   UNL     1      -5.637   4.482  25.190  0.00  0.00    -0.240 NA
ATOM     10  C   UNL     1      -2.441   2.799  24.006  0.00  0.00    +0.171 C 
ATOM     11  C   UNL     1      -3.602   3.824  23.831  0.00  0.00    +0.089 C 
ATOM     12  C   UNL     1      -3.859   1.259  25.485  0.00  0.00    +0.163 C 
ATOM     13  C   UNL     1      -4.654   3.597  24.849  0.00  0.00    +0.066 A 
ATOM     14  C   UNL     1      -4.748   2.433  25.570  0.00  0.00    +0.056 A 
ATOM     16  C   UNL     1      -2.550   0.354  23.494  0.00  0.00    +0.248 C 
ATOM     17  C   UNL     1      -6.326   3.855  26.123  0.00  0.00    +0.197 A 
ATOM     33  H   UNL     1      -6.184   1.946  27.066  0.00  0.00    +0.167 HD
ENDROOT
BRANCH  16  18
ATOM     18  C   UNL     1      -3.002  -1.000  23.846  0.00  0.00    +0.051 A 
ATOM     20  C   UNL     1      -2.239  -1.826  24.673  0.00  0.00    +0.071 A 
ATOM     21  C   UNL     1      -4.217  -1.456  23.336  0.00  0.00    +0.014 A 
ATOM     23  C   UNL     1      -2.693  -3.107  24.989  0.00  0.00    +0.016 A 
ATOM     24  C   UNL     1      -4.671  -2.735  23.652  0.00  0.00    +0.001 A 
ATOM     25  C   UNL     1      -3.910  -3.561  24.479  0.00  0.00    +0.001 A 
BRANCH  20  27
ATOM      4  O   UNL     1       0.141  -1.585  24.716  0.00  0.00    -0.245 OA
ATOM     27  C   UNL     1      -0.966  -1.380  25.222  0.00  0.00    +0.338 C 
BRANCH  27   3
ATOM      3  O   UNL     1      -1.116  -0.692  26.386  0.00  0.00    -0.477 OA
ATOM     34  H   UNL     1      -1.535   0.183  26.241  0.00  0.00    +0.295 HD
ENDBRANCH  27   3
ENDBRANCH  20  27
ENDBRANCH  16  18
BRANCH  10  15
ATOM      1  O   UNL     1      -0.708   4.356  24.779  0.00  0.00    -0.336 OA
ATOM      8  N   UNL     1      -0.901   2.514  26.037  0.00  0.00    -0.190 NA
ATOM      9  N   UNL     1       0.246   4.478  25.797  0.00  0.00    -0.056 NA
ATOM     15  C   UNL     1      -1.340   3.172  24.995  0.00  0.00    +0.249 A 
ATOM     19  C   UNL     1       0.071   3.354  26.497  0.00  0.00    +0.202 A 
BRANCH  19  22
ATOM     22  C   UNL     1       0.848   3.041  27.661  0.00  0.00    +0.023 A 
ATOM     26  C   UNL     1       0.219   2.850  28.892  0.00  0.00    +0.015 A 
ATOM     28  C   UNL     1       2.235   2.924  27.562  0.00  0.00    +0.012 A 
ATOM     29  C   UNL     1       0.975   2.544  30.024  0.00  0.00    -0.050 A 
ATOM     30  C   UNL     1       2.991   2.618  28.694  0.00  0.00    +0.001 A 
ATOM     31  C   UNL     1       2.361   2.428  29.924  0.00  0.00    +0.003 A 
ATOM     32  C   UNL     1       0.302   2.342  31.339  0.00  0.00    +0.044 C 
ENDBRANCH  19  22
ENDBRANCH  10  15
TORSDOF 5
ENDMDL
MODEL 2
REMARK VINA RESULT:       6.1      3.324      6.026
REMARK  Name = 26745072
REMARK  6 active torsions:
REMARK  status: ('A' for Active; 'I' for Inactive)
REMARK    1  A    between atoms: O_3  and  C_27
REMARK    2  A    between atoms: C_10  and  C_15
REMARK    3  A    between atoms: C_16  and  C_18
REMARK    4  A    between atoms: C_19  and  C_22
REMARK    5  A    between atoms: C_20  and  C_27
REMARK    6  A    between atoms: C_29  and  C_32
REMARK                            x       y       z     vdW  Elec       q    Type
REMARK                         _______ _______ _______ _____ _____    ______ ____
ROOT
ATOM      2  O   UNL     1      -1.797   2.169  26.887  0.00  0.00    -0.270 OA
ATOM      5  N   UNL     1      -2.493   0.708  25.192  0.00  0.00    -0.280 N 
ATOM      6  N   UNL     1      -4.694  -1.597  23.255  0.00  0.00    -0.347 N 
ATOM      7  N   UNL     1      -3.821  -3.180  24.569  0.00  0.00    -0.240 NA
ATOM     10  C   UNL     1      -1.490  -0.346  25.563  0.00  0.00    +0.171 C 
ATOM     11  C   UNL     1      -2.184  -1.716  25.832  0.00  0.00    +0.089 C 
ATOM     12  C   UNL     1      -3.379   0.446  24.022  0.00  0.00    +0.163 C 
ATOM     13  C   UNL     1      -3.242  -1.970  24.828  0.00  0.00    +0.066 A 
ATOM     14  C   UNL     1      -3.764  -0.979  24.035  0.00  0.00    +0.056 A 
ATOM     16  C   UNL     1      -2.509   1.910  25.918  0.00  0.00    +0.248 C 
ATOM     17  C   UNL     1      -4.693  -2.922  23.614  0.00  0.00    +0.197 A 
ATOM     33  H   UNL     1      -5.275  -1.168  22.546  0.00  0.00    +0.167 HD
ENDROOT
BRANCH  16  18
ATOM     18  C   UNL     1      -3.434   2.969  25.490  0.00  0.00    +0.051 A 
ATOM     20  C   UNL     1      -2.974   4.107  24.825  0.00  0.00    +0.071 A 
ATOM     21  C   UNL     1      -4.794   2.822  25.761  0.00  0.00    +0.014 A 
ATOM     23  C   UNL     1      -3.876   5.096  24.431  0.00  0.00    +0.016 A 
ATOM     24  C   UNL     1      -5.695   3.810  25.367  0.00  0.00    +0.001 A 
ATOM     25  C   UNL     1      -5.237   4.947  24.702  0.00  0.00    +0.001 A 
BRANCH  20  27
ATOM      4  O   UNL     1      -0.854   3.497  23.898  0.00  0.00    -0.245 OA
ATOM     27  C   UNL     1      -1.560   4.291  24.527  0.00  0.00    +0.338 C 
BRANCH  27   3
ATOM      3  O   UNL     1      -1.074   5.459  25.024  0.00  0.00    -0.477 OA
ATOM     34  H   UNL     1      -0.667   5.338  25.909  0.00  0.00    +0.295 HD
ENDBRANCH  27   3
ENDBRANCH  20  27
ENDBRANCH  16  18
BRANCH  10  15
ATOM      1  O   UNL     1      -0.626  -0.678  23.290  0.00  0.00    -0.336 OA
ATOM      8  N   UNL     1       0.936  -0.078  24.778  0.00  0.00    -0.190 NA
ATOM      9  N   UNL     1       0.581  -0.613  22.582  0.00  0.00    -0.056 NA
ATOM     15  C   UNL     1      -0.328  -0.348  24.574  0.00  0.00    +0.249 A 
ATOM     19  C   UNL     1       1.454  -0.254  23.528  0.00  0.00    +0.202 A 
BRANCH  19  22
ATOM     22  C   UNL     1       2.849  -0.060  23.256  0.00  0.00    +0.023 A 
ATOM     26  C   UNL     1       3.800  -0.883  23.862  0.00  0.00    +0.015 A 
ATOM     28  C   UNL     1       3.256   0.949  22.384  0.00  0.00    +0.012 A 
ATOM     29  C   UNL     1       5.156  -0.696  23.597  0.00  0.00    -0.050 A 
ATOM     30  C   UNL     1       4.612   1.137  22.119  0.00  0.00    +0.001 A 
ATOM     31  C   UNL     1       5.563   0.315  22.725  0.00  0.00    +0.003 A 
ATOM     32  C   UNL     1       6.172  -1.574  24.245  0.00  0.00    +0.044 C 
ENDBRANCH  19  22
ENDBRANCH  10  15
TORSDOF 5
ENDMDL
MODEL 3
REMARK VINA RESULT:       7.9      3.541      6.045
REMARK  Name = 26745072
REMARK  6 active torsions:
REMARK  status: ('A' for Active; 'I' for Inactive)
REMARK    1  A    between atoms: O_3  and  C_27
REMARK    2  A    between atoms: C_10  and  C_15
REMARK    3  A    between atoms: C_16  and  C_18
REMARK    4  A    between atoms: C_19  and  C_22
REMARK    5  A    between atoms: C_20  and  C_27
REMARK    6  A    between atoms: C_29  and  C_32
REMARK                            x       y       z     vdW  Elec       q    Type
REMARK                         _______ _______ _______ _____ _____    ______ ____
ROOT
ATOM      2  O   UNL     1      -1.787   2.689  26.537  0.00  0.00    -0.270 OA
ATOM      5  N   UNL     1      -2.470   1.082  24.974  0.00  0.00    -0.280 N 
ATOM      6  N   UNL     1      -4.676  -1.345  23.197  0.00  0.00    -0.347 N 
ATOM      7  N   UNL     1      -3.907  -2.808  24.701  0.00  0.00    -0.240 NA
ATOM     10  C   UNL     1      -1.518   0.042  25.492  0.00  0.00    +0.171 C 
ATOM     11  C   UNL     1      -2.268  -1.271  25.872  0.00  0.00    +0.089 C 
ATOM     12  C   UNL     1      -3.321   0.726  23.803  0.00  0.00    +0.163 C 
ATOM     13  C   UNL     1      -3.296  -1.596  24.858  0.00  0.00    +0.066 A 
ATOM     14  C   UNL     1      -3.754  -0.677  23.946  0.00  0.00    +0.056 A 
ATOM     16  C   UNL     1      -2.471   2.352  25.572  0.00  0.00    +0.248 C 
ATOM     17  C   UNL     1      -4.734  -2.625  23.690  0.00  0.00    +0.197 A 
ATOM     33  H   UNL     1      -5.216  -0.974  22.426  0.00  0.00    +0.167 HD
ENDROOT
BRANCH  16  18
ATOM     18  C   UNL     1      -3.342   3.389  25.001  0.00  0.00    +0.051 A 
ATOM     20  C   UNL     1      -4.720   3.381  25.225  0.00  0.00    +0.071 A 
ATOM     21  C   UNL     1      -2.769   4.395  24.224  0.00  0.00    +0.014 A 
ATOM     23  C   UNL     1      -5.522   4.379  24.671  0.00  0.00    +0.016 A 
ATOM     24  C   UNL     1      -3.570   5.392  23.670  0.00  0.00    +0.001 A 
ATOM     25  C   UNL     1      -4.947   5.385  23.893  0.00  0.00    +0.001 A 
BRANCH  20  27
ATOM      4  O   UNL     1      -5.733   1.249  25.616  0.00  0.00    -0.245 OA
ATOM     27  C   UNL     1      -5.350   2.345  26.033  0.00  0.00    +0.338 C 
BRANCH  27   3
ATOM      3  O   UNL     1      -5.481   2.713  27.336  0.00  0.00    -0.477 OA
ATOM     34  H   UNL     1      -6.372   2.501  27.687  0.00  0.00    +0.295 HD
ENDBRANCH  27   3
ENDBRANCH  20  27
ENDBRANCH  16  18
BRANCH  10  15
ATOM      1  O   UNL     1      -0.571  -0.625  23.328  0.00  0.00    -0.336 OA
ATOM      8  N   UNL     1       0.933   0.215  24.759  0.00  0.00    -0.190 NA
ATOM      9  N   UNL     1       0.661  -0.655  22.661  0.00  0.00    -0.056 NA
ATOM     15  C   UNL     1      -0.321  -0.099  24.556  0.00  0.00    +0.249 A 
ATOM     19  C   UNL     1       1.497  -0.145  23.569  0.00  0.00    +0.202 A 
BRANCH  19  22
ATOM     22  C   UNL     1       2.899   0.022  23.320  0.00  0.00    +0.023 A 
ATOM     26  C   UNL     1       3.819  -0.865  23.881  0.00  0.00    +0.015 A 
ATOM     28  C   UNL     1       3.345   1.069  22.513  0.00  0.00    +0.012 A 
ATOM     29  C   UNL     1       5.183  -0.705  23.637  0.00  0.00    -0.050 A 
ATOM     30  C   UNL     1       4.708   1.230  22.269  0.00  0.00    +0.001 A 
ATOM     31  C   UNL     1       5.628   0.343  22.831  0.00  0.00    +0.003 A 
ATOM     32  C   UNL     1       6.165  -1.652  24.238  0.00  0.00    +0.044 C 
ENDBRANCH  19  22
ENDBRANCH  10  15
TORSDOF 5
ENDMDL
