MODEL 1
REMARK VINA RESULT:      -2.8      0.000      0.000
REMARK  Name = 45783499
REMARK  9 active torsions:
REMARK  status: ('A' for Active; 'I' for Inactive)
REMARK    1  A    between atoms: O_2  and  C_26
REMARK    2  A    between atoms: O_2  and  C_27
REMARK    3  A    between atoms: N_3  and  C_14
REMARK    4  A    between atoms: N_9  and  C_24
REMARK    5  A    between atoms: N_9  and  C_25
REMARK    6  A    between atoms: C_10  and  C_15
REMARK    7  A    between atoms: C_14  and  C_16
REMARK    8  A    between atoms: C_17  and  C_19
REMARK    9  A    between atoms: C_25  and  C_26
REMARK                            x       y       z     vdW  Elec       q    Type
REMARK                         _______ _______ _______ _____ _____    ______ ____
ROOT
ATOM      1  O   UNL     1      -2.996  -0.716  25.032  0.00  0.00    -0.336 OA
ATOM      4  N   UNL     1      -1.983   1.238  24.616  0.00  0.00    -0.190 NA
ATOM      7  N   UNL     1      -1.757  -1.034  24.466  0.00  0.00    -0.056 NA
ATOM     15  C   UNL     1      -3.049   0.641  25.085  0.00  0.00    +0.245 A 
ATOM     17  C   UNL     1      -1.217   0.170  24.249  0.00  0.00    +0.204 A 
ENDROOT
BRANCH  17  19
ATOM      8  N   UNL     1       2.152   1.582  23.558  0.00  0.00    -0.240 NA
ATOM     19  C   UNL     1       0.082   0.339  23.664  0.00  0.00    +0.041 A 
ATOM     21  C   UNL     1       0.541  -0.524  22.675  0.00  0.00    +0.016 A 
ATOM     22  C   UNL     1       0.919   1.368  24.067  0.00  0.00    +0.124 A 
ATOM     23  C   UNL     1       1.805  -0.335  22.127  0.00  0.00    +0.044 A 
ATOM     24  C   UNL     1       2.564   0.724  22.598  0.00  0.00    +0.119 A 
BRANCH  24   9
ATOM      9  N   UNL     1       3.850   0.902  22.032  0.00  0.00    -0.327 N 
ATOM     29  H   UNL     1       3.940   1.632  21.334  0.00  0.00    +0.148 HD
BRANCH   9  25
ATOM     25  C   UNL     1       4.973   0.104  22.403  0.00  0.00    +0.131 C 
BRANCH  25  26
ATOM     26  C   UNL     1       5.432   0.473  23.804  0.00  0.00    +0.178 C 
BRANCH  26   2
ATOM      2  O   UNL     1       5.394  -0.681  24.634  0.00  0.00    -0.381 OA
ATOM     27  C   UNL     1       4.777  -1.778  23.974  0.00  0.00    +0.194 C 
ENDBRANCH  26   2
ENDBRANCH  25  26
ENDBRANCH   9  25
ENDBRANCH  24   9
ENDBRANCH  17  19
BRANCH  15  10
ATOM      3  N   UNL     1      -4.429   2.690  25.386  0.00  0.00    -0.284 NA
ATOM     10  C   UNL     1      -4.310   1.245  25.668  0.00  0.00    +0.146 C 
ATOM     11  C   UNL     1      -5.592   0.625  25.082  0.00  0.00    +0.030 C 
ATOM     12  C   UNL     1      -6.396   1.803  24.549  0.00  0.00    +0.017 C 
ATOM     13  C   UNL     1      -5.861   2.984  25.334  0.00  0.00    +0.085 C 
BRANCH   3  14
ATOM     14  C   UNL     1      -3.733   3.525  26.357  0.00  0.00    +0.159 C 
BRANCH  14  16
ATOM      5  N   UNL     1      -1.265   3.535  25.926  0.00  0.00    -0.347 N 
ATOM      6  N   UNL     1      -2.398   5.256  25.097  0.00  0.00    -0.239 NA
ATOM     16  C   UNL     1      -2.485   4.136  25.778  0.00  0.00    +0.121 A 
ATOM     18  C   UNL     1      -0.342   4.325  25.299  0.00  0.00    +0.104 A 
ATOM     20  C   UNL     1      -1.065   5.379  24.794  0.00  0.00    +0.130 A 
ATOM     28  H   UNL     1      -1.078   2.669  26.413  0.00  0.00    +0.167 HD
ENDBRANCH  14  16
ENDBRANCH   3  14
ENDBRANCH  15  10
TORSDOF 8
ENDMDL
MODEL 2
REMARK VINA RESULT:      -2.5      1.728      3.250
REMARK  Name = 45783499
REMARK  9 active torsions:
REMARK  status: ('A' for Active; 'I' for Inactive)
REMARK    1  A    between atoms: O_2  and  C_26
REMARK    2  A    between atoms: O_2  and  C_27
REMARK    3  A    between atoms: N_3  and  C_14
REMARK    4  A    between atoms: N_9  and  C_24
REMARK    5  A    between atoms: N_9  and  C_25
REMARK    6  A    between atoms: C_10  and  C_15
REMARK    7  A    between atoms: C_14  and  C_16
REMARK    8  A    between atoms: C_17  and  C_19
REMARK    9  A    between atoms: C_25  and  C_26
REMARK                            x       y       z     vdW  Elec       q    Type
REMARK                         _______ _______ _______ _____ _____    ______ ____
ROOT
ATOM      1  O   UNL     1      -2.183   1.424  25.617  0.00  0.00    -0.336 OA
ATOM      4  N   UNL     1      -1.714   1.705  23.445  0.00  0.00    -0.190 NA
ATOM      7  N   UNL     1      -0.835   1.081  25.463  0.00  0.00    -0.056 NA
ATOM     15  C   UNL     1      -2.625   1.780  24.382  0.00  0.00    +0.245 A 
ATOM     17  C   UNL     1      -0.633   1.272  24.156  0.00  0.00    +0.204 A 
ENDROOT
BRANCH  17  19
ATOM      8  N   UNL     1       2.912   1.756  23.142  0.00  0.00    -0.240 NA
ATOM     19  C   UNL     1       0.637   1.038  23.529  0.00  0.00    +0.041 A 
ATOM     21  C   UNL     1       0.845  -0.081  22.729  0.00  0.00    +0.016 A 
ATOM     22  C   UNL     1       1.693   1.918  23.702  0.00  0.00    +0.124 A 
ATOM     23  C   UNL     1       2.087  -0.281  22.134  0.00  0.00    +0.044 A 
ATOM     24  C   UNL     1       3.077   0.658  22.369  0.00  0.00    +0.119 A 
BRANCH  24   9
ATOM      9  N   UNL     1       4.336   0.439  21.759  0.00  0.00    -0.327 N 
ATOM     29  H   UNL     1       4.410   0.675  20.776  0.00  0.00    +0.148 HD
BRANCH   9  25
ATOM     25  C   UNL     1       5.455  -0.090  22.469  0.00  0.00    +0.131 C 
BRANCH  25  26
ATOM     26  C   UNL     1       5.404   0.348  23.923  0.00  0.00    +0.178 C 
BRANCH  26   2
ATOM      2  O   UNL     1       5.387  -0.799  24.763  0.00  0.00    -0.381 OA
ATOM     27  C   UNL     1       4.813  -1.919  24.105  0.00  0.00    +0.194 C 
ENDBRANCH  26   2
ENDBRANCH  25  26
ENDBRANCH   9  25
ENDBRANCH  24   9
ENDBRANCH  17  19
BRANCH  15  10
ATOM      3  N   UNL     1      -4.958   1.421  25.170  0.00  0.00    -0.284 NA
ATOM     10  C   UNL     1      -4.076   2.201  24.279  0.00  0.00    +0.146 C 
ATOM     11  C   UNL     1      -4.299   3.668  24.693  0.00  0.00    +0.030 C 
ATOM     12  C   UNL     1      -5.366   3.616  25.778  0.00  0.00    +0.017 C 
ATOM     13  C   UNL     1      -6.073   2.300  25.521  0.00  0.00    +0.085 C 
BRANCH   3  14
ATOM     14  C   UNL     1      -5.412   0.170  24.577  0.00  0.00    +0.159 C 
BRANCH  14  16
ATOM      5  N   UNL     1      -3.570  -1.049  25.759  0.00  0.00    -0.347 N 
ATOM      6  N   UNL     1      -4.062  -1.783  23.722  0.00  0.00    -0.239 NA
ATOM     16  C   UNL     1      -4.356  -0.901  24.651  0.00  0.00    +0.121 A 
ATOM     18  C   UNL     1      -2.720  -2.093  25.522  0.00  0.00    +0.104 A 
ATOM     20  C   UNL     1      -3.043  -2.530  24.259  0.00  0.00    +0.130 A 
ATOM     28  H   UNL     1      -3.607  -0.488  26.600  0.00  0.00    +0.167 HD
ENDBRANCH  14  16
ENDBRANCH   3  14
ENDBRANCH  15  10
TORSDOF 8
ENDMDL
