MODEL 1
REMARK VINA RESULT:       5.0      0.000      0.000
REMARK  Name = 40779471
REMARK  7 active torsions:
REMARK  status: ('A' for Active; 'I' for Inactive)
REMARK    1  A    between atoms: S_1  and  N_6
REMARK    2  A    between atoms: S_1  and  C_21
REMARK    3  A    between atoms: N_5  and  C_19
REMARK    4  A    between atoms: N_6  and  C_15
REMARK    5  A    between atoms: C_9  and  C_16
REMARK    6  A    between atoms: C_10  and  C_15
REMARK    7  A    between atoms: C_18  and  C_20
REMARK                            x       y       z     vdW  Elec       q    Type
REMARK                         _______ _______ _______ _____ _____    ______ ____
ROOT
ATOM      4  N   UNL     1      -5.127   3.756  24.715  0.00  0.00    -0.297 NA
ATOM      8  C   UNL     1      -2.869   3.606  26.004  0.00  0.00    +0.002 C 
ATOM      9  C   UNL     1      -2.618   3.651  24.471  0.00  0.00    +0.055 C 
ATOM     10  C   UNL     1      -5.181   2.652  25.709  0.00  0.00    +0.072 C 
ATOM     11  C   UNL     1      -3.790   2.413  26.334  0.00  0.00    +0.024 C 
ATOM     12  C   UNL     1      -3.642   4.891  26.367  0.00  0.00    +0.019 C 
ATOM     13  C   UNL     1      -4.003   3.536  23.772  0.00  0.00    +0.094 C 
ATOM     14  C   UNL     1      -4.873   5.017  25.452  0.00  0.00    +0.085 C 
ENDROOT
BRANCH   9  16
ATOM      5  N   UNL     1      -1.720   2.139  22.642  0.00  0.00    -0.270 N 
ATOM      7  N   UNL     1      -0.708   1.320  22.307  0.00  0.00    -0.171 NA
ATOM     16  C   UNL     1      -1.592   2.694  23.881  0.00  0.00    +0.044 A 
ATOM     17  C   UNL     1      -0.416   2.204  24.394  0.00  0.00    +0.053 A 
ATOM     18  C   UNL     1       0.085   1.364  23.381  0.00  0.00    +0.093 A 
ATOM     19  C   UNL     1      -2.799   2.345  21.705  0.00  0.00    +0.172 C 
BRANCH  18  20
ATOM     20  C   UNL     1       1.306   0.601  23.421  0.00  0.00    +0.003 A 
ATOM     22  C   UNL     1       2.538   1.257  23.414  0.00  0.00    +0.018 A 
ATOM     23  C   UNL     1       1.257  -0.789  23.466  0.00  0.00    +0.011 A 
ATOM     26  C   UNL     1       3.738   0.528  23.452  0.00  0.00    -0.017 A 
ATOM     27  C   UNL     1       2.438  -1.528  23.505  0.00  0.00    +0.009 A 
ATOM     28  C   UNL     1       3.687  -0.886  23.499  0.00  0.00    -0.018 A 
ATOM     31  C   UNL     1       4.986   1.171  23.446  0.00  0.00    +0.008 A 
ATOM     33  C   UNL     1       4.886  -1.615  23.538  0.00  0.00    +0.008 A 
ATOM     34  C   UNL     1       6.167   0.431  23.485  0.00  0.00    +0.001 A 
ATOM     35  C   UNL     1       6.119  -0.959  23.530  0.00  0.00    +0.001 A 
ENDBRANCH  18  20
ENDBRANCH   9  16
BRANCH  10  15
ATOM     15  C   UNL     1      -5.771   1.367  25.122  0.00  0.00    +0.124 C 
BRANCH  15   6
ATOM      6  N   UNL     1      -4.875   0.240  25.426  0.00  0.00    -0.188 NA
ATOM     36  H   UNL     1      -4.315   0.317  26.283  0.00  0.00    +0.148 HD
BRANCH   6   1
ATOM      1  S   UNL     1      -4.208  -0.688  24.164  0.00  0.00    +0.058 S 
ATOM      2  O   UNL     1      -3.921   0.174  23.034  0.00  0.00    -0.153 OA
ATOM      3  O   UNL     1      -5.005  -1.886  23.984  0.00  0.00    -0.153 OA
BRANCH   1  21
ATOM     21  C   UNL     1      -2.667  -1.196  24.866  0.00  0.00    +0.105 A 
ATOM     24  C   UNL     1      -2.066  -0.426  25.862  0.00  0.00    +0.028 A 
ATOM     25  C   UNL     1      -2.049  -2.366  24.421  0.00  0.00    +0.028 A 
ATOM     29  C   UNL     1      -0.848  -0.825  26.412  0.00  0.00    +0.002 A 
ATOM     30  C   UNL     1      -0.831  -2.764  24.971  0.00  0.00    +0.002 A 
ATOM     32  C   UNL     1      -0.231  -1.994  25.967  0.00  0.00    +0.000 A 
ENDBRANCH   1  21
ENDBRANCH   6   1
ENDBRANCH  15   6
ENDBRANCH  10  15
TORSDOF 6
ENDMDL
MODEL 2
REMARK VINA RESULT:       5.8      1.161      1.556
REMARK  Name = 40779471
REMARK  7 active torsions:
REMARK  status: ('A' for Active; 'I' for Inactive)
REMARK    1  A    between atoms: S_1  and  N_6
REMARK    2  A    between atoms: S_1  and  C_21
REMARK    3  A    between atoms: N_5  and  C_19
REMARK    4  A    between atoms: N_6  and  C_15
REMARK    5  A    between atoms: C_9  and  C_16
REMARK    6  A    between atoms: C_10  and  C_15
REMARK    7  A    between atoms: C_18  and  C_20
REMARK                            x       y       z     vdW  Elec       q    Type
REMARK                         _______ _______ _______ _____ _____    ______ ____
ROOT
ATOM      4  N   UNL     1      -6.038   3.050  24.556  0.00  0.00    -0.297 NA
ATOM      8  C   UNL     1      -4.255   4.126  26.120  0.00  0.00    +0.002 C 
ATOM      9  C   UNL     1      -3.726   4.054  24.661  0.00  0.00    +0.055 C 
ATOM     10  C   UNL     1      -5.838   2.200  25.759  0.00  0.00    +0.072 C 
ATOM     11  C   UNL     1      -4.642   2.710  26.592  0.00  0.00    +0.024 C 
ATOM     12  C   UNL     1      -5.552   4.963  26.083  0.00  0.00    +0.019 C 
ATOM     13  C   UNL     1      -4.752   3.225  23.837  0.00  0.00    +0.094 C 
ATOM     14  C   UNL     1      -6.497   4.383  25.014  0.00  0.00    +0.085 C 
ENDROOT
BRANCH   9  16
ATOM      5  N   UNL     1      -1.213   4.400  24.612  0.00  0.00    -0.270 N 
ATOM      7  N   UNL     1      -0.037   3.798  24.364  0.00  0.00    -0.171 NA
ATOM     16  C   UNL     1      -2.295   3.588  24.437  0.00  0.00    +0.044 A 
ATOM     17  C   UNL     1      -1.792   2.371  24.046  0.00  0.00    +0.053 A 
ATOM     18  C   UNL     1      -0.397   2.559  24.018  0.00  0.00    +0.093 A 
ATOM     19  C   UNL     1      -1.224   5.785  25.020  0.00  0.00    +0.172 C 
BRANCH  18  20
ATOM     20  C   UNL     1       0.597   1.579  23.666  0.00  0.00    +0.003 A 
ATOM     22  C   UNL     1       1.952   1.882  23.804  0.00  0.00    +0.018 A 
ATOM     23  C   UNL     1       0.206   0.331  23.190  0.00  0.00    +0.011 A 
ATOM     26  C   UNL     1       2.935   0.937  23.466  0.00  0.00    -0.017 A 
ATOM     27  C   UNL     1       1.168  -0.619  22.849  0.00  0.00    +0.009 A 
ATOM     28  C   UNL     1       2.537  -0.333  22.981  0.00  0.00    -0.018 A 
ATOM     31  C   UNL     1       4.303   1.223  23.598  0.00  0.00    +0.008 A 
ATOM     33  C   UNL     1       3.519  -1.277  22.643  0.00  0.00    +0.008 A 
ATOM     34  C   UNL     1       5.265   0.272  23.257  0.00  0.00    +0.001 A 
ATOM     35  C   UNL     1       4.875  -0.975  22.780  0.00  0.00    +0.001 A 
ENDBRANCH  18  20
ENDBRANCH   9  16
BRANCH  10  15
ATOM     15  C   UNL     1      -5.697   0.717  25.408  0.00  0.00    +0.124 C 
BRANCH  15   6
ATOM      6  N   UNL     1      -4.272   0.395  25.228  0.00  0.00    -0.188 NA
ATOM     36  H   UNL     1      -3.602   1.141  25.448  0.00  0.00    +0.148 HD
BRANCH   6   1
ATOM      1  S   UNL     1      -3.792  -0.733  24.047  0.00  0.00    +0.058 S 
ATOM      2  O   UNL     1      -3.458  -0.032  22.822  0.00  0.00    -0.153 OA
ATOM      3  O   UNL     1      -4.742  -1.829  24.023  0.00  0.00    -0.153 OA
BRANCH   1  21
ATOM     21  C   UNL     1      -2.294  -1.365  24.740  0.00  0.00    +0.105 A 
ATOM     24  C   UNL     1      -1.662  -0.680  25.777  0.00  0.00    +0.028 A 
ATOM     25  C   UNL     1      -1.741  -2.547  24.245  0.00  0.00    +0.028 A 
ATOM     29  C   UNL     1      -0.477  -1.177  26.321  0.00  0.00    +0.002 A 
ATOM     30  C   UNL     1      -0.556  -3.043  24.788  0.00  0.00    +0.002 A 
ATOM     32  C   UNL     1       0.076  -2.359  25.826  0.00  0.00    +0.000 A 
ENDBRANCH   1  21
ENDBRANCH   6   1
ENDBRANCH  15   6
ENDBRANCH  10  15
TORSDOF 6
ENDMDL
MODEL 3
REMARK VINA RESULT:       7.5      2.537      4.025
REMARK  Name = 40779471
REMARK  7 active torsions:
REMARK  status: ('A' for Active; 'I' for Inactive)
REMARK    1  A    between atoms: S_1  and  N_6
REMARK    2  A    between atoms: S_1  and  C_21
REMARK    3  A    between atoms: N_5  and  C_19
REMARK    4  A    between atoms: N_6  and  C_15
REMARK    5  A    between atoms: C_9  and  C_16
REMARK    6  A    between atoms: C_10  and  C_15
REMARK    7  A    between atoms: C_18  and  C_20
REMARK                            x       y       z     vdW  Elec       q    Type
REMARK                         _______ _______ _______ _____ _____    ______ ____
ROOT
ATOM      4  N   UNL     1      -5.617   1.947  26.389  0.00  0.00    -0.297 NA
ATOM      8  C   UNL     1      -5.177   1.358  23.890  0.00  0.00    +0.002 C 
ATOM      9  C   UNL     1      -4.740   0.184  24.811  0.00  0.00    +0.055 C 
ATOM     10  C   UNL     1      -4.880   3.055  25.727  0.00  0.00    +0.072 C 
ATOM     11  C   UNL     1      -4.430   2.640  24.310  0.00  0.00    +0.024 C 
ATOM     12  C   UNL     1      -6.678   1.598  24.158  0.00  0.00    +0.019 C 
ATOM     13  C   UNL     1      -4.843   0.685  26.280  0.00  0.00    +0.094 C 
ATOM     14  C   UNL     1      -6.902   1.764  25.672  0.00  0.00    +0.085 C 
ENDROOT
BRANCH   9  16
ATOM      5  N   UNL     1      -3.309  -1.802  24.141  0.00  0.00    -0.270 N 
ATOM      7  N   UNL     1      -2.046  -2.212  23.938  0.00  0.00    -0.171 NA
ATOM     16  C   UNL     1      -3.409  -0.496  24.525  0.00  0.00    +0.044 A 
ATOM     17  C   UNL     1      -2.122  -0.021  24.579  0.00  0.00    +0.053 A 
ATOM     18  C   UNL     1      -1.325  -1.120  24.207  0.00  0.00    +0.093 A 
ATOM     19  C   UNL     1      -4.394  -2.734  23.944  0.00  0.00    +0.172 C 
BRANCH  18  20
ATOM     20  C   UNL     1       0.111  -1.148  24.106  0.00  0.00    +0.003 A 
ATOM     22  C   UNL     1       0.769  -0.240  23.276  0.00  0.00    +0.018 A 
ATOM     23  C   UNL     1       0.842  -2.081  24.838  0.00  0.00    +0.011 A 
ATOM     26  C   UNL     1       2.169  -0.254  23.166  0.00  0.00    -0.017 A 
ATOM     27  C   UNL     1       2.233  -2.108  24.741  0.00  0.00    +0.009 A 
ATOM     28  C   UNL     1       2.912  -1.202  23.910  0.00  0.00    -0.018 A 
ATOM     31  C   UNL     1       2.848   0.652  22.336  0.00  0.00    +0.008 A 
ATOM     33  C   UNL     1       4.312  -1.216  23.801  0.00  0.00    +0.008 A 
ATOM     34  C   UNL     1       4.239   0.624  22.240  0.00  0.00    +0.001 A 
ATOM     35  C   UNL     1       4.970  -0.308  22.970  0.00  0.00    +0.001 A 
ENDBRANCH  18  20
ENDBRANCH   9  16
BRANCH  10  15
ATOM     15  C   UNL     1      -3.709   3.563  26.572  0.00  0.00    +0.124 C 
BRANCH  15   6
ATOM      6  N   UNL     1      -3.420   4.959  26.209  0.00  0.00    -0.188 NA
ATOM     36  H   UNL     1      -4.175   5.639  26.360  0.00  0.00    +0.148 HD
BRANCH   6   1
ATOM      1  S   UNL     1      -2.324   5.309  24.954  0.00  0.00    +0.058 S 
ATOM      2  O   UNL     1      -1.653   6.562  25.238  0.00  0.00    -0.153 OA
ATOM      3  O   UNL     1      -2.985   5.109  23.678  0.00  0.00    -0.153 OA
BRANCH   1  21
ATOM     21  C   UNL     1      -1.144   4.005  25.133  0.00  0.00    +0.105 A 
ATOM     24  C   UNL     1      -0.389   3.592  24.035  0.00  0.00    +0.028 A 
ATOM     25  C   UNL     1      -0.970   3.386  26.372  0.00  0.00    +0.028 A 
ATOM     29  C   UNL     1       0.540   2.561  24.176  0.00  0.00    +0.002 A 
ATOM     30  C   UNL     1      -0.042   2.354  26.512  0.00  0.00    +0.002 A 
ATOM     32  C   UNL     1       0.713   1.942  25.414  0.00  0.00    +0.000 A 
ENDBRANCH   1  21
ENDBRANCH   6   1
ENDBRANCH  15   6
ENDBRANCH  10  15
TORSDOF 6
ENDMDL
MODEL 4
REMARK VINA RESULT:       7.7      2.504      3.955
REMARK  Name = 40779471
REMARK  7 active torsions:
REMARK  status: ('A' for Active; 'I' for Inactive)
REMARK    1  A    between atoms: S_1  and  N_6
REMARK    2  A    between atoms: S_1  and  C_21
REMARK    3  A    between atoms: N_5  and  C_19
REMARK    4  A    between atoms: N_6  and  C_15
REMARK    5  A    between atoms: C_9  and  C_16
REMARK    6  A    between atoms: C_10  and  C_15
REMARK    7  A    between atoms: C_18  and  C_20
REMARK                            x       y       z     vdW  Elec       q    Type
REMARK                         _______ _______ _______ _____ _____    ______ ____
ROOT
ATOM      4  N   UNL     1      -5.250   2.436  26.004  0.00  0.00    -0.297 NA
ATOM      8  C   UNL     1      -5.051   0.941  23.881  0.00  0.00    +0.002 C 
ATOM      9  C   UNL     1      -4.130   0.405  25.012  0.00  0.00    +0.055 C 
ATOM     10  C   UNL     1      -5.010   3.283  24.806  0.00  0.00    +0.072 C 
ATOM     11  C   UNL     1      -4.684   2.408  23.577  0.00  0.00    +0.024 C 
ATOM     12  C   UNL     1      -6.490   0.940  24.440  0.00  0.00    +0.019 C 
ATOM     13  C   UNL     1      -4.149   1.453  26.161  0.00  0.00    +0.094 C 
ATOM     14  C   UNL     1      -6.511   1.688  25.785  0.00  0.00    +0.085 C 
ENDROOT
BRANCH   9  16
ATOM      5  N   UNL     1      -2.348  -1.331  24.513  0.00  0.00    -0.270 N 
ATOM      7  N   UNL     1      -1.055  -1.499  24.185  0.00  0.00    -0.171 NA
ATOM     16  C   UNL     1      -2.717  -0.024  24.645  0.00  0.00    +0.044 A 
ATOM     17  C   UNL     1      -1.588   0.713  24.387  0.00  0.00    +0.053 A 
ATOM     18  C   UNL     1      -0.596  -0.247  24.110  0.00  0.00    +0.093 A 
ATOM     19  C   UNL     1      -3.188  -2.493  24.689  0.00  0.00    +0.172 C 
BRANCH  18  20
ATOM     20  C   UNL     1       0.781   0.009  23.776  0.00  0.00    +0.003 A 
ATOM     22  C   UNL     1       1.751  -0.960  24.033  0.00  0.00    +0.018 A 
ATOM     23  C   UNL     1       1.143   1.222  23.197  0.00  0.00    +0.011 A 
ATOM     26  C   UNL     1       3.099  -0.726  23.714  0.00  0.00    -0.017 A 
ATOM     27  C   UNL     1       2.476   1.470  22.872  0.00  0.00    +0.009 A 
ATOM     28  C   UNL     1       3.467   0.507  23.124  0.00  0.00    -0.018 A 
ATOM     31  C   UNL     1       4.089  -1.690  23.965  0.00  0.00    +0.008 A 
ATOM     33  C   UNL     1       4.814   0.740  22.804  0.00  0.00    +0.008 A 
ATOM     34  C   UNL     1       5.423  -1.441  23.640  0.00  0.00    +0.001 A 
ATOM     35  C   UNL     1       5.785  -0.228  23.062  0.00  0.00    +0.001 A 
ENDBRANCH  18  20
ENDBRANCH   9  16
BRANCH  10  15
ATOM     15  C   UNL     1      -3.936   4.347  25.051  0.00  0.00    +0.124 C 
BRANCH  15   6
ATOM      6  N   UNL     1      -2.828   4.142  24.104  0.00  0.00    -0.188 NA
ATOM     36  H   UNL     1      -2.847   3.275  23.556  0.00  0.00    +0.148 HD
BRANCH   6   1
ATOM      1  S   UNL     1      -1.292   4.800  24.429  0.00  0.00    +0.058 S 
ATOM      2  O   UNL     1      -1.448   6.136  24.974  0.00  0.00    -0.153 OA
ATOM      3  O   UNL     1      -0.428   4.576  23.286  0.00  0.00    -0.153 OA
BRANCH   1  21
ATOM     21  C   UNL     1      -0.715   3.747  25.727  0.00  0.00    +0.105 A 
ATOM     24  C   UNL     1      -1.537   3.472  26.819  0.00  0.00    +0.028 A 
ATOM     25  C   UNL     1       0.565   3.195  25.660  0.00  0.00    +0.028 A 
ATOM     29  C   UNL     1      -1.080   2.643  27.844  0.00  0.00    +0.002 A 
ATOM     30  C   UNL     1       1.022   2.367  26.686  0.00  0.00    +0.002 A 
ATOM     32  C   UNL     1       0.199   2.092  27.777  0.00  0.00    +0.000 A 
ENDBRANCH   1  21
ENDBRANCH   6   1
ENDBRANCH  15   6
ENDBRANCH  10  15
TORSDOF 6
ENDMDL
MODEL 5
REMARK VINA RESULT:       8.1      2.862      3.951
REMARK  Name = 40779471
REMARK  7 active torsions:
REMARK  status: ('A' for Active; 'I' for Inactive)
REMARK    1  A    between atoms: S_1  and  N_6
REMARK    2  A    between atoms: S_1  and  C_21
REMARK    3  A    between atoms: N_5  and  C_19
REMARK    4  A    between atoms: N_6  and  C_15
REMARK    5  A    between atoms: C_9  and  C_16
REMARK    6  A    between atoms: C_10  and  C_15
REMARK    7  A    between atoms: C_18  and  C_20
REMARK                            x       y       z     vdW  Elec       q    Type
REMARK                         _______ _______ _______ _____ _____    ______ ____
ROOT
ATOM      4  N   UNL     1      -4.565   2.233  25.671  0.00  0.00    -0.297 NA
ATOM      8  C   UNL     1      -3.411   2.526  23.355  0.00  0.00    +0.002 C 
ATOM      9  C   UNL     1      -3.188   1.086  23.896  0.00  0.00    +0.055 C 
ATOM     10  C   UNL     1      -3.732   3.464  25.670  0.00  0.00    +0.072 C 
ATOM     11  C   UNL     1      -2.881   3.544  24.385  0.00  0.00    +0.024 C 
ATOM     12  C   UNL     1      -4.938   2.733  23.256  0.00  0.00    +0.019 C 
ATOM     13  C   UNL     1      -3.725   1.051  25.355  0.00  0.00    +0.094 C 
ATOM     14  C   UNL     1      -5.586   2.374  24.606  0.00  0.00    +0.085 C 
ENDROOT
BRANCH   9  16
ATOM      5  N   UNL     1      -1.554  -0.856  23.895  0.00  0.00    -0.270 N 
ATOM      7  N   UNL     1      -0.259  -1.187  23.760  0.00  0.00    -0.171 NA
ATOM     16  C   UNL     1      -1.796   0.482  23.778  0.00  0.00    +0.044 A 
ATOM     17  C   UNL     1      -0.574   1.066  23.552  0.00  0.00    +0.053 A 
ATOM     18  C   UNL     1       0.335  -0.008  23.551  0.00  0.00    +0.093 A 
ATOM     19  C   UNL     1      -2.525  -1.896  24.142  0.00  0.00    +0.172 C 
BRANCH  18  20
ATOM     20  C   UNL     1       1.759   0.069  23.356  0.00  0.00    +0.003 A 
ATOM     22  C   UNL     1       2.577  -0.986  23.763  0.00  0.00    +0.018 A 
ATOM     23  C   UNL     1       2.320   1.196  22.761  0.00  0.00    +0.011 A 
ATOM     26  C   UNL     1       3.968  -0.927  23.580  0.00  0.00    -0.017 A 
ATOM     27  C   UNL     1       3.699   1.271  22.571  0.00  0.00    +0.009 A 
ATOM     28  C   UNL     1       4.538   0.219  22.974  0.00  0.00    -0.018 A 
ATOM     31  C   UNL     1       4.806  -1.979  23.983  0.00  0.00    +0.008 A 
ATOM     33  C   UNL     1       5.928   0.278  22.791  0.00  0.00    +0.008 A 
ATOM     34  C   UNL     1       6.185  -1.903  23.793  0.00  0.00    +0.001 A 
ATOM     35  C   UNL     1       6.746  -0.776  23.198  0.00  0.00    +0.001 A 
ENDBRANCH  18  20
ENDBRANCH   9  16
BRANCH  10  15
ATOM     15  C   UNL     1      -2.873   3.589  26.931  0.00  0.00    +0.124 C 
BRANCH  15   6
ATOM      6  N   UNL     1      -1.479   3.856  26.543  0.00  0.00    -0.188 NA
ATOM     36  H   UNL     1      -1.311   4.704  25.988  0.00  0.00    +0.148 HD
BRANCH   6   1
ATOM      1  S   UNL     1      -0.394   2.566  26.305  0.00  0.00    +0.058 S 
ATOM      2  O   UNL     1       0.430   2.841  25.144  0.00  0.00    -0.153 OA
ATOM      3  O   UNL     1      -1.118   1.313  26.404  0.00  0.00    -0.153 OA
BRANCH   1  21
ATOM     21  C   UNL     1       0.630   2.686  27.741  0.00  0.00    +0.105 A 
ATOM     24  C   UNL     1       1.973   3.039  27.612  0.00  0.00    +0.028 A 
ATOM     25  C   UNL     1       0.095   2.422  29.003  0.00  0.00    +0.028 A 
ATOM     29  C   UNL     1       2.781   3.130  28.746  0.00  0.00    +0.002 A 
ATOM     30  C   UNL     1       0.904   2.511  30.135  0.00  0.00    +0.002 A 
ATOM     32  C   UNL     1       2.247   2.866  30.007  0.00  0.00    +0.000 A 
ENDBRANCH   1  21
ENDBRANCH   6   1
ENDBRANCH  15   6
ENDBRANCH  10  15
TORSDOF 6
ENDMDL
MODEL 6
REMARK VINA RESULT:       8.2      2.832      3.978
REMARK  Name = 40779471
REMARK  7 active torsions:
REMARK  status: ('A' for Active; 'I' for Inactive)
REMARK    1  A    between atoms: S_1  and  N_6
REMARK    2  A    between atoms: S_1  and  C_21
REMARK    3  A    between atoms: N_5  and  C_19
REMARK    4  A    between atoms: N_6  and  C_15
REMARK    5  A    between atoms: C_9  and  C_16
REMARK    6  A    between atoms: C_10  and  C_15
REMARK    7  A    between atoms: C_18  and  C_20
REMARK                            x       y       z     vdW  Elec       q    Type
REMARK                         _______ _______ _______ _____ _____    ______ ____
ROOT
ATOM      4  N   UNL     1      -4.991   2.562  26.248  0.00  0.00    -0.297 NA
ATOM      8  C   UNL     1      -4.802   1.580  23.844  0.00  0.00    +0.002 C 
ATOM      9  C   UNL     1      -4.286   0.555  24.892  0.00  0.00    +0.055 C 
ATOM     10  C   UNL     1      -4.313   3.536  25.352  0.00  0.00    +0.072 C 
ATOM     11  C   UNL     1      -4.007   2.894  23.983  0.00  0.00    +0.024 C 
ATOM     12  C   UNL     1      -6.268   1.894  24.212  0.00  0.00    +0.019 C 
ATOM     13  C   UNL     1      -4.241   1.281  26.267  0.00  0.00    +0.094 C 
ATOM     14  C   UNL     1      -6.341   2.300  25.695  0.00  0.00    +0.085 C 
ENDROOT
BRANCH   9  16
ATOM      5  N   UNL     1      -2.966  -1.505  24.218  0.00  0.00    -0.270 N 
ATOM      7  N   UNL     1      -1.728  -1.979  23.999  0.00  0.00    -0.171 NA
ATOM     16  C   UNL     1      -2.995  -0.193  24.591  0.00  0.00    +0.044 A 
ATOM     17  C   UNL     1      -1.685   0.219  24.620  0.00  0.00    +0.053 A 
ATOM     18  C   UNL     1      -0.950  -0.922  24.247  0.00  0.00    +0.093 A 
ATOM     19  C   UNL     1      -4.099  -2.385  24.048  0.00  0.00    +0.172 C 
BRANCH  18  20
ATOM     20  C   UNL     1       0.481  -1.021  24.123  0.00  0.00    +0.003 A 
ATOM     22  C   UNL     1       1.189  -0.046  23.419  0.00  0.00    +0.018 A 
ATOM     23  C   UNL     1       1.157  -2.090  24.705  0.00  0.00    +0.011 A 
ATOM     26  C   UNL     1       2.585  -0.128  23.290  0.00  0.00    -0.017 A 
ATOM     27  C   UNL     1       2.543  -2.187  24.586  0.00  0.00    +0.009 A 
ATOM     28  C   UNL     1       3.273  -1.215  23.882  0.00  0.00    -0.018 A 
ATOM     31  C   UNL     1       3.314   0.844  22.586  0.00  0.00    +0.008 A 
ATOM     33  C   UNL     1       4.668  -1.297  23.753  0.00  0.00    +0.008 A 
ATOM     34  C   UNL     1       4.701   0.746  22.468  0.00  0.00    +0.001 A 
ATOM     35  C   UNL     1       5.377  -0.322  23.049  0.00  0.00    +0.001 A 
ENDBRANCH  18  20
ENDBRANCH   9  16
BRANCH  10  15
ATOM     15  C   UNL     1      -3.061   4.142  25.991  0.00  0.00    +0.124 C 
BRANCH  15   6
ATOM      6  N   UNL     1      -2.038   3.094  26.140  0.00  0.00    -0.188 NA
ATOM     36  H   UNL     1      -2.175   2.426  26.908  0.00  0.00    +0.148 HD
BRANCH   6   1
ATOM      1  S   UNL     1      -0.429   3.396  25.673  0.00  0.00    +0.058 S 
ATOM      2  O   UNL     1      -0.269   4.808  25.388  0.00  0.00    -0.153 OA
ATOM      3  O   UNL     1      -0.025   2.404  24.694  0.00  0.00    -0.153 OA
BRANCH   1  21
ATOM     21  C   UNL     1       0.452   3.037  27.163  0.00  0.00    +0.105 A 
ATOM     24  C   UNL     1      -0.238   2.602  28.294  0.00  0.00    +0.028 A 
ATOM     25  C   UNL     1       1.838   3.195  27.209  0.00  0.00    +0.028 A 
ATOM     29  C   UNL     1       0.458   2.323  29.471  0.00  0.00    +0.002 A 
ATOM     30  C   UNL     1       2.533   2.917  28.386  0.00  0.00    +0.002 A 
ATOM     32  C   UNL     1       1.843   2.481  29.516  0.00  0.00    +0.000 A 
ENDBRANCH   1  21
ENDBRANCH   6   1
ENDBRANCH  15   6
ENDBRANCH  10  15
TORSDOF 6
ENDMDL
MODEL 7
REMARK VINA RESULT:       8.2      2.390      4.128
REMARK  Name = 40779471
REMARK  7 active torsions:
REMARK  status: ('A' for Active; 'I' for Inactive)
REMARK    1  A    between atoms: S_1  and  N_6
REMARK    2  A    between atoms: S_1  and  C_21
REMARK    3  A    between atoms: N_5  and  C_19
REMARK    4  A    between atoms: N_6  and  C_15
REMARK    5  A    between atoms: C_9  and  C_16
REMARK    6  A    between atoms: C_10  and  C_15
REMARK    7  A    between atoms: C_18  and  C_20
REMARK                            x       y       z     vdW  Elec       q    Type
REMARK                         _______ _______ _______ _____ _____    ______ ____
ROOT
ATOM      4  N   UNL     1      -5.582   2.079  26.828  0.00  0.00    -0.297 NA
ATOM      8  C   UNL     1      -5.362   1.479  24.303  0.00  0.00    +0.002 C 
ATOM      9  C   UNL     1      -4.835   0.314  25.188  0.00  0.00    +0.055 C 
ATOM     10  C   UNL     1      -4.916   3.190  26.098  0.00  0.00    +0.072 C 
ATOM     11  C   UNL     1      -4.590   2.769  24.649  0.00  0.00    +0.024 C 
ATOM     12  C   UNL     1      -6.835   1.711  24.702  0.00  0.00    +0.019 C 
ATOM     13  C   UNL     1      -4.811   0.823  26.657  0.00  0.00    +0.094 C 
ATOM     14  C   UNL     1      -6.924   1.884  26.230  0.00  0.00    +0.085 C 
ENDROOT
BRANCH   9  16
ATOM      5  N   UNL     1      -3.476  -1.601  24.227  0.00  0.00    -0.270 N 
ATOM      7  N   UNL     1      -2.228  -2.016  23.947  0.00  0.00    -0.171 NA
ATOM     16  C   UNL     1      -3.530  -0.358  24.788  0.00  0.00    +0.044 A 
ATOM     17  C   UNL     1      -2.228   0.068  24.883  0.00  0.00    +0.053 A 
ATOM     18  C   UNL     1      -1.471  -0.992  24.351  0.00  0.00    +0.093 A 
ATOM     19  C   UNL     1      -4.591  -2.466  23.924  0.00  0.00    +0.172 C 
BRANCH  18  20
ATOM     20  C   UNL     1      -0.038  -1.047  24.222  0.00  0.00    +0.003 A 
ATOM     22  C   UNL     1       0.636  -0.053  23.512  0.00  0.00    +0.018 A 
ATOM     23  C   UNL     1       0.674  -2.091  24.806  0.00  0.00    +0.011 A 
ATOM     26  C   UNL     1       2.034  -0.092  23.377  0.00  0.00    -0.017 A 
ATOM     27  C   UNL     1       2.062  -2.145  24.682  0.00  0.00    +0.009 A 
ATOM     28  C   UNL     1       2.758  -1.154  23.971  0.00  0.00    -0.018 A 
ATOM     31  C   UNL     1       2.729   0.900  22.666  0.00  0.00    +0.008 A 
ATOM     33  C   UNL     1       4.155  -1.192  23.837  0.00  0.00    +0.008 A 
ATOM     34  C   UNL     1       4.117   0.845  22.542  0.00  0.00    +0.001 A 
ATOM     35  C   UNL     1       4.829  -0.198  23.126  0.00  0.00    +0.001 A 
ENDBRANCH  18  20
ENDBRANCH   9  16
BRANCH  10  15
ATOM     15  C   UNL     1      -3.678   3.710  26.833  0.00  0.00    +0.124 C 
BRANCH  15   6
ATOM      6  N   UNL     1      -2.967   4.665  25.967  0.00  0.00    -0.188 NA
ATOM     36  H   UNL     1      -3.547   5.338  25.452  0.00  0.00    +0.148 HD
BRANCH   6   1
ATOM      1  S   UNL     1      -1.488   4.228  25.245  0.00  0.00    +0.058 S 
ATOM      2  O   UNL     1      -0.845   3.207  26.049  0.00  0.00    -0.153 OA
ATOM      3  O   UNL     1      -0.765   5.431  24.880  0.00  0.00    -0.153 OA
BRANCH   1  21
ATOM     21  C   UNL     1      -2.030   3.476  23.740  0.00  0.00    +0.105 A 
ATOM     24  C   UNL     1      -3.143   3.982  23.069  0.00  0.00    +0.028 A 
ATOM     25  C   UNL     1      -1.347   2.373  23.226  0.00  0.00    +0.028 A 
ATOM     29  C   UNL     1      -3.572   3.385  21.883  0.00  0.00    +0.002 A 
ATOM     30  C   UNL     1      -1.777   1.776  22.041  0.00  0.00    +0.002 A 
ATOM     32  C   UNL     1      -2.889   2.283  21.370  0.00  0.00    +0.000 A 
ENDBRANCH   1  21
ENDBRANCH   6   1
ENDBRANCH  15   6
ENDBRANCH  10  15
TORSDOF 6
ENDMDL
MODEL 8
REMARK VINA RESULT:       8.6      1.136      1.668
REMARK  Name = 40779471
REMARK  7 active torsions:
REMARK  status: ('A' for Active; 'I' for Inactive)
REMARK    1  A    between atoms: S_1  and  N_6
REMARK    2  A    between atoms: S_1  and  C_21
REMARK    3  A    between atoms: N_5  and  C_19
REMARK    4  A    between atoms: N_6  and  C_15
REMARK    5  A    between atoms: C_9  and  C_16
REMARK    6  A    between atoms: C_10  and  C_15
REMARK    7  A    between atoms: C_18  and  C_20
REMARK                            x       y       z     vdW  Elec       q    Type
REMARK                         _______ _______ _______ _____ _____    ______ ____
ROOT
ATOM      4  N   UNL     1      -5.009   3.846  24.657  0.00  0.00    -0.297 NA
ATOM      8  C   UNL     1      -2.677   3.876  25.816  0.00  0.00    +0.002 C 
ATOM      9  C   UNL     1      -2.519   3.681  24.282  0.00  0.00    +0.055 C 
ATOM     10  C   UNL     1      -5.003   2.910  25.812  0.00  0.00    +0.072 C 
ATOM     11  C   UNL     1      -3.577   2.759  26.382  0.00  0.00    +0.024 C 
ATOM     12  C   UNL     1      -3.427   5.210  26.020  0.00  0.00    +0.019 C 
ATOM     13  C   UNL     1      -3.944   3.472  23.693  0.00  0.00    +0.094 C 
ATOM     14  C   UNL     1      -4.711   5.204  25.171  0.00  0.00    +0.085 C 
ENDROOT
BRANCH   9  16
ATOM      5  N   UNL     1      -1.730   1.900  22.656  0.00  0.00    -0.270 N 
ATOM      7  N   UNL     1      -0.740   1.029  22.394  0.00  0.00    -0.171 NA
ATOM     16  C   UNL     1      -1.531   2.634  23.789  0.00  0.00    +0.044 A 
ATOM     17  C   UNL     1      -0.329   2.214  24.304  0.00  0.00    +0.053 A 
ATOM     18  C   UNL     1       0.112   1.225  23.404  0.00  0.00    +0.093 A 
ATOM     19  C   UNL     1      -2.859   1.975  21.760  0.00  0.00    +0.172 C 
BRANCH  18  20
ATOM     20  C   UNL     1       1.331   0.464  23.491  0.00  0.00    +0.003 A 
ATOM     22  C   UNL     1       2.562   1.099  23.325  0.00  0.00    +0.018 A 
ATOM     23  C   UNL     1       1.280  -0.905  23.742  0.00  0.00    +0.011 A 
ATOM     26  C   UNL     1       3.761   0.370  23.407  0.00  0.00    -0.017 A 
ATOM     27  C   UNL     1       2.460  -1.643  23.827  0.00  0.00    +0.009 A 
ATOM     28  C   UNL     1       3.708  -1.022  23.662  0.00  0.00    -0.018 A 
ATOM     31  C   UNL     1       5.009   0.992  23.242  0.00  0.00    +0.008 A 
ATOM     33  C   UNL     1       4.906  -1.749  23.745  0.00  0.00    +0.008 A 
ATOM     34  C   UNL     1       6.188   0.253  23.328  0.00  0.00    +0.001 A 
ATOM     35  C   UNL     1       6.138  -1.115  23.578  0.00  0.00    +0.001 A 
ENDBRANCH  18  20
ENDBRANCH   9  16
BRANCH  10  15
ATOM     15  C   UNL     1      -5.627   1.556  25.467  0.00  0.00    +0.124 C 
BRANCH  15   6
ATOM      6  N   UNL     1      -4.609   0.700  24.836  0.00  0.00    -0.188 NA
ATOM     36  H   UNL     1      -4.846   0.305  23.919  0.00  0.00    +0.148 HD
BRANCH   6   1
ATOM      1  S   UNL     1      -3.536  -0.206  25.799  0.00  0.00    +0.058 S 
ATOM      2  O   UNL     1      -4.228  -0.662  26.989  0.00  0.00    -0.153 OA
ATOM      3  O   UNL     1      -2.281   0.512  25.916  0.00  0.00    -0.153 OA
BRANCH   1  21
ATOM     21  C   UNL     1      -3.232  -1.613  24.772  0.00  0.00    +0.105 A 
ATOM     24  C   UNL     1      -4.284  -2.213  24.082  0.00  0.00    +0.028 A 
ATOM     25  C   UNL     1      -1.938  -2.125  24.657  0.00  0.00    +0.028 A 
ATOM     29  C   UNL     1      -4.044  -3.326  23.275  0.00  0.00    +0.002 A 
ATOM     30  C   UNL     1      -1.699  -3.238  23.851  0.00  0.00    +0.002 A 
ATOM     32  C   UNL     1      -2.751  -3.838  23.160  0.00  0.00    +0.000 A 
ENDBRANCH   1  21
ENDBRANCH   6   1
ENDBRANCH  15   6
ENDBRANCH  10  15
TORSDOF 6
ENDMDL
