MODEL 1
REMARK VINA RESULT:      -2.5      0.000      0.000
REMARK  Name = 11912902
REMARK  8 active torsions:
REMARK  status: ('A' for Active; 'I' for Inactive)
REMARK    1  A    between atoms: S_1  and  C_20
REMARK    2  A    between atoms: S_1  and  C_25
REMARK    3  A    between atoms: O_6  and  C_27
REMARK    4  A    between atoms: N_8  and  C_14
REMARK    5  A    between atoms: N_9  and  C_15
REMARK    6  A    between atoms: C_18  and  C_20
REMARK    7  A    between atoms: C_21  and  C_24
REMARK    8  A    between atoms: C_25  and  C_27
REMARK                            x       y       z     vdW  Elec       q    Type
REMARK                         _______ _______ _______ _____ _____    ______ ____
ROOT
ATOM      3  O   UNL     1      -1.127  -0.992  26.327  0.00  0.00    -0.370 OA
ATOM      4  O   UNL     1      -2.726  -2.454  24.081  0.00  0.00    -0.370 OA
ATOM     12  C   UNL     1      -2.008  -1.210  24.129  0.00  0.00    +0.171 C 
ATOM     13  C   UNL     1      -2.239  -0.607  25.501  0.00  0.00    +0.171 C 
ATOM     14  C   UNL     1      -0.518  -1.460  24.083  0.00  0.00    +0.130 C 
ATOM     15  C   UNL     1      -3.507  -1.269  25.987  0.00  0.00    +0.130 C 
ATOM     16  C   UNL     1      -0.190  -1.740  25.538  0.00  0.00    +0.185 C 
ATOM     17  C   UNL     1      -3.458  -2.624  25.304  0.00  0.00    +0.185 C 
ENDROOT
BRANCH  15   9
ATOM      9  N   UNL     1      -4.659  -0.521  25.533  0.00  0.00    -0.306 N 
ATOM     10  N   UNL     1      -3.421   1.430  25.301  0.00  0.00    -0.214 NA
ATOM     11  N   UNL     1      -5.774   1.374  24.786  0.00  0.00    -0.223 NA
ATOM     19  C   UNL     1      -4.616   0.819  25.193  0.00  0.00    +0.216 A 
ATOM     21  C   UNL     1      -3.415   2.735  24.960  0.00  0.00    +0.083 A 
ATOM     22  C   UNL     1      -5.696   2.681  24.461  0.00  0.00    +0.116 A 
ATOM     23  C   UNL     1      -4.533   3.420  24.529  0.00  0.00    +0.049 A 
ATOM     31  H   UNL     1      -5.544  -1.000  25.403  0.00  0.00    +0.149 HD
BRANCH  21  24
ATOM      2  S   UNL     1      -0.782   2.458  25.574  0.00  0.00    -0.095 S 
ATOM     24  C   UNL     1      -2.136   3.383  25.079  0.00  0.00    +0.038 A 
ATOM     26  C   UNL     1      -1.805   4.699  24.846  0.00  0.00    +0.017 A 
ATOM     28  C   UNL     1      -0.423   4.952  25.078  0.00  0.00    +0.008 A 
ATOM     29  C   UNL     1       0.251   3.820  25.478  0.00  0.00    +0.046 A 
ENDBRANCH  21  24
ENDBRANCH  15   9
BRANCH  14   8
ATOM      5  O   UNL     1       2.311  -1.250  23.504  0.00  0.00    -0.275 OA
ATOM      8  N   UNL     1       0.191  -0.301  23.599  0.00  0.00    -0.307 N 
ATOM     18  C   UNL     1       1.556  -0.293  23.350  0.00  0.00    +0.223 C 
ATOM     30  H   UNL     1      -0.354   0.530  23.383  0.00  0.00    +0.149 HD
BRANCH  18  20
ATOM     20  C   UNL     1       2.061   1.048  22.868  0.00  0.00    +0.165 C 
BRANCH  20   1
ATOM      1  S   UNL     1       3.665   0.816  22.065  0.00  0.00    -0.140 S 
BRANCH   1  25
ATOM     25  C   UNL     1       4.718   0.918  23.532  0.00  0.00    +0.189 C 
BRANCH  25  27
ATOM      7  O   UNL     1       6.704  -0.373  23.085  0.00  0.00    -0.250 OA
ATOM     27  C   UNL     1       5.597  -0.298  23.602  0.00  0.00    +0.315 C 
BRANCH  27   6
ATOM      6  O   UNL     1       5.038  -1.308  24.316  0.00  0.00    -0.480 OA
ATOM     32  H   UNL     1       4.279  -1.713  23.844  0.00  0.00    +0.295 HD
ENDBRANCH  27   6
ENDBRANCH  25  27
ENDBRANCH   1  25
ENDBRANCH  20   1
ENDBRANCH  18  20
ENDBRANCH  14   8
TORSDOF 8
ENDMDL
MODEL 2
REMARK VINA RESULT:      -0.4      3.313      5.459
REMARK  Name = 11912902
REMARK  8 active torsions:
REMARK  status: ('A' for Active; 'I' for Inactive)
REMARK    1  A    between atoms: S_1  and  C_20
REMARK    2  A    between atoms: S_1  and  C_25
REMARK    3  A    between atoms: O_6  and  C_27
REMARK    4  A    between atoms: N_8  and  C_14
REMARK    5  A    between atoms: N_9  and  C_15
REMARK    6  A    between atoms: C_18  and  C_20
REMARK    7  A    between atoms: C_21  and  C_24
REMARK    8  A    between atoms: C_25  and  C_27
REMARK                            x       y       z     vdW  Elec       q    Type
REMARK                         _______ _______ _______ _____ _____    ______ ____
ROOT
ATOM      3  O   UNL     1      -3.679   3.095  23.624  0.00  0.00    -0.370 OA
ATOM      4  O   UNL     1      -5.467   2.450  26.099  0.00  0.00    -0.370 OA
ATOM     12  C   UNL     1      -4.059   2.322  25.841  0.00  0.00    +0.171 C 
ATOM     13  C   UNL     1      -3.901   1.901  24.393  0.00  0.00    +0.171 C 
ATOM     14  C   UNL     1      -3.388   3.675  25.906  0.00  0.00    +0.130 C 
ATOM     15  C   UNL     1      -5.236   1.289  24.038  0.00  0.00    +0.130 C 
ATOM     16  C   UNL     1      -3.624   4.223  24.510  0.00  0.00    +0.185 C 
ATOM     17  C   UNL     1      -6.199   2.053  24.930  0.00  0.00    +0.185 C 
ENDROOT
BRANCH  15   9
ATOM      9  N   UNL     1      -5.242  -0.115  24.382  0.00  0.00    -0.306 N 
ATOM     10  N   UNL     1      -2.941  -0.289  24.115  0.00  0.00    -0.214 NA
ATOM     11  N   UNL     1      -4.272  -2.191  24.760  0.00  0.00    -0.223 NA
ATOM     19  C   UNL     1      -4.102  -0.899  24.420  0.00  0.00    +0.216 A 
ATOM     21  C   UNL     1      -1.851  -1.082  24.163  0.00  0.00    +0.083 A 
ATOM     22  C   UNL     1      -3.141  -2.926  24.788  0.00  0.00    +0.116 A 
ATOM     23  C   UNL     1      -1.891  -2.420  24.496  0.00  0.00    +0.049 A 
ATOM     31  H   UNL     1      -6.112  -0.556  24.661  0.00  0.00    +0.149 HD
BRANCH  21  24
ATOM      2  S   UNL     1      -0.561   1.287  23.833  0.00  0.00    -0.095 S 
ATOM     24  C   UNL     1      -0.614  -0.425  23.836  0.00  0.00    +0.038 A 
ATOM     26  C   UNL     1       0.603  -0.980  23.506  0.00  0.00    +0.017 A 
ATOM     28  C   UNL     1       1.591   0.012  23.247  0.00  0.00    +0.008 A 
ATOM     29  C   UNL     1       1.093   1.288  23.389  0.00  0.00    +0.046 A 
ENDBRANCH  21  24
ENDBRANCH  15   9
BRANCH  14   8
ATOM      5  O   UNL     1      -1.211   5.107  24.644  0.00  0.00    -0.275 OA
ATOM      8  N   UNL     1      -1.978   3.546  26.185  0.00  0.00    -0.307 N 
ATOM     18  C   UNL     1      -1.001   4.278  25.526  0.00  0.00    +0.223 C 
ATOM     30  H   UNL     1      -1.702   2.926  26.943  0.00  0.00    +0.149 HD
BRANCH  18  20
ATOM     20  C   UNL     1       0.399   3.946  25.988  0.00  0.00    +0.165 C 
BRANCH  20   1
ATOM      1  S   UNL     1       0.328   2.524  27.102  0.00  0.00    -0.140 S 
BRANCH   1  25
ATOM     25  C   UNL     1       1.746   2.931  28.150  0.00  0.00    +0.189 C 
BRANCH  25  27
ATOM      7  O   UNL     1       0.615   2.825  30.276  0.00  0.00    -0.250 OA
ATOM     27  C   UNL     1       1.504   2.416  29.540  0.00  0.00    +0.315 C 
BRANCH  27   6
ATOM      6  O   UNL     1       2.369   1.432  29.892  0.00  0.00    -0.480 OA
ATOM     32  H   UNL     1       2.082   0.556  29.556  0.00  0.00    +0.295 HD
ENDBRANCH  27   6
ENDBRANCH  25  27
ENDBRANCH   1  25
ENDBRANCH  20   1
ENDBRANCH  18  20
ENDBRANCH  14   8
TORSDOF 8
ENDMDL
MODEL 3
REMARK VINA RESULT:       0.5      2.487      4.716
REMARK  Name = 11912902
REMARK  8 active torsions:
REMARK  status: ('A' for Active; 'I' for Inactive)
REMARK    1  A    between atoms: S_1  and  C_20
REMARK    2  A    between atoms: S_1  and  C_25
REMARK    3  A    between atoms: O_6  and  C_27
REMARK    4  A    between atoms: N_8  and  C_14
REMARK    5  A    between atoms: N_9  and  C_15
REMARK    6  A    between atoms: C_18  and  C_20
REMARK    7  A    between atoms: C_21  and  C_24
REMARK    8  A    between atoms: C_25  and  C_27
REMARK                            x       y       z     vdW  Elec       q    Type
REMARK                         _______ _______ _______ _____ _____    ______ ____
ROOT
ATOM      3  O   UNL     1      -1.474   2.982  23.283  0.00  0.00    -0.370 OA
ATOM      4  O   UNL     1      -1.312   4.863  25.768  0.00  0.00    -0.370 OA
ATOM     12  C   UNL     1      -1.425   3.438  25.617  0.00  0.00    +0.171 C 
ATOM     13  C   UNL     1      -2.326   3.180  24.425  0.00  0.00    +0.171 C 
ATOM     14  C   UNL     1      -0.095   2.846  25.209  0.00  0.00    +0.130 C 
ATOM     15  C   UNL     1      -3.115   4.459  24.274  0.00  0.00    +0.130 C 
ATOM     16  C   UNL     1      -0.102   3.037  23.703  0.00  0.00    +0.185 C 
ATOM     17  C   UNL     1      -2.153   5.508  24.800  0.00  0.00    +0.185 C 
ENDROOT
BRANCH  15   9
ATOM      9  N   UNL     1      -4.300   4.407  25.102  0.00  0.00    -0.306 N 
ATOM     10  N   UNL     1      -4.373   2.087  25.020  0.00  0.00    -0.214 NA
ATOM     11  N   UNL     1      -6.019   3.346  26.248  0.00  0.00    -0.223 NA
ATOM     19  C   UNL     1      -4.925   3.229  25.472  0.00  0.00    +0.216 A 
ATOM     21  C   UNL     1      -5.006   0.958  25.400  0.00  0.00    +0.083 A 
ATOM     22  C   UNL     1      -6.602   2.179  26.591  0.00  0.00    +0.116 A 
ATOM     23  C   UNL     1      -6.136   0.943  26.193  0.00  0.00    +0.049 A 
ATOM     31  H   UNL     1      -4.680   5.267  25.483  0.00  0.00    +0.149 HD
BRANCH  21  24
ATOM      2  S   UNL     1      -3.630  -1.300  26.024  0.00  0.00    -0.095 S 
ATOM     24  C   UNL     1      -4.413  -0.258  24.913  0.00  0.00    +0.038 A 
ATOM     26  C   UNL     1      -4.372  -0.749  23.627  0.00  0.00    +0.017 A 
ATOM     28  C   UNL     1      -3.687  -1.996  23.552  0.00  0.00    +0.008 A 
ATOM     29  C   UNL     1      -3.232  -2.412  24.784  0.00  0.00    +0.046 A 
ENDBRANCH  21  24
ENDBRANCH  15   9
BRANCH  14   8
ATOM      5  O   UNL     1      -1.353   0.622  23.847  0.00  0.00    -0.275 OA
ATOM      8  N   UNL     1      -0.016   1.449  25.559  0.00  0.00    -0.307 N 
ATOM     18  C   UNL     1      -0.656   0.447  24.844  0.00  0.00    +0.223 C 
ATOM     30  H   UNL     1       0.585   1.191  26.338  0.00  0.00    +0.149 HD
BRANCH  18  20
ATOM     20  C   UNL     1      -0.432  -0.930  25.424  0.00  0.00    +0.165 C 
BRANCH  20   1
ATOM      1  S   UNL     1       0.760  -1.815  24.391  0.00  0.00    -0.140 S 
BRANCH   1  25
ATOM     25  C   UNL     1       1.045  -0.531  23.150  0.00  0.00    +0.189 C 
BRANCH  25  27
ATOM      7  O   UNL     1       3.422  -0.935  23.157  0.00  0.00    -0.250 OA
ATOM     27  C   UNL     1       2.495  -0.136  23.165  0.00  0.00    +0.315 C 
BRANCH  27   6
ATOM      6  O   UNL     1       2.670   1.210  23.171  0.00  0.00    -0.480 OA
ATOM     32  H   UNL     1       1.933   1.677  22.724  0.00  0.00    +0.295 HD
ENDBRANCH  27   6
ENDBRANCH  25  27
ENDBRANCH   1  25
ENDBRANCH  20   1
ENDBRANCH  18  20
ENDBRANCH  14   8
TORSDOF 8
ENDMDL
MODEL 4
REMARK VINA RESULT:       0.7      2.196      4.097
REMARK  Name = 11912902
REMARK  8 active torsions:
REMARK  status: ('A' for Active; 'I' for Inactive)
REMARK    1  A    between atoms: S_1  and  C_20
REMARK    2  A    between atoms: S_1  and  C_25
REMARK    3  A    between atoms: O_6  and  C_27
REMARK    4  A    between atoms: N_8  and  C_14
REMARK    5  A    between atoms: N_9  and  C_15
REMARK    6  A    between atoms: C_18  and  C_20
REMARK    7  A    between atoms: C_21  and  C_24
REMARK    8  A    between atoms: C_25  and  C_27
REMARK                            x       y       z     vdW  Elec       q    Type
REMARK                         _______ _______ _______ _____ _____    ______ ____
ROOT
ATOM      3  O   UNL     1      -0.904   4.054  24.066  0.00  0.00    -0.370 OA
ATOM      4  O   UNL     1      -2.136   3.426  26.863  0.00  0.00    -0.370 OA
ATOM     12  C   UNL     1      -1.877   2.624  25.698  0.00  0.00    +0.171 C 
ATOM     13  C   UNL     1      -2.158   3.488  24.484  0.00  0.00    +0.171 C 
ATOM     14  C   UNL     1      -0.403   2.310  25.594  0.00  0.00    +0.130 C 
ATOM     15  C   UNL     1      -3.074   4.570  25.004  0.00  0.00    +0.130 C 
ATOM     16  C   UNL     1       0.145   3.545  24.902  0.00  0.00    +0.185 C 
ATOM     17  C   UNL     1      -2.641   4.705  26.453  0.00  0.00    +0.185 C 
ENDROOT
BRANCH  15   9
ATOM      9  N   UNL     1      -4.450   4.130  24.932  0.00  0.00    -0.306 N 
ATOM     10  N   UNL     1      -3.836   1.891  25.004  0.00  0.00    -0.214 NA
ATOM     11  N   UNL     1      -6.150   2.549  24.861  0.00  0.00    -0.223 NA
ATOM     19  C   UNL     1      -4.828   2.799  24.931  0.00  0.00    +0.216 A 
ATOM     21  C   UNL     1      -4.241   0.604  25.003  0.00  0.00    +0.083 A 
ATOM     22  C   UNL     1      -6.483   1.242  24.864  0.00  0.00    +0.116 A 
ATOM     23  C   UNL     1      -5.563   0.216  24.934  0.00  0.00    +0.049 A 
ATOM     31  H   UNL     1      -5.194   4.819  24.930  0.00  0.00    +0.149 HD
BRANCH  21  24
ATOM      2  S   UNL     1      -2.886  -1.380  23.734  0.00  0.00    -0.095 S 
ATOM     24  C   UNL     1      -3.177  -0.362  25.079  0.00  0.00    +0.038 A 
ATOM     26  C   UNL     1      -2.306  -0.613  26.116  0.00  0.00    +0.017 A 
ATOM     28  C   UNL     1      -1.389  -1.656  25.802  0.00  0.00    +0.008 A 
ATOM     29  C   UNL     1      -1.592  -2.162  24.537  0.00  0.00    +0.046 A 
ENDBRANCH  21  24
ENDBRANCH  15   9
BRANCH  14   8
ATOM      5  O   UNL     1       1.657   1.896  23.601  0.00  0.00    -0.275 OA
ATOM      8  N   UNL     1      -0.176   1.124  24.803  0.00  0.00    -0.307 N 
ATOM     18  C   UNL     1       0.841   1.016  23.867  0.00  0.00    +0.223 C 
ATOM     30  H   UNL     1      -0.763   0.314  24.989  0.00  0.00    +0.149 HD
BRANCH  18  20
ATOM     20  C   UNL     1       0.855  -0.320  23.159  0.00  0.00    +0.165 C 
BRANCH  20   1
ATOM      1  S   UNL     1       2.237  -0.352  21.995  0.00  0.00    -0.140 S 
BRANCH   1  25
ATOM     25  C   UNL     1       3.560  -0.767  23.158  0.00  0.00    +0.189 C 
BRANCH  25  27
ATOM      7  O   UNL     1       5.753   0.157  23.541  0.00  0.00    -0.250 OA
ATOM     27  C   UNL     1       4.613   0.303  23.119  0.00  0.00    +0.315 C 
BRANCH  27   6
ATOM      6  O   UNL     1       4.171   1.452  22.547  0.00  0.00    -0.480 OA
ATOM     32  H   UNL     1       3.269   1.689  22.854  0.00  0.00    +0.295 HD
ENDBRANCH  27   6
ENDBRANCH  25  27
ENDBRANCH   1  25
ENDBRANCH  20   1
ENDBRANCH  18  20
ENDBRANCH  14   8
TORSDOF 8
ENDMDL
MODEL 5
REMARK VINA RESULT:       0.8      3.708      7.125
REMARK  Name = 11912902
REMARK  8 active torsions:
REMARK  status: ('A' for Active; 'I' for Inactive)
REMARK    1  A    between atoms: S_1  and  C_20
REMARK    2  A    between atoms: S_1  and  C_25
REMARK    3  A    between atoms: O_6  and  C_27
REMARK    4  A    between atoms: N_8  and  C_14
REMARK    5  A    between atoms: N_9  and  C_15
REMARK    6  A    between atoms: C_18  and  C_20
REMARK    7  A    between atoms: C_21  and  C_24
REMARK    8  A    between atoms: C_25  and  C_27
REMARK                            x       y       z     vdW  Elec       q    Type
REMARK                         _______ _______ _______ _____ _____    ______ ____
ROOT
ATOM      3  O   UNL     1      -2.273   3.323  26.676  0.00  0.00    -0.370 OA
ATOM      4  O   UNL     1      -1.414   5.285  24.406  0.00  0.00    -0.370 OA
ATOM     12  C   UNL     1      -2.226   4.098  24.428  0.00  0.00    +0.171 C 
ATOM     13  C   UNL     1      -1.597   3.139  25.420  0.00  0.00    +0.171 C 
ATOM     14  C   UNL     1      -3.584   4.401  25.018  0.00  0.00    +0.130 C 
ATOM     15  C   UNL     1      -0.163   3.603  25.524  0.00  0.00    +0.130 C 
ATOM     16  C   UNL     1      -3.323   4.287  26.510  0.00  0.00    +0.185 C 
ATOM     17  C   UNL     1      -0.275   5.093  25.257  0.00  0.00    +0.185 C 
ENDROOT
BRANCH  15   9
ATOM      9  N   UNL     1       0.636   2.969  24.499  0.00  0.00    -0.306 N 
ATOM     10  N   UNL     1      -0.416   0.922  24.811  0.00  0.00    -0.214 NA
ATOM     11  N   UNL     1       1.327   1.194  23.170  0.00  0.00    -0.223 NA
ATOM     19  C   UNL     1       0.511   1.637  24.146  0.00  0.00    +0.216 A 
ATOM     21  C   UNL     1      -0.513  -0.372  24.440  0.00  0.00    +0.083 A 
ATOM     22  C   UNL     1       1.177  -0.108  22.849  0.00  0.00    +0.116 A 
ATOM     23  C   UNL     1       0.265  -0.947  23.456  0.00  0.00    +0.049 A 
ATOM     31  H   UNL     1       1.295   3.525  23.966  0.00  0.00    +0.149 HD
BRANCH  21  24
ATOM      2  S   UNL     1      -2.089  -2.585  24.466  0.00  0.00    -0.095 S 
ATOM     24  C   UNL     1      -1.503  -1.131  25.155  0.00  0.00    +0.038 A 
ATOM     26  C   UNL     1      -2.089  -0.864  26.373  0.00  0.00    +0.017 A 
ATOM     28  C   UNL     1      -3.031  -1.866  26.745  0.00  0.00    +0.008 A 
ATOM     29  C   UNL     1      -3.129  -2.861  25.797  0.00  0.00    +0.046 A 
ENDBRANCH  21  24
ENDBRANCH  15   9
BRANCH  14   8
ATOM      5  O   UNL     1      -5.705   3.226  26.600  0.00  0.00    -0.275 OA
ATOM      8  N   UNL     1      -4.568   3.439  24.584  0.00  0.00    -0.307 N 
ATOM     18  C   UNL     1      -5.553   2.929  25.417  0.00  0.00    +0.223 C 
ATOM     30  H   UNL     1      -4.564   3.171  23.603  0.00  0.00    +0.149 HD
BRANCH  18  20
ATOM     20  C   UNL     1      -6.448   1.925  24.728  0.00  0.00    +0.165 C 
BRANCH  20   1
ATOM      1  S   UNL     1      -5.651   0.302  24.770  0.00  0.00    -0.140 S 
BRANCH   1  25
ATOM     25  C   UNL     1      -3.932   0.843  24.620  0.00  0.00    +0.189 C 
BRANCH  25  27
ATOM      7  O   UNL     1      -2.948   1.605  22.555  0.00  0.00    -0.250 OA
ATOM     27  C   UNL     1      -3.489   0.709  23.191  0.00  0.00    +0.315 C 
BRANCH  27   6
ATOM      6  O   UNL     1      -3.737  -0.523  22.680  0.00  0.00    -0.480 OA
ATOM     32  H   UNL     1      -3.158  -1.208  23.079  0.00  0.00    +0.295 HD
ENDBRANCH  27   6
ENDBRANCH  25  27
ENDBRANCH   1  25
ENDBRANCH  20   1
ENDBRANCH  18  20
ENDBRANCH  14   8
TORSDOF 8
ENDMDL
