MODEL 1
REMARK VINA RESULT:       5.7      0.000      0.000
REMARK  Name = 7127917
REMARK  13 active torsions:
REMARK  status: ('A' for Active; 'I' for Inactive)
REMARK    1  A    between atoms: O_2  and  C_12
REMARK    2  A    between atoms: O_3  and  C_14
REMARK    3  A    between atoms: O_7  and  C_29
REMARK    4  A    between atoms: O_7  and  C_35
REMARK    5  A    between atoms: O_8  and  C_33
REMARK    6  A    between atoms: O_8  and  C_36
REMARK    7  A    between atoms: N_9  and  C_13
REMARK    8  A    between atoms: N_10  and  C_19
REMARK    9  A    between atoms: C_16  and  C_18
REMARK   10  A    between atoms: C_19  and  C_21
REMARK   11  A    between atoms: C_19  and  C_24
REMARK   12  A    between atoms: C_20  and  C_22
REMARK   13  A    between atoms: C_21  and  C_23
REMARK                            x       y       z     vdW  Elec       q    Type
REMARK                         _______ _______ _______ _____ _____    ______ ____
ROOT
ATOM     12  C   UNL     1      -1.513  -2.469  25.272  0.00  0.00    +0.167 C 
ATOM     13  C   UNL     1      -1.563  -1.836  23.867  0.00  0.00    +0.128 C 
ATOM     14  C   UNL     1      -2.905  -2.535  25.909  0.00  0.00    +0.149 C 
ATOM     15  C   UNL     1      -3.579  -1.154  25.972  0.00  0.00    +0.074 C 
ATOM     16  C   UNL     1      -3.326  -0.311  24.755  0.00  0.00    +0.015 C 
ATOM     17  C   UNL     1      -2.432  -0.609  23.800  0.00  0.00    +0.006 C 
ENDROOT
BRANCH  16  18
ATOM      4  O   UNL     1      -5.204   1.046  25.148  0.00  0.00    -0.271 OA
ATOM     10  N   UNL     1      -3.516   1.831  23.745  0.00  0.00    -0.300 N 
ATOM     18  C   UNL     1      -4.120   0.910  24.583  0.00  0.00    +0.241 C 
ATOM     40  H   UNL     1      -2.628   1.598  23.308  0.00  0.00    +0.150 HD
BRANCH  10  19
ATOM     19  C   UNL     1      -4.109   3.110  23.421  0.00  0.00    +0.163 C 
BRANCH  19  24
ATOM      6  O   UNL     1      -4.480   4.184  21.272  0.00  0.00    -0.274 OA
ATOM     11  N   UNL     1      -2.859   2.562  21.425  0.00  0.00    -0.328 N 
ATOM     24  C   UNL     1      -3.871   3.349  21.937  0.00  0.00    +0.231 C 
ATOM     41  H   UNL     1      -2.588   2.633  20.450  0.00  0.00    +0.145 HD
ATOM     42  H   UNL     1      -2.362   1.878  21.986  0.00  0.00    +0.145 HD
ENDBRANCH  19  24
BRANCH  19  21
ATOM     21  C   UNL     1      -3.510   4.252  24.249  0.00  0.00    +0.067 C 
BRANCH  21  23
ATOM     23  C   UNL     1      -2.257   3.844  24.985  0.00  0.00    -0.045 A 
ATOM     27  C   UNL     1      -2.367   3.177  26.194  0.00  0.00    +0.007 A 
ATOM     28  C   UNL     1      -1.020   4.144  24.437  0.00  0.00    +0.007 A 
ATOM     30  C   UNL     1      -1.209   2.799  26.874  0.00  0.00    +0.046 A 
ATOM     31  C   UNL     1       0.138   3.765  25.117  0.00  0.00    +0.046 A 
ATOM     33  C   UNL     1       0.043   3.094  26.335  0.00  0.00    +0.120 A 
BRANCH  33   8
ATOM      8  O   UNL     1       1.174   2.725  26.998  0.00  0.00    -0.495 OA
ATOM     36  C   UNL     1       1.111   2.697  28.423  0.00  0.00    +0.277 C 
ENDBRANCH  33   8
ENDBRANCH  21  23
ENDBRANCH  19  21
ENDBRANCH  10  19
ENDBRANCH  16  18
BRANCH  13   9
ATOM      5  O   UNL     1      -0.157   0.629  24.295  0.00  0.00    -0.270 OA
ATOM      9  N   UNL     1      -0.246  -1.501  23.386  0.00  0.00    -0.302 N 
ATOM     20  C   UNL     1       0.354  -0.278  23.645  0.00  0.00    +0.246 C 
ATOM     37  H   UNL     1       0.238  -2.172  22.794  0.00  0.00    +0.150 HD
BRANCH  20  22
ATOM      1 BR   UNL     1       0.514  -0.569  20.472  0.00  0.00    -0.050 Br
ATOM     22  C   UNL     1       1.703  -0.078  23.057  0.00  0.00    +0.054 A 
ATOM     25  C   UNL     1       2.731   0.209  23.935  0.00  0.00    +0.059 A 
ATOM     26  C   UNL     1       1.910  -0.176  21.695  0.00  0.00    +0.030 A 
ATOM     29  C   UNL     1       4.016   0.405  23.430  0.00  0.00    +0.121 A 
ATOM     32  C   UNL     1       3.196   0.020  21.190  0.00  0.00    +0.019 A 
ATOM     34  C   UNL     1       4.249   0.310  22.058  0.00  0.00    +0.047 A 
BRANCH  29   7
ATOM      7  O   UNL     1       5.045   0.689  24.276  0.00  0.00    -0.495 OA
ATOM     35  C   UNL     1       6.149  -0.215  24.281  0.00  0.00    +0.277 C 
ENDBRANCH  29   7
ENDBRANCH  20  22
ENDBRANCH  13   9
BRANCH  12   2
ATOM      2  O   UNL     1      -0.657  -1.695  26.116  0.00  0.00    -0.387 OA
ATOM     38  H   UNL     1      -0.786  -1.977  27.036  0.00  0.00    +0.210 HD
ENDBRANCH  12   2
BRANCH  14   3
ATOM      3  O   UNL     1      -3.731  -3.451  25.192  0.00  0.00    -0.389 OA
ATOM     39  H   UNL     1      -3.147  -4.088  24.747  0.00  0.00    +0.210 HD
ENDBRANCH  14   3
TORSDOF 11
ENDMDL
MODEL 2
REMARK VINA RESULT:       6.3      1.215      1.515
REMARK  Name = 7127917
REMARK  13 active torsions:
REMARK  status: ('A' for Active; 'I' for Inactive)
REMARK    1  A    between atoms: O_2  and  C_12
REMARK    2  A    between atoms: O_3  and  C_14
REMARK    3  A    between atoms: O_7  and  C_29
REMARK    4  A    between atoms: O_7  and  C_35
REMARK    5  A    between atoms: O_8  and  C_33
REMARK    6  A    between atoms: O_8  and  C_36
REMARK    7  A    between atoms: N_9  and  C_13
REMARK    8  A    between atoms: N_10  and  C_19
REMARK    9  A    between atoms: C_16  and  C_18
REMARK   10  A    between atoms: C_19  and  C_21
REMARK   11  A    between atoms: C_19  and  C_24
REMARK   12  A    between atoms: C_20  and  C_22
REMARK   13  A    between atoms: C_21  and  C_23
REMARK                            x       y       z     vdW  Elec       q    Type
REMARK                         _______ _______ _______ _____ _____    ______ ____
ROOT
ATOM     12  C   UNL     1      -1.331  -2.365  25.212  0.00  0.00    +0.167 C 
ATOM     13  C   UNL     1      -1.067  -1.446  24.003  0.00  0.00    +0.128 C 
ATOM     14  C   UNL     1      -2.823  -2.684  25.361  0.00  0.00    +0.149 C 
ATOM     15  C   UNL     1      -3.679  -1.410  25.464  0.00  0.00    +0.074 C 
ATOM     16  C   UNL     1      -3.212  -0.302  24.563  0.00  0.00    +0.015 C 
ATOM     17  C   UNL     1      -2.047  -0.309  23.896  0.00  0.00    +0.006 C 
ENDROOT
BRANCH  16  18
ATOM      4  O   UNL     1      -5.214   0.886  24.881  0.00  0.00    -0.271 OA
ATOM     10  N   UNL     1      -3.514   1.853  23.612  0.00  0.00    -0.300 N 
ATOM     18  C   UNL     1      -4.090   0.857  24.381  0.00  0.00    +0.241 C 
ATOM     40  H   UNL     1      -2.585   1.708  23.225  0.00  0.00    +0.150 HD
BRANCH  10  19
ATOM     19  C   UNL     1      -4.188   3.092  23.293  0.00  0.00    +0.163 C 
BRANCH  19  24
ATOM      6  O   UNL     1      -4.511   4.235  21.172  0.00  0.00    -0.274 OA
ATOM     11  N   UNL     1      -2.862   2.641  21.322  0.00  0.00    -0.328 N 
ATOM     24  C   UNL     1      -3.906   3.389  21.827  0.00  0.00    +0.231 C 
ATOM     41  H   UNL     1      -2.561   2.752  20.360  0.00  0.00    +0.145 HD
ATOM     42  H   UNL     1      -2.370   1.948  21.876  0.00  0.00    +0.145 HD
ENDBRANCH  19  24
BRANCH  19  21
ATOM     21  C   UNL     1      -3.713   4.254  24.173  0.00  0.00    +0.067 C 
BRANCH  21  23
ATOM     23  C   UNL     1      -2.429   3.945  24.903  0.00  0.00    -0.045 A 
ATOM     27  C   UNL     1      -1.304   4.715  24.655  0.00  0.00    +0.007 A 
ATOM     28  C   UNL     1      -2.398   2.897  25.809  0.00  0.00    +0.007 A 
ATOM     30  C   UNL     1      -0.117   4.431  25.331  0.00  0.00    +0.046 A 
ATOM     31  C   UNL     1      -1.211   2.612  26.485  0.00  0.00    +0.046 A 
ATOM     33  C   UNL     1      -0.071   3.379  26.245  0.00  0.00    +0.120 A 
BRANCH  33   8
ATOM      8  O   UNL     1       1.087   3.100  26.904  0.00  0.00    -0.495 OA
ATOM     36  C   UNL     1       0.972   2.515  28.200  0.00  0.00    +0.277 C 
ENDBRANCH  33   8
ENDBRANCH  21  23
ENDBRANCH  19  21
ENDBRANCH  10  19
ENDBRANCH  16  18
BRANCH  13   9
ATOM      5  O   UNL     1       0.550  -0.777  21.728  0.00  0.00    -0.270 OA
ATOM      9  N   UNL     1       0.271  -0.907  24.026  0.00  0.00    -0.302 N 
ATOM     20  C   UNL     1       0.976  -0.614  22.868  0.00  0.00    +0.246 C 
ATOM     37  H   UNL     1       0.727  -0.785  24.926  0.00  0.00    +0.150 HD
BRANCH  20  22
ATOM      1 BR   UNL     1       1.208   2.561  23.085  0.00  0.00    -0.050 Br
ATOM     22  C   UNL     1       2.353  -0.090  23.062  0.00  0.00    +0.054 A 
ATOM     25  C   UNL     1       3.372  -1.021  23.126  0.00  0.00    +0.059 A 
ATOM     26  C   UNL     1       2.592   1.266  23.171  0.00  0.00    +0.030 A 
ATOM     29  C   UNL     1       4.681  -0.578  23.307  0.00  0.00    +0.121 A 
ATOM     32  C   UNL     1       3.902   1.709  23.352  0.00  0.00    +0.019 A 
ATOM     34  C   UNL     1       4.947   0.787  23.420  0.00  0.00    +0.047 A 
BRANCH  29   7
ATOM      7  O   UNL     1       5.702  -1.477  23.374  0.00  0.00    -0.495 OA
ATOM     35  C   UNL     1       7.007  -1.003  23.046  0.00  0.00    +0.277 C 
ENDBRANCH  29   7
ENDBRANCH  20  22
ENDBRANCH  13   9
BRANCH  12   2
ATOM      2  O   UNL     1      -0.875  -1.729  26.407  0.00  0.00    -0.387 OA
ATOM     38  H   UNL     1      -0.986  -2.342  27.152  0.00  0.00    +0.210 HD
ENDBRANCH  12   2
BRANCH  14   3
ATOM      3  O   UNL     1      -3.267  -3.484  24.267  0.00  0.00    -0.389 OA
ATOM     39  H   UNL     1      -4.218  -3.644  24.385  0.00  0.00    +0.210 HD
ENDBRANCH  14   3
TORSDOF 11
ENDMDL
MODEL 3
REMARK VINA RESULT:       7.5      1.928      4.695
REMARK  Name = 7127917
REMARK  13 active torsions:
REMARK  status: ('A' for Active; 'I' for Inactive)
REMARK    1  A    between atoms: O_2  and  C_12
REMARK    2  A    between atoms: O_3  and  C_14
REMARK    3  A    between atoms: O_7  and  C_29
REMARK    4  A    between atoms: O_7  and  C_35
REMARK    5  A    between atoms: O_8  and  C_33
REMARK    6  A    between atoms: O_8  and  C_36
REMARK    7  A    between atoms: N_9  and  C_13
REMARK    8  A    between atoms: N_10  and  C_19
REMARK    9  A    between atoms: C_16  and  C_18
REMARK   10  A    between atoms: C_19  and  C_21
REMARK   11  A    between atoms: C_19  and  C_24
REMARK   12  A    between atoms: C_20  and  C_22
REMARK   13  A    between atoms: C_21  and  C_23
REMARK                            x       y       z     vdW  Elec       q    Type
REMARK                         _______ _______ _______ _____ _____    ______ ____
ROOT
ATOM     12  C   UNL     1      -0.255   4.899  24.584  0.00  0.00    +0.167 C 
ATOM     13  C   UNL     1      -0.295   3.388  24.885  0.00  0.00    +0.128 C 
ATOM     14  C   UNL     1      -1.575   5.583  24.960  0.00  0.00    +0.149 C 
ATOM     15  C   UNL     1      -2.782   4.933  24.263  0.00  0.00    +0.074 C 
ATOM     16  C   UNL     1      -2.685   3.437  24.173  0.00  0.00    +0.015 C 
ATOM     17  C   UNL     1      -1.580   2.731  24.457  0.00  0.00    +0.006 C 
ENDROOT
BRANCH  16  18
ATOM      4  O   UNL     1      -4.409   2.884  22.675  0.00  0.00    -0.271 OA
ATOM     10  N   UNL     1      -4.306   1.791  24.731  0.00  0.00    -0.300 N 
ATOM     18  C   UNL     1      -3.880   2.690  23.768  0.00  0.00    +0.241 C 
ATOM     40  H   UNL     1      -3.805   1.735  25.614  0.00  0.00    +0.150 HD
BRANCH  10  19
ATOM     19  C   UNL     1      -5.464   0.943  24.561  0.00  0.00    +0.163 C 
BRANCH  19  24
ATOM      6  O   UNL     1      -7.679   1.916  24.325  0.00  0.00    -0.274 OA
ATOM     11  N   UNL     1      -6.549   2.220  26.303  0.00  0.00    -0.328 N 
ATOM     24  C   UNL     1      -6.676   1.745  25.014  0.00  0.00    +0.231 C 
ATOM     41  H   UNL     1      -7.294   2.759  26.734  0.00  0.00    +0.145 HD
ATOM     42  H   UNL     1      -5.716   2.069  26.861  0.00  0.00    +0.145 HD
ENDBRANCH  19  24
BRANCH  19  21
ATOM     21  C   UNL     1      -5.354  -0.357  25.366  0.00  0.00    +0.067 C 
BRANCH  21  23
ATOM     23  C   UNL     1      -4.026  -1.050  25.175  0.00  0.00    -0.045 A 
ATOM     27  C   UNL     1      -3.914  -2.051  24.224  0.00  0.00    +0.007 A 
ATOM     28  C   UNL     1      -2.945  -0.671  25.954  0.00  0.00    +0.007 A 
ATOM     30  C   UNL     1      -2.686  -2.691  24.046  0.00  0.00    +0.046 A 
ATOM     31  C   UNL     1      -1.718  -1.311  25.777  0.00  0.00    +0.046 A 
ATOM     33  C   UNL     1      -1.589  -2.320  24.824  0.00  0.00    +0.120 A 
BRANCH  33   8
ATOM      8  O   UNL     1      -0.392  -2.945  24.651  0.00  0.00    -0.495 OA
ATOM     36  C   UNL     1       0.702  -2.483  25.443  0.00  0.00    +0.277 C 
ENDBRANCH  33   8
ENDBRANCH  21  23
ENDBRANCH  19  21
ENDBRANCH  10  19
ENDBRANCH  16  18
BRANCH  13   9
ATOM      5  O   UNL     1      -0.316   0.713  23.845  0.00  0.00    -0.270 OA
ATOM      9  N   UNL     1       0.811   2.694  24.273  0.00  0.00    -0.302 N 
ATOM     20  C   UNL     1       0.704   1.395  23.797  0.00  0.00    +0.246 C 
ATOM     37  H   UNL     1       1.713   3.161  24.234  0.00  0.00    +0.150 HD
BRANCH  20  22
ATOM      1 BR   UNL     1       0.256  -0.564  21.319  0.00  0.00    -0.050 Br
ATOM     22  C   UNL     1       1.941   0.812  23.218  0.00  0.00    +0.054 A 
ATOM     25  C   UNL     1       3.137   1.175  23.807  0.00  0.00    +0.059 A 
ATOM     26  C   UNL     1       1.887  -0.052  22.142  0.00  0.00    +0.030 A 
ATOM     29  C   UNL     1       4.326   0.654  23.297  0.00  0.00    +0.121 A 
ATOM     32  C   UNL     1       3.077  -0.573  21.633  0.00  0.00    +0.019 A 
ATOM     34  C   UNL     1       4.296  -0.220  22.211  0.00  0.00    +0.047 A 
BRANCH  29   7
ATOM      7  O   UNL     1       5.517   0.999  23.861  0.00  0.00    -0.495 OA
ATOM     35  C   UNL     1       6.544   0.007  23.865  0.00  0.00    +0.277 C 
ENDBRANCH  29   7
ENDBRANCH  20  22
ENDBRANCH  13   9
BRANCH  12   2
ATOM      2  O   UNL     1      -0.012   5.105  23.191  0.00  0.00    -0.387 OA
ATOM     38  H   UNL     1      -0.749   4.728  22.684  0.00  0.00    +0.210 HD
ENDBRANCH  12   2
BRANCH  14   3
ATOM      3  O   UNL     1      -1.756   5.559  26.374  0.00  0.00    -0.389 OA
ATOM     39  H   UNL     1      -2.711   5.591  26.550  0.00  0.00    +0.210 HD
ENDBRANCH  14   3
TORSDOF 11
ENDMDL
MODEL 4
REMARK VINA RESULT:       8.4      2.081      2.873
REMARK  Name = 7127917
REMARK  13 active torsions:
REMARK  status: ('A' for Active; 'I' for Inactive)
REMARK    1  A    between atoms: O_2  and  C_12
REMARK    2  A    between atoms: O_3  and  C_14
REMARK    3  A    between atoms: O_7  and  C_29
REMARK    4  A    between atoms: O_7  and  C_35
REMARK    5  A    between atoms: O_8  and  C_33
REMARK    6  A    between atoms: O_8  and  C_36
REMARK    7  A    between atoms: N_9  and  C_13
REMARK    8  A    between atoms: N_10  and  C_19
REMARK    9  A    between atoms: C_16  and  C_18
REMARK   10  A    between atoms: C_19  and  C_21
REMARK   11  A    between atoms: C_19  and  C_24
REMARK   12  A    between atoms: C_20  and  C_22
REMARK   13  A    between atoms: C_21  and  C_23
REMARK                            x       y       z     vdW  Elec       q    Type
REMARK                         _______ _______ _______ _____ _____    ______ ____
ROOT
ATOM     12  C   UNL     1      -1.256  -2.379  24.995  0.00  0.00    +0.167 C 
ATOM     13  C   UNL     1      -1.090  -1.298  23.908  0.00  0.00    +0.128 C 
ATOM     14  C   UNL     1      -2.726  -2.779  25.171  0.00  0.00    +0.149 C 
ATOM     15  C   UNL     1      -3.621  -1.568  25.483  0.00  0.00    +0.074 C 
ATOM     16  C   UNL     1      -3.243  -0.332  24.718  0.00  0.00    +0.015 C 
ATOM     17  C   UNL     1      -2.116  -0.201  24.001  0.00  0.00    +0.006 C 
ENDROOT
BRANCH  16  18
ATOM      4  O   UNL     1      -4.581   1.301  23.686  0.00  0.00    -0.271 OA
ATOM     10  N   UNL     1      -4.500   1.211  26.014  0.00  0.00    -0.300 N 
ATOM     18  C   UNL     1      -4.171   0.802  24.734  0.00  0.00    +0.241 C 
ATOM     40  H   UNL     1      -4.077   0.741  26.810  0.00  0.00    +0.150 HD
BRANCH  10  19
ATOM     19  C   UNL     1      -5.397   2.313  26.285  0.00  0.00    +0.163 C 
BRANCH  19  24
ATOM      6  O   UNL     1      -7.425   1.472  27.327  0.00  0.00    -0.274 OA
ATOM     11  N   UNL     1      -7.346   1.618  25.035  0.00  0.00    -0.328 N 
ATOM     24  C   UNL     1      -6.809   1.746  26.300  0.00  0.00    +0.231 C 
ATOM     41  H   UNL     1      -8.289   1.265  24.904  0.00  0.00    +0.145 HD
ATOM     42  H   UNL     1      -6.827   1.851  24.195  0.00  0.00    +0.145 HD
ENDBRANCH  19  24
BRANCH  19  21
ATOM     21  C   UNL     1      -5.280   3.426  25.237  0.00  0.00    +0.067 C 
BRANCH  21  23
ATOM     23  C   UNL     1      -3.869   3.941  25.089  0.00  0.00    -0.045 A 
ATOM     27  C   UNL     1      -3.412   4.318  23.837  0.00  0.00    +0.007 A 
ATOM     28  C   UNL     1      -3.057   4.028  26.209  0.00  0.00    +0.007 A 
ATOM     30  C   UNL     1      -2.108   4.796  23.700  0.00  0.00    +0.046 A 
ATOM     31  C   UNL     1      -1.754   4.506  26.072  0.00  0.00    +0.046 A 
ATOM     33  C   UNL     1      -1.279   4.889  24.818  0.00  0.00    +0.120 A 
BRANCH  33   8
ATOM      8  O   UNL     1      -0.007   5.354  24.685  0.00  0.00    -0.495 OA
ATOM     36  C   UNL     1       0.477   5.553  23.358  0.00  0.00    +0.277 C 
ENDBRANCH  33   8
ENDBRANCH  21  23
ENDBRANCH  19  21
ENDBRANCH  10  19
ENDBRANCH  16  18
BRANCH  13   9
ATOM      5  O   UNL     1       0.736  -1.066  21.706  0.00  0.00    -0.270 OA
ATOM      9  N   UNL     1       0.226  -0.710  23.939  0.00  0.00    -0.302 N 
ATOM     20  C   UNL     1       1.039  -0.643  22.818  0.00  0.00    +0.246 C 
ATOM     37  H   UNL     1       0.585  -0.377  24.831  0.00  0.00    +0.150 HD
BRANCH  20  22
ATOM      1 BR   UNL     1       1.042   2.521  23.226  0.00  0.00    -0.050 Br
ATOM     22  C   UNL     1       2.377  -0.031  23.021  0.00  0.00    +0.054 A 
ATOM     25  C   UNL     1       3.463  -0.886  23.012  0.00  0.00    +0.059 A 
ATOM     26  C   UNL     1       2.519   1.330  23.210  0.00  0.00    +0.030 A 
ATOM     29  C   UNL     1       4.740  -0.358  23.200  0.00  0.00    +0.121 A 
ATOM     32  C   UNL     1       3.796   1.858  23.398  0.00  0.00    +0.019 A 
ATOM     34  C   UNL     1       4.907   1.014  23.392  0.00  0.00    +0.047 A 
BRANCH  29   7
ATOM      7  O   UNL     1       5.825  -1.181  23.195  0.00  0.00    -0.495 OA
ATOM     35  C   UNL     1       7.087  -0.590  22.889  0.00  0.00    +0.277 C 
ENDBRANCH  29   7
ENDBRANCH  20  22
ENDBRANCH  13   9
BRANCH  12   2
ATOM      2  O   UNL     1      -0.762  -1.887  26.242  0.00  0.00    -0.387 OA
ATOM     38  H   UNL     1       0.172  -2.135  26.329  0.00  0.00    +0.210 HD
ENDBRANCH  12   2
BRANCH  14   3
ATOM      3  O   UNL     1      -3.197  -3.447  24.002  0.00  0.00    -0.389 OA
ATOM     39  H   UNL     1      -3.671  -4.245  24.289  0.00  0.00    +0.210 HD
ENDBRANCH  14   3
TORSDOF 11
ENDMDL
MODEL 5
REMARK VINA RESULT:       8.4      1.623      2.181
REMARK  Name = 7127917
REMARK  13 active torsions:
REMARK  status: ('A' for Active; 'I' for Inactive)
REMARK    1  A    between atoms: O_2  and  C_12
REMARK    2  A    between atoms: O_3  and  C_14
REMARK    3  A    between atoms: O_7  and  C_29
REMARK    4  A    between atoms: O_7  and  C_35
REMARK    5  A    between atoms: O_8  and  C_33
REMARK    6  A    between atoms: O_8  and  C_36
REMARK    7  A    between atoms: N_9  and  C_13
REMARK    8  A    between atoms: N_10  and  C_19
REMARK    9  A    between atoms: C_16  and  C_18
REMARK   10  A    between atoms: C_19  and  C_21
REMARK   11  A    between atoms: C_19  and  C_24
REMARK   12  A    between atoms: C_20  and  C_22
REMARK   13  A    between atoms: C_21  and  C_23
REMARK                            x       y       z     vdW  Elec       q    Type
REMARK                         _______ _______ _______ _____ _____    ______ ____
ROOT
ATOM     12  C   UNL     1      -1.696  -2.359  24.840  0.00  0.00    +0.167 C 
ATOM     13  C   UNL     1      -1.725  -1.458  23.590  0.00  0.00    +0.128 C 
ATOM     14  C   UNL     1      -3.067  -2.415  25.525  0.00  0.00    +0.149 C 
ATOM     15  C   UNL     1      -3.589  -1.014  25.890  0.00  0.00    +0.074 C 
ATOM     16  C   UNL     1      -3.287   0.025  24.848  0.00  0.00    +0.015 C 
ATOM     17  C   UNL     1      -2.460  -0.163  23.808  0.00  0.00    +0.006 C 
ENDROOT
BRANCH  16  18
ATOM      4  O   UNL     1      -4.075   2.060  23.978  0.00  0.00    -0.271 OA
ATOM     10  N   UNL     1      -4.390   1.601  26.241  0.00  0.00    -0.300 N 
ATOM     18  C   UNL     1      -3.951   1.327  24.958  0.00  0.00    +0.241 C 
ATOM     40  H   UNL     1      -4.206   0.931  26.983  0.00  0.00    +0.150 HD
BRANCH  10  19
ATOM     19  C   UNL     1      -5.072   2.826  26.597  0.00  0.00    +0.163 C 
BRANCH  19  24
ATOM      6  O   UNL     1      -5.844   4.348  24.867  0.00  0.00    -0.274 OA
ATOM     11  N   UNL     1      -6.705   2.218  24.922  0.00  0.00    -0.328 N 
ATOM     24  C   UNL     1      -5.906   3.239  25.393  0.00  0.00    +0.231 C 
ATOM     41  H   UNL     1      -7.301   2.356  24.113  0.00  0.00    +0.145 HD
ATOM     42  H   UNL     1      -6.744   1.306  25.366  0.00  0.00    +0.145 HD
ENDBRANCH  19  24
BRANCH  19  21
ATOM     21  C   UNL     1      -4.094   3.944  26.979  0.00  0.00    +0.067 C 
BRANCH  21  23
ATOM     23  C   UNL     1      -2.867   3.970  26.100  0.00  0.00    -0.045 A 
ATOM     27  C   UNL     1      -2.835   4.816  25.004  0.00  0.00    +0.007 A 
ATOM     28  C   UNL     1      -1.795   3.147  26.407  0.00  0.00    +0.007 A 
ATOM     30  C   UNL     1      -1.700   4.842  24.192  0.00  0.00    +0.046 A 
ATOM     31  C   UNL     1      -0.660   3.173  25.595  0.00  0.00    +0.046 A 
ATOM     33  C   UNL     1      -0.613   4.019  24.489  0.00  0.00    +0.120 A 
BRANCH  33   8
ATOM      8  O   UNL     1       0.494   4.043  23.697  0.00  0.00    -0.495 OA
ATOM     36  C   UNL     1       0.550   5.051  22.689  0.00  0.00    +0.277 C 
ENDBRANCH  33   8
ENDBRANCH  21  23
ENDBRANCH  19  21
ENDBRANCH  10  19
ENDBRANCH  16  18
BRANCH  13   9
ATOM      5  O   UNL     1       0.041   0.574  24.584  0.00  0.00    -0.270 OA
ATOM      9  N   UNL     1      -0.395  -1.165  23.115  0.00  0.00    -0.302 N 
ATOM     20  C   UNL     1       0.387  -0.158  23.661  0.00  0.00    +0.246 C 
ATOM     37  H   UNL     1      -0.041  -1.688  22.317  0.00  0.00    +0.150 HD
BRANCH  20  22
ATOM      1 BR   UNL     1       0.493  -0.553  20.497  0.00  0.00    -0.050 Br
ATOM     22  C   UNL     1       1.723   0.034  23.042  0.00  0.00    +0.054 A 
ATOM     25  C   UNL     1       2.764   0.360  23.892  0.00  0.00    +0.059 A 
ATOM     26  C   UNL     1       1.907  -0.107  21.681  0.00  0.00    +0.030 A 
ATOM     29  C   UNL     1       4.037   0.551  23.358  0.00  0.00    +0.121 A 
ATOM     32  C   UNL     1       3.182   0.085  21.147  0.00  0.00    +0.019 A 
ATOM     34  C   UNL     1       4.247   0.414  21.986  0.00  0.00    +0.047 A 
BRANCH  29   7
ATOM      7  O   UNL     1       5.078   0.872  24.176  0.00  0.00    -0.495 OA
ATOM     35  C   UNL     1       5.917  -0.198  24.608  0.00  0.00    +0.277 C 
ENDBRANCH  29   7
ENDBRANCH  20  22
ENDBRANCH  13   9
BRANCH  12   2
ATOM      2  O   UNL     1      -0.737  -1.856  25.773  0.00  0.00    -0.387 OA
ATOM     38  H   UNL     1      -0.782  -2.385  26.586  0.00  0.00    +0.210 HD
ENDBRANCH  12   2
BRANCH  14   3
ATOM      3  O   UNL     1      -4.008  -3.085  24.688  0.00  0.00    -0.389 OA
ATOM     39  H   UNL     1      -4.271  -2.466  23.986  0.00  0.00    +0.210 HD
ENDBRANCH  14   3
TORSDOF 11
ENDMDL
