MODEL 1
REMARK VINA RESULT:       1.6      0.000      0.000
REMARK  Name = 45361394
REMARK  12 active torsions:
REMARK  status: ('A' for Active; 'I' for Inactive)
REMARK    1  A    between atoms: O_2  and  C_11
REMARK    2  A    between atoms: O_5  and  C_31
REMARK    3  A    between atoms: O_5  and  C_35
REMARK    4  A    between atoms: N_6  and  C_15
REMARK    5  A    between atoms: N_7  and  C_25
REMARK    6  A    between atoms: C_8  and  C_18
REMARK    7  A    between atoms: C_10  and  C_20
REMARK    8  A    between atoms: C_14  and  C_19
REMARK    9  A    between atoms: C_19  and  C_21
REMARK   10  A    between atoms: C_19  and  C_22
REMARK   11  A    between atoms: C_23  and  C_24
REMARK   12  A    between atoms: C_25  and  C_28
REMARK                            x       y       z     vdW  Elec       q    Type
REMARK                         _______ _______ _______ _____ _____    ______ ____
ROOT
ATOM      8  C   UNL     1      -3.021  -1.269  24.889  0.00  0.00    -0.027 C 
ATOM      9  C   UNL     1      -2.654   0.065  24.156  0.00  0.00    +0.028 C 
ATOM     10  C   UNL     1      -1.107   0.331  24.223  0.00  0.00    +0.012 C 
ATOM     11  C   UNL     1      -3.556   1.237  24.636  0.00  0.00    +0.122 C 
ATOM     12  C   UNL     1      -4.530  -1.559  24.707  0.00  0.00    +0.007 C 
ATOM     13  C   UNL     1      -2.236  -2.432  24.240  0.00  0.00    +0.009 C 
ATOM     14  C   UNL     1      -5.064   0.903  24.550  0.00  0.00    +0.029 C 
ATOM     15  C   UNL     1      -0.327  -0.878  23.637  0.00  0.00    +0.076 C 
ATOM     16  C   UNL     1      -5.417  -0.429  25.212  0.00  0.00    +0.007 C 
ATOM     17  C   UNL     1      -0.730  -2.217  24.251  0.00  0.00    +0.023 C 
ATOM     18  C   UNL     1      -2.702  -1.221  26.405  0.00  0.00    +0.011 C 
ATOM     20  C   UNL     1      -0.672   1.616  23.497  0.00  0.00    +0.010 C 
ENDROOT
BRANCH  15   6
ATOM      4  O   UNL     1       1.558  -0.263  21.560  0.00  0.00    -0.270 OA
ATOM      6  N   UNL     1       1.104  -0.716  23.788  0.00  0.00    -0.308 N 
ATOM     23  C   UNL     1       1.933  -0.419  22.719  0.00  0.00    +0.244 C 
ATOM     36  H   UNL     1       1.498  -0.944  24.695  0.00  0.00    +0.149 HD
BRANCH  23  24
ATOM     24  C   UNL     1       3.380  -0.312  23.035  0.00  0.00    +0.037 A 
ATOM     26  C   UNL     1       4.045  -1.385  23.628  0.00  0.00    +0.016 A 
ATOM     27  C   UNL     1       4.074   0.863  22.741  0.00  0.00    +0.016 A 
ATOM     29  C   UNL     1       5.404  -1.283  23.927  0.00  0.00    +0.046 A 
ATOM     30  C   UNL     1       5.432   0.963  23.040  0.00  0.00    +0.046 A 
ATOM     31  C   UNL     1       6.098  -0.109  23.634  0.00  0.00    +0.120 A 
BRANCH  31   5
ATOM      5  O   UNL     1       7.424  -0.011  23.925  0.00  0.00    -0.495 OA
ATOM     35  C   UNL     1       8.343  -0.411  22.911  0.00  0.00    +0.277 C 
ENDBRANCH  31   5
ENDBRANCH  23  24
ENDBRANCH  15   6
BRANCH  11   2
ATOM      2  O   UNL     1      -3.343   2.376  23.801  0.00  0.00    -0.391 OA
ATOM     37  H   UNL     1      -3.450   2.096  22.876  0.00  0.00    +0.210 HD
ENDBRANCH  11   2
BRANCH  14  19
ATOM     19  C   UNL     1      -5.930   2.017  25.148  0.00  0.00    +0.077 C 
ATOM     21  C   UNL     1      -7.165   2.245  24.283  0.00  0.00    +0.017 C 
BRANCH  19  22
ATOM      3  O   UNL     1      -5.088   4.173  24.431  0.00  0.00    -0.276 OA
ATOM      7  N   UNL     1      -4.400   3.339  26.484  0.00  0.00    -0.310 N 
ATOM     22  C   UNL     1      -5.108   3.295  25.292  0.00  0.00    +0.216 C 
ATOM     38  H   UNL     1      -4.454   2.555  27.128  0.00  0.00    +0.149 HD
BRANCH   7  25
ATOM     25  C   UNL     1      -3.547   4.449  26.845  0.00  0.00    +0.146 C 
BRANCH  25  28
ATOM      1  S   UNL     1      -1.102   3.209  26.398  0.00  0.00    -0.100 S 
ATOM     28  C   UNL     1      -2.254   4.436  26.081  0.00  0.00    +0.007 A 
ATOM     32  C   UNL     1      -1.825   5.310  25.108  0.00  0.00    +0.013 A 
ATOM     33  C   UNL     1      -0.533   4.967  24.615  0.00  0.00    +0.008 A 
ATOM     34  C   UNL     1      -0.024   3.846  25.229  0.00  0.00    +0.045 A 
ENDBRANCH  25  28
ENDBRANCH   7  25
ENDBRANCH  19  22
ENDBRANCH  14  19
TORSDOF 8
ENDMDL
