MODEL 1
REMARK VINA RESULT:      -1.0      0.000      0.000
REMARK  Name = 11912556
REMARK  10 active torsions:
REMARK  status: ('A' for Active; 'I' for Inactive)
REMARK    1  A    between atoms: O_3  and  C_23
REMARK    2  A    between atoms: O_3  and  C_27
REMARK    3  A    between atoms: N_7  and  C_24
REMARK    4  A    between atoms: C_8  and  C_12
REMARK    5  A    between atoms: C_9  and  C_14
REMARK    6  A    between atoms: C_12  and  C_15
REMARK    7  A    between atoms: C_14  and  C_21
REMARK    8  A    between atoms: C_18  and  C_23
REMARK    9  A    between atoms: C_24  and  C_25
REMARK   10  A    between atoms: C_24  and  C_26
REMARK                            x       y       z     vdW  Elec       q    Type
REMARK                         _______ _______ _______ _____ _____    ______ ____
ROOT
ATOM      2  O   UNL     1     -10.720  -8.177  13.985  0.00  0.00    -0.253 OA
ATOM      5  N   UNL     1      -9.084  -9.784  13.646  0.00  0.00    -0.285 N 
ATOM      7  N   UNL     1      -9.786  -9.183  15.822  0.00  0.00    -0.297 N 
ATOM      8  C   UNL     1      -6.684 -10.245  12.093  0.00  0.00    +0.004 C 
ATOM      9  C   UNL     1      -6.688 -10.422  13.634  0.00  0.00    +0.010 C 
ATOM     10  C   UNL     1      -7.779  -9.267  11.627  0.00  0.00    +0.023 C 
ATOM     11  C   UNL     1      -8.107 -10.781  14.109  0.00  0.00    +0.113 C 
ATOM     13  C   UNL     1      -9.147  -9.649  12.190  0.00  0.00    +0.109 C 
ATOM     22  C   UNL     1      -9.920  -8.995  14.452  0.00  0.00    +0.302 C 
ATOM     28  H   UNL     1      -9.111  -9.830  16.202  0.00  0.00    +0.150 HD
ENDROOT
BRANCH   7  24
ATOM     24  C   UNL     1     -10.570  -8.439  16.780  0.00  0.00    +0.068 C 
ATOM     25  C   UNL     1     -10.605  -9.162  18.121  0.00  0.00    +0.027 C 
ATOM     26  C   UNL     1     -10.022  -7.026  16.930  0.00  0.00    +0.027 C 
ENDBRANCH   7  24
BRANCH   9  14
ATOM     14  C   UNL     1      -6.157  -9.206  14.403  0.00  0.00    +0.002 C 
ATOM     21  C   UNL     1      -6.388  -9.358  15.892  0.00  0.00    +0.004 C 
ENDBRANCH   9  14
BRANCH   8  12
ATOM     12  C   UNL     1      -5.321  -9.832  11.539  0.00  0.00    +0.100 C 
BRANCH  12  15
ATOM      1  O   UNL     1      -4.525 -10.779  13.559  0.00  0.00    -0.276 OA
ATOM      6  N   UNL     1      -2.916 -10.146  12.008  0.00  0.00    -0.301 N 
ATOM     15  C   UNL     1      -4.225 -10.297  12.464  0.00  0.00    +0.216 C 
ATOM     16  C   UNL     1      -1.799 -10.611  12.832  0.00  0.00    +0.108 C 
ATOM     17  C   UNL     1      -2.528  -9.577  10.711  0.00  0.00    +0.108 C 
ATOM     18  C   UNL     1      -0.333  -8.876  11.738  0.00  0.00    +0.101 C 
ATOM     19  C   UNL     1      -0.789  -9.489  13.064  0.00  0.00    +0.033 C 
ATOM     20  C   UNL     1      -1.534  -8.433  10.899  0.00  0.00    +0.033 C 
BRANCH  18  23
ATOM      4  O   UNL     1       0.203  -6.693  12.597  0.00  0.00    -0.251 OA
ATOM     23  C   UNL     1       0.561  -7.707  12.012  0.00  0.00    +0.310 C 
BRANCH  23   3
ATOM      3  O   UNL     1       1.805  -7.956  11.513  0.00  0.00    -0.468 OA
ATOM     27  C   UNL     1       2.818  -7.015  11.886  0.00  0.00    +0.280 C 
ENDBRANCH  23   3
ENDBRANCH  18  23
ENDBRANCH  12  15
ENDBRANCH   8  12
TORSDOF 6
ENDMDL
MODEL 2
REMARK VINA RESULT:      -0.8     14.311     17.073
REMARK  Name = 11912556
REMARK  10 active torsions:
REMARK  status: ('A' for Active; 'I' for Inactive)
REMARK    1  A    between atoms: O_3  and  C_23
REMARK    2  A    between atoms: O_3  and  C_27
REMARK    3  A    between atoms: N_7  and  C_24
REMARK    4  A    between atoms: C_8  and  C_12
REMARK    5  A    between atoms: C_9  and  C_14
REMARK    6  A    between atoms: C_12  and  C_15
REMARK    7  A    between atoms: C_14  and  C_21
REMARK    8  A    between atoms: C_18  and  C_23
REMARK    9  A    between atoms: C_24  and  C_25
REMARK   10  A    between atoms: C_24  and  C_26
REMARK                            x       y       z     vdW  Elec       q    Type
REMARK                         _______ _______ _______ _____ _____    ______ ____
ROOT
ATOM      2  O   UNL     1       0.084  -1.605  25.261  0.00  0.00    -0.253 OA
ATOM      5  N   UNL     1      -2.078  -1.319  24.475  0.00  0.00    -0.285 N 
ATOM      7  N   UNL     1      -0.205  -0.664  23.190  0.00  0.00    -0.297 N 
ATOM      8  C   UNL     1      -4.669  -0.361  25.342  0.00  0.00    +0.004 C 
ATOM      9  C   UNL     1      -4.013   0.172  24.041  0.00  0.00    +0.010 C 
ATOM     10  C   UNL     1      -3.619  -0.882  26.341  0.00  0.00    +0.023 C 
ATOM     11  C   UNL     1      -3.064  -0.896  23.468  0.00  0.00    +0.113 C 
ATOM     13  C   UNL     1      -2.674  -1.887  25.684  0.00  0.00    +0.109 C 
ATOM     22  C   UNL     1      -0.682  -1.225  24.368  0.00  0.00    +0.302 C 
ATOM     28  H   UNL     1      -0.832  -0.326  22.475  0.00  0.00    +0.150 HD
ENDROOT
BRANCH   7  24
ATOM     24  C   UNL     1       1.208  -0.492  22.937  0.00  0.00    +0.068 C 
ATOM     25  C   UNL     1       1.499  -0.578  21.444  0.00  0.00    +0.027 C 
ATOM     26  C   UNL     1       1.693   0.830  23.517  0.00  0.00    +0.027 C 
ENDBRANCH   7  24
BRANCH   9  14
ATOM     14  C   UNL     1      -3.275   1.505  24.215  0.00  0.00    +0.002 C 
ATOM     21  C   UNL     1      -2.655   1.960  22.910  0.00  0.00    +0.004 C 
ENDBRANCH   9  14
BRANCH   8  12
ATOM     12  C   UNL     1      -5.588   0.660  26.012  0.00  0.00    +0.100 C 
BRANCH  12  15
ATOM      1  O   UNL     1      -6.414   1.853  24.139  0.00  0.00    -0.276 OA
ATOM      6  N   UNL     1      -4.992   3.015  25.561  0.00  0.00    -0.301 N 
ATOM     15  C   UNL     1      -5.707   1.891  25.149  0.00  0.00    +0.216 C 
ATOM     16  C   UNL     1      -5.088   4.261  24.799  0.00  0.00    +0.108 C 
ATOM     17  C   UNL     1      -4.144   3.091  26.758  0.00  0.00    +0.108 C 
ATOM     18  C   UNL     1      -2.784   4.881  25.612  0.00  0.00    +0.101 C 
ATOM     19  C   UNL     1      -3.703   4.761  24.394  0.00  0.00    +0.033 C 
ATOM     20  C   UNL     1      -2.739   3.566  26.394  0.00  0.00    +0.033 C 
BRANCH  18  23
ATOM      4  O   UNL     1      -1.093   6.379  24.781  0.00  0.00    -0.251 OA
ATOM     23  C   UNL     1      -1.407   5.258  25.161  0.00  0.00    +0.310 C 
BRANCH  23   3
ATOM      3  O   UNL     1      -0.585   4.173  25.245  0.00  0.00    -0.468 OA
ATOM     27  C   UNL     1      -0.018   3.733  24.007  0.00  0.00    +0.280 C 
ENDBRANCH  23   3
ENDBRANCH  18  23
ENDBRANCH  12  15
ENDBRANCH   8  12
TORSDOF 6
ENDMDL
MODEL 3
REMARK VINA RESULT:       0.4     15.423     17.868
REMARK  Name = 11912556
REMARK  10 active torsions:
REMARK  status: ('A' for Active; 'I' for Inactive)
REMARK    1  A    between atoms: O_3  and  C_23
REMARK    2  A    between atoms: O_3  and  C_27
REMARK    3  A    between atoms: N_7  and  C_24
REMARK    4  A    between atoms: C_8  and  C_12
REMARK    5  A    between atoms: C_9  and  C_14
REMARK    6  A    between atoms: C_12  and  C_15
REMARK    7  A    between atoms: C_14  and  C_21
REMARK    8  A    between atoms: C_18  and  C_23
REMARK    9  A    between atoms: C_24  and  C_25
REMARK   10  A    between atoms: C_24  and  C_26
REMARK                            x       y       z     vdW  Elec       q    Type
REMARK                         _______ _______ _______ _____ _____    ______ ____
ROOT
ATOM      2  O   UNL     1       1.035   1.591  25.746  0.00  0.00    -0.253 OA
ATOM      5  N   UNL     1      -0.353   3.394  25.304  0.00  0.00    -0.285 N 
ATOM      7  N   UNL     1       0.663   3.113  27.420  0.00  0.00    -0.297 N 
ATOM      8  C   UNL     1      -2.908   4.010  24.088  0.00  0.00    +0.004 C 
ATOM      9  C   UNL     1      -2.568   4.489  25.525  0.00  0.00    +0.010 C 
ATOM     10  C   UNL     1      -2.102   2.757  23.697  0.00  0.00    +0.023 C 
ATOM     11  C   UNL     1      -1.043   4.640  25.671  0.00  0.00    +0.113 C 
ATOM     13  C   UNL     1      -0.605   2.960  23.930  0.00  0.00    +0.109 C 
ATOM     22  C   UNL     1       0.488   2.631  26.129  0.00  0.00    +0.302 C 
ATOM     28  H   UNL     1       0.192   3.945  27.741  0.00  0.00    +0.150 HD
ENDROOT
BRANCH   7  24
ATOM     24  C   UNL     1       1.492   2.432  28.389  0.00  0.00    +0.068 C 
ATOM     25  C   UNL     1       2.872   3.074  28.458  0.00  0.00    +0.027 C 
ATOM     26  C   UNL     1       0.817   2.429  29.754  0.00  0.00    +0.027 C 
ENDBRANCH   7  24
BRANCH   9  14
ATOM     14  C   UNL     1      -3.123   3.584  26.631  0.00  0.00    +0.002 C 
ATOM     21  C   UNL     1      -3.215   4.326  27.949  0.00  0.00    +0.004 C 
ENDBRANCH   9  14
BRANCH   8  12
ATOM     12  C   UNL     1      -4.402   3.779  23.871  0.00  0.00    +0.100 C 
BRANCH  12  15
ATOM      1  O   UNL     1      -5.473   3.037  25.850  0.00  0.00    -0.276 OA
ATOM      6  N   UNL     1      -4.672   1.386  24.425  0.00  0.00    -0.301 N 
ATOM     15  C   UNL     1      -4.900   2.707  24.808  0.00  0.00    +0.216 C 
ATOM     16  C   UNL     1      -5.161   0.289  25.262  0.00  0.00    +0.108 C 
ATOM     17  C   UNL     1      -3.995   0.964  23.193  0.00  0.00    +0.108 C 
ATOM     18  C   UNL     1      -3.301  -1.159  24.367  0.00  0.00    +0.101 C 
ATOM     19  C   UNL     1      -4.027  -0.668  25.622  0.00  0.00    +0.033 C 
ATOM     20  C   UNL     1      -2.836   0.020  23.510  0.00  0.00    +0.033 C 
BRANCH  18  23
ATOM      4  O   UNL     1      -2.101  -3.220  24.694  0.00  0.00    -0.251 OA
ATOM     23  C   UNL     1      -2.127  -1.998  24.767  0.00  0.00    +0.310 C 
BRANCH  23   3
ATOM      3  O   UNL     1      -1.121  -1.193  25.213  0.00  0.00    -0.468 OA
ATOM     27  C   UNL     1       0.018  -1.096  24.351  0.00  0.00    +0.280 C 
ENDBRANCH  23   3
ENDBRANCH  18  23
ENDBRANCH  12  15
ENDBRANCH   8  12
TORSDOF 6
ENDMDL
MODEL 4
REMARK VINA RESULT:       1.7     14.721     17.050
REMARK  Name = 11912556
REMARK  10 active torsions:
REMARK  status: ('A' for Active; 'I' for Inactive)
REMARK    1  A    between atoms: O_3  and  C_23
REMARK    2  A    between atoms: O_3  and  C_27
REMARK    3  A    between atoms: N_7  and  C_24
REMARK    4  A    between atoms: C_8  and  C_12
REMARK    5  A    between atoms: C_9  and  C_14
REMARK    6  A    between atoms: C_12  and  C_15
REMARK    7  A    between atoms: C_14  and  C_21
REMARK    8  A    between atoms: C_18  and  C_23
REMARK    9  A    between atoms: C_24  and  C_25
REMARK   10  A    between atoms: C_24  and  C_26
REMARK                            x       y       z     vdW  Elec       q    Type
REMARK                         _______ _______ _______ _____ _____    ______ ____
ROOT
ATOM      2  O   UNL     1      -3.424  -1.287  26.734  0.00  0.00    -0.253 OA
ATOM      5  N   UNL     1      -4.598   0.013  25.216  0.00  0.00    -0.285 N 
ATOM      7  N   UNL     1      -2.831  -1.397  24.523  0.00  0.00    -0.297 N 
ATOM      8  C   UNL     1      -5.602   2.708  24.880  0.00  0.00    +0.004 C 
ATOM      9  C   UNL     1      -4.725   2.038  23.790  0.00  0.00    +0.010 C 
ATOM     10  C   UNL     1      -5.343   2.104  26.273  0.00  0.00    +0.023 C 
ATOM     11  C   UNL     1      -4.889   0.510  23.862  0.00  0.00    +0.113 C 
ATOM     13  C   UNL     1      -5.459   0.581  26.253  0.00  0.00    +0.109 C 
ATOM     22  C   UNL     1      -3.608  -0.918  25.570  0.00  0.00    +0.302 C 
ATOM     28  H   UNL     1      -2.962  -1.071  23.577  0.00  0.00    +0.150 HD
ENDROOT
BRANCH   7  24
ATOM     24  C   UNL     1      -1.767  -2.353  24.729  0.00  0.00    +0.068 C 
ATOM     25  C   UNL     1      -1.619  -3.260  23.514  0.00  0.00    +0.027 C 
ATOM     26  C   UNL     1      -0.462  -1.633  25.042  0.00  0.00    +0.027 C 
ENDBRANCH   7  24
BRANCH   9  14
ATOM     14  C   UNL     1      -3.242   2.421  23.860  0.00  0.00    +0.002 C 
ATOM     21  C   UNL     1      -2.462   1.801  22.719  0.00  0.00    +0.004 C 
ENDBRANCH   9  14
BRANCH   8  12
ATOM     12  C   UNL     1      -5.457   4.229  24.917  0.00  0.00    +0.100 C 
BRANCH  12  15
ATOM      1  O   UNL     1      -4.166   4.928  23.057  0.00  0.00    -0.276 OA
ATOM      6  N   UNL     1      -3.030   4.665  25.067  0.00  0.00    -0.301 N 
ATOM     15  C   UNL     1      -4.165   4.640  24.257  0.00  0.00    +0.216 C 
ATOM     16  C   UNL     1      -1.746   5.093  24.509  0.00  0.00    +0.108 C 
ATOM     17  C   UNL     1      -2.998   4.329  26.495  0.00  0.00    +0.108 C 
ATOM     18  C   UNL     1      -0.578   3.665  26.228  0.00  0.00    +0.101 C 
ATOM     19  C   UNL     1      -0.670   4.035  24.745  0.00  0.00    +0.033 C 
ATOM     20  C   UNL     1      -1.948   3.255  26.773  0.00  0.00    +0.033 C 
BRANCH  18  23
ATOM      4  O   UNL     1       1.303   2.546  27.228  0.00  0.00    -0.251 OA
ATOM     23  C   UNL     1       0.400   2.545  26.401  0.00  0.00    +0.310 C 
BRANCH  23   3
ATOM      3  O   UNL     1       0.122   1.553  25.508  0.00  0.00    -0.468 OA
ATOM     27  C   UNL     1       0.853   1.609  24.279  0.00  0.00    +0.280 C 
ENDBRANCH  23   3
ENDBRANCH  18  23
ENDBRANCH  12  15
ENDBRANCH   8  12
TORSDOF 6
ENDMDL
MODEL 5
REMARK VINA RESULT:       2.0     13.966     17.020
REMARK  Name = 11912556
REMARK  10 active torsions:
REMARK  status: ('A' for Active; 'I' for Inactive)
REMARK    1  A    between atoms: O_3  and  C_23
REMARK    2  A    between atoms: O_3  and  C_27
REMARK    3  A    between atoms: N_7  and  C_24
REMARK    4  A    between atoms: C_8  and  C_12
REMARK    5  A    between atoms: C_9  and  C_14
REMARK    6  A    between atoms: C_12  and  C_15
REMARK    7  A    between atoms: C_14  and  C_21
REMARK    8  A    between atoms: C_18  and  C_23
REMARK    9  A    between atoms: C_24  and  C_25
REMARK   10  A    between atoms: C_24  and  C_26
REMARK                            x       y       z     vdW  Elec       q    Type
REMARK                         _______ _______ _______ _____ _____    ______ ____
ROOT
ATOM      2  O   UNL     1       2.851  -0.149  21.399  0.00  0.00    -0.253 OA
ATOM      5  N   UNL     1       1.206   0.230  22.988  0.00  0.00    -0.285 N 
ATOM      7  N   UNL     1       3.494   0.157  23.578  0.00  0.00    -0.297 N 
ATOM      8  C   UNL     1      -1.376  -0.778  23.823  0.00  0.00    +0.004 C 
ATOM      9  C   UNL     1      -0.212  -0.618  24.837  0.00  0.00    +0.010 C 
ATOM     10  C   UNL     1      -0.860  -0.957  22.383  0.00  0.00    +0.023 C 
ATOM     11  C   UNL     1       0.740   0.492  24.358  0.00  0.00    +0.113 C 
ATOM     13  C   UNL     1       0.128   0.143  22.002  0.00  0.00    +0.109 C 
ATOM     22  C   UNL     1       2.538   0.068  22.574  0.00  0.00    +0.302 C 
ATOM     28  H   UNL     1       3.235   0.303  24.543  0.00  0.00    +0.150 HD
ENDROOT
BRANCH   7  24
ATOM     24  C   UNL     1       4.906   0.002  23.312  0.00  0.00    +0.068 C 
ATOM     25  C   UNL     1       5.695   1.154  23.922  0.00  0.00    +0.027 C 
ATOM     26  C   UNL     1       5.400  -1.341  23.832  0.00  0.00    +0.027 C 
ENDBRANCH   7  24
BRANCH   9  14
ATOM     14  C   UNL     1       0.565  -1.913  25.102  0.00  0.00    +0.002 C 
ATOM     21  C   UNL     1      -0.331  -2.975  25.705  0.00  0.00    +0.004 C 
ENDBRANCH   9  14
BRANCH   8  12
ATOM     12  C   UNL     1      -2.344  -1.901  24.193  0.00  0.00    +0.100 C 
BRANCH  12  15
ATOM      1  O   UNL     1      -4.674  -1.954  23.765  0.00  0.00    -0.276 OA
ATOM      6  N   UNL     1      -3.898  -0.187  25.058  0.00  0.00    -0.301 N 
ATOM     15  C   UNL     1      -3.745  -1.357  24.315  0.00  0.00    +0.216 C 
ATOM     16  C   UNL     1      -5.232   0.382  25.256  0.00  0.00    +0.108 C 
ATOM     17  C   UNL     1      -2.814   0.546  25.723  0.00  0.00    +0.108 C 
ATOM     18  C   UNL     1      -4.175   2.658  25.497  0.00  0.00    +0.101 C 
ATOM     19  C   UNL     1      -5.274   1.842  24.812  0.00  0.00    +0.033 C 
ATOM     20  C   UNL     1      -2.804   2.010  25.289  0.00  0.00    +0.033 C 
BRANCH  18  23
ATOM      4  O   UNL     1      -5.142   4.799  24.974  0.00  0.00    -0.251 OA
ATOM     23  C   UNL     1      -4.173   4.051  24.949  0.00  0.00    +0.310 C 
BRANCH  23   3
ATOM      3  O   UNL     1      -2.944   4.337  24.431  0.00  0.00    -0.468 OA
ATOM     27  C   UNL     1      -2.070   5.073  25.293  0.00  0.00    +0.280 C 
ENDBRANCH  23   3
ENDBRANCH  18  23
ENDBRANCH  12  15
ENDBRANCH   8  12
TORSDOF 6
ENDMDL
MODEL 6
REMARK VINA RESULT:       2.2     14.099     17.021
REMARK  Name = 11912556
REMARK  10 active torsions:
REMARK  status: ('A' for Active; 'I' for Inactive)
REMARK    1  A    between atoms: O_3  and  C_23
REMARK    2  A    between atoms: O_3  and  C_27
REMARK    3  A    between atoms: N_7  and  C_24
REMARK    4  A    between atoms: C_8  and  C_12
REMARK    5  A    between atoms: C_9  and  C_14
REMARK    6  A    between atoms: C_12  and  C_15
REMARK    7  A    between atoms: C_14  and  C_21
REMARK    8  A    between atoms: C_18  and  C_23
REMARK    9  A    between atoms: C_24  and  C_25
REMARK   10  A    between atoms: C_24  and  C_26
REMARK                            x       y       z     vdW  Elec       q    Type
REMARK                         _______ _______ _______ _____ _____    ______ ____
ROOT
ATOM      2  O   UNL     1       1.096   1.533  23.562  0.00  0.00    -0.253 OA
ATOM      5  N   UNL     1       0.103   0.036  25.028  0.00  0.00    -0.285 N 
ATOM      7  N   UNL     1       1.737  -0.666  23.469  0.00  0.00    -0.297 N 
ATOM      8  C   UNL     1      -2.501  -0.699  26.056  0.00  0.00    +0.004 C 
ATOM      9  C   UNL     1      -1.552  -1.763  25.446  0.00  0.00    +0.010 C 
ATOM     10  C   UNL     1      -2.213   0.709  25.503  0.00  0.00    +0.023 C 
ATOM     11  C   UNL     1      -0.092  -1.303  25.604  0.00  0.00    +0.113 C 
ATOM     13  C   UNL     1      -0.735   1.070  25.635  0.00  0.00    +0.109 C 
ATOM     22  C   UNL     1       0.988   0.380  23.993  0.00  0.00    +0.302 C 
ATOM     28  H   UNL     1       1.625  -1.613  23.802  0.00  0.00    +0.150 HD
ENDROOT
BRANCH   7  24
ATOM     24  C   UNL     1       2.683  -0.472  22.395  0.00  0.00    +0.068 C 
ATOM     25  C   UNL     1       1.956  -0.267  21.071  0.00  0.00    +0.027 C 
ATOM     26  C   UNL     1       3.605   0.700  22.705  0.00  0.00    +0.027 C 
ENDBRANCH   7  24
BRANCH   9  14
ATOM     14  C   UNL     1      -1.851  -2.099  23.980  0.00  0.00    +0.002 C 
ATOM     21  C   UNL     1      -2.665  -3.371  23.866  0.00  0.00    +0.004 C 
ENDBRANCH   9  14
BRANCH   8  12
ATOM     12  C   UNL     1      -3.980  -1.050  25.893  0.00  0.00    +0.100 C 
BRANCH  12  15
ATOM      1  O   UNL     1      -4.784  -0.867  23.672  0.00  0.00    -0.276 OA
ATOM      6  N   UNL     1      -4.831   1.070  24.952  0.00  0.00    -0.301 N 
ATOM     15  C   UNL     1      -4.568  -0.282  24.736  0.00  0.00    +0.216 C 
ATOM     16  C   UNL     1      -5.439   1.874  23.891  0.00  0.00    +0.108 C 
ATOM     17  C   UNL     1      -4.585   1.794  26.206  0.00  0.00    +0.108 C 
ATOM     18  C   UNL     1      -4.329   3.916  24.867  0.00  0.00    +0.101 C 
ATOM     19  C   UNL     1      -4.595   3.111  23.592  0.00  0.00    +0.033 C 
ATOM     20  C   UNL     1      -3.722   3.029  25.956  0.00  0.00    +0.033 C 
BRANCH  18  23
ATOM      4  O   UNL     1      -3.564   5.830  23.623  0.00  0.00    -0.251 OA
ATOM     23  C   UNL     1      -3.403   5.051  24.554  0.00  0.00    +0.310 C 
BRANCH  23   3
ATOM      3  O   UNL     1      -2.381   5.069  25.457  0.00  0.00    -0.468 OA
ATOM     27  C   UNL     1      -1.066   4.973  24.900  0.00  0.00    +0.280 C 
ENDBRANCH  23   3
ENDBRANCH  18  23
ENDBRANCH  12  15
ENDBRANCH   8  12
TORSDOF 6
ENDMDL
MODEL 7
REMARK VINA RESULT:       2.5     14.396     16.956
REMARK  Name = 11912556
REMARK  10 active torsions:
REMARK  status: ('A' for Active; 'I' for Inactive)
REMARK    1  A    between atoms: O_3  and  C_23
REMARK    2  A    between atoms: O_3  and  C_27
REMARK    3  A    between atoms: N_7  and  C_24
REMARK    4  A    between atoms: C_8  and  C_12
REMARK    5  A    between atoms: C_9  and  C_14
REMARK    6  A    between atoms: C_12  and  C_15
REMARK    7  A    between atoms: C_14  and  C_21
REMARK    8  A    between atoms: C_18  and  C_23
REMARK    9  A    between atoms: C_24  and  C_25
REMARK   10  A    between atoms: C_24  and  C_26
REMARK                            x       y       z     vdW  Elec       q    Type
REMARK                         _______ _______ _______ _____ _____    ______ ____
ROOT
ATOM      2  O   UNL     1      -1.504  -3.273  23.053  0.00  0.00    -0.253 OA
ATOM      5  N   UNL     1      -0.902  -1.620  24.562  0.00  0.00    -0.285 N 
ATOM      7  N   UNL     1      -2.979  -2.737  24.725  0.00  0.00    -0.297 N 
ATOM      8  C   UNL     1       0.246   1.037  24.634  0.00  0.00    +0.004 C 
ATOM      9  C   UNL     1      -1.094   0.724  25.351  0.00  0.00    +0.010 C 
ATOM     10  C   UNL     1       0.511   0.068  23.466  0.00  0.00    +0.023 C 
ATOM     11  C   UNL     1      -1.137  -0.765  25.736  0.00  0.00    +0.113 C 
ATOM     13  C   UNL     1       0.387  -1.389  23.910  0.00  0.00    +0.109 C 
ATOM     22  C   UNL     1      -1.775  -2.592  24.048  0.00  0.00    +0.302 C 
ATOM     28  H   UNL     1      -3.212  -2.158  25.518  0.00  0.00    +0.150 HD
ENDROOT
BRANCH   7  24
ATOM     24  C   UNL     1      -3.984  -3.689  24.310  0.00  0.00    +0.068 C 
ATOM     25  C   UNL     1      -5.118  -2.985  23.574  0.00  0.00    +0.027 C 
ATOM     26  C   UNL     1      -3.360  -4.777  23.448  0.00  0.00    +0.027 C 
ENDBRANCH   7  24
BRANCH   9  14
ATOM     14  C   UNL     1      -2.339   1.102  24.539  0.00  0.00    +0.002 C 
ATOM     21  C   UNL     1      -3.547   0.309  24.990  0.00  0.00    +0.004 C 
ENDBRANCH   9  14
BRANCH   8  12
ATOM     12  C   UNL     1       0.351   2.488  24.164  0.00  0.00    +0.100 C 
BRANCH  12  15
ATOM      1  O   UNL     1       0.436   3.556  26.277  0.00  0.00    -0.276 OA
ATOM      6  N   UNL     1      -1.392   4.060  24.935  0.00  0.00    -0.301 N 
ATOM     15  C   UNL     1      -0.190   3.414  25.224  0.00  0.00    +0.216 C 
ATOM     16  C   UNL     1      -1.961   5.006  25.897  0.00  0.00    +0.108 C 
ATOM     17  C   UNL     1      -2.159   3.912  23.693  0.00  0.00    +0.108 C 
ATOM     18  C   UNL     1      -4.251   4.486  24.981  0.00  0.00    +0.101 C 
ATOM     19  C   UNL     1      -3.399   4.630  26.245  0.00  0.00    +0.033 C 
ATOM     20  C   UNL     1      -3.603   3.513  23.994  0.00  0.00    +0.033 C 
BRANCH  18  23
ATOM      4  O   UNL     1      -6.506   4.727  25.788  0.00  0.00    -0.251 OA
ATOM     23  C   UNL     1      -5.619   4.004  25.354  0.00  0.00    +0.310 C 
BRANCH  23   3
ATOM      3  O   UNL     1      -5.705   2.661  25.135  0.00  0.00    -0.468 OA
ATOM     27  C   UNL     1      -6.161   1.884  26.247  0.00  0.00    +0.280 C 
ENDBRANCH  23   3
ENDBRANCH  18  23
ENDBRANCH  12  15
ENDBRANCH   8  12
TORSDOF 6
ENDMDL
MODEL 8
REMARK VINA RESULT:       2.7     14.893     17.514
REMARK  Name = 11912556
REMARK  10 active torsions:
REMARK  status: ('A' for Active; 'I' for Inactive)
REMARK    1  A    between atoms: O_3  and  C_23
REMARK    2  A    between atoms: O_3  and  C_27
REMARK    3  A    between atoms: N_7  and  C_24
REMARK    4  A    between atoms: C_8  and  C_12
REMARK    5  A    between atoms: C_9  and  C_14
REMARK    6  A    between atoms: C_12  and  C_15
REMARK    7  A    between atoms: C_14  and  C_21
REMARK    8  A    between atoms: C_18  and  C_23
REMARK    9  A    between atoms: C_24  and  C_25
REMARK   10  A    between atoms: C_24  and  C_26
REMARK                            x       y       z     vdW  Elec       q    Type
REMARK                         _______ _______ _______ _____ _____    ______ ____
ROOT
ATOM      2  O   UNL     1      -3.576  -0.790  23.566  0.00  0.00    -0.253 OA
ATOM      5  N   UNL     1      -1.555   0.340  23.443  0.00  0.00    -0.285 N 
ATOM      7  N   UNL     1      -1.928  -1.346  25.059  0.00  0.00    -0.297 N 
ATOM      8  C   UNL     1      -0.501   3.023  23.179  0.00  0.00    +0.004 C 
ATOM      9  C   UNL     1      -0.029   2.085  24.322  0.00  0.00    +0.010 C 
ATOM     10  C   UNL     1      -1.909   2.649  22.678  0.00  0.00    +0.023 C 
ATOM     11  C   UNL     1      -0.179   0.619  23.880  0.00  0.00    +0.113 C 
ATOM     13  C   UNL     1      -2.000   1.167  22.321  0.00  0.00    +0.109 C 
ATOM     22  C   UNL     1      -2.430  -0.613  23.991  0.00  0.00    +0.302 C 
ATOM     28  H   UNL     1      -1.002  -1.179  25.425  0.00  0.00    +0.150 HD
ENDROOT
BRANCH   7  24
ATOM     24  C   UNL     1      -2.710  -2.356  25.734  0.00  0.00    +0.068 C 
ATOM     25  C   UNL     1      -3.593  -1.724  26.803  0.00  0.00    +0.027 C 
ATOM     26  C   UNL     1      -3.540  -3.143  24.729  0.00  0.00    +0.027 C 
ENDBRANCH   7  24
BRANCH   9  14
ATOM     14  C   UNL     1      -0.745   2.318  25.657  0.00  0.00    +0.002 C 
ATOM     21  C   UNL     1       0.185   2.072  26.827  0.00  0.00    +0.004 C 
ENDBRANCH   9  14
BRANCH   8  12
ATOM     12  C   UNL     1      -0.439   4.503  23.554  0.00  0.00    +0.100 C 
BRANCH  12  15
ATOM      1  O   UNL     1      -0.328   4.883  25.890  0.00  0.00    -0.276 OA
ATOM      6  N   UNL     1      -2.453   4.718  24.968  0.00  0.00    -0.301 N 
ATOM     15  C   UNL     1      -1.060   4.720  24.911  0.00  0.00    +0.216 C 
ATOM     16  C   UNL     1      -3.131   4.961  26.242  0.00  0.00    +0.108 C 
ATOM     17  C   UNL     1      -3.351   4.526  23.822  0.00  0.00    +0.108 C 
ATOM     18  C   UNL     1      -5.088   3.609  25.405  0.00  0.00    +0.101 C 
ATOM     19  C   UNL     1      -4.111   3.834  26.562  0.00  0.00    +0.033 C 
ATOM     20  C   UNL     1      -4.335   3.390  24.090  0.00  0.00    +0.033 C 
BRANCH  18  23
ATOM      4  O   UNL     1      -6.371   1.648  24.856  0.00  0.00    -0.251 OA
ATOM     23  C   UNL     1      -5.951   2.423  25.706  0.00  0.00    +0.310 C 
BRANCH  23   3
ATOM      3  O   UNL     1      -6.184   2.356  27.048  0.00  0.00    -0.468 OA
ATOM     27  C   UNL     1      -6.927   1.214  27.487  0.00  0.00    +0.280 C 
ENDBRANCH  23   3
ENDBRANCH  18  23
ENDBRANCH  12  15
ENDBRANCH   8  12
TORSDOF 6
ENDMDL
MODEL 9
REMARK VINA RESULT:       3.0     14.377     16.497
REMARK  Name = 11912556
REMARK  10 active torsions:
REMARK  status: ('A' for Active; 'I' for Inactive)
REMARK    1  A    between atoms: O_3  and  C_23
REMARK    2  A    between atoms: O_3  and  C_27
REMARK    3  A    between atoms: N_7  and  C_24
REMARK    4  A    between atoms: C_8  and  C_12
REMARK    5  A    between atoms: C_9  and  C_14
REMARK    6  A    between atoms: C_12  and  C_15
REMARK    7  A    between atoms: C_14  and  C_21
REMARK    8  A    between atoms: C_18  and  C_23
REMARK    9  A    between atoms: C_24  and  C_25
REMARK   10  A    between atoms: C_24  and  C_26
REMARK                            x       y       z     vdW  Elec       q    Type
REMARK                         _______ _______ _______ _____ _____    ______ ____
ROOT
ATOM      2  O   UNL     1      -4.159  -0.919  25.971  0.00  0.00    -0.253 OA
ATOM      5  N   UNL     1      -4.721   1.173  25.145  0.00  0.00    -0.285 N 
ATOM      7  N   UNL     1      -4.258  -0.638  23.697  0.00  0.00    -0.297 N 
ATOM      8  C   UNL     1      -4.099   3.975  25.530  0.00  0.00    +0.004 C 
ATOM      9  C   UNL     1      -4.024   3.323  24.124  0.00  0.00    +0.010 C 
ATOM     10  C   UNL     1      -3.906   2.937  26.652  0.00  0.00    +0.023 C 
ATOM     11  C   UNL     1      -4.990   2.126  24.058  0.00  0.00    +0.113 C 
ATOM     13  C   UNL     1      -4.852   1.749  26.484  0.00  0.00    +0.109 C 
ATOM     22  C   UNL     1      -4.369  -0.179  25.004  0.00  0.00    +0.302 C 
ATOM     28  H   UNL     1      -4.400  -0.024  22.909  0.00  0.00    +0.150 HD
ENDROOT
BRANCH   7  24
ATOM     24  C   UNL     1      -3.894  -2.002  23.390  0.00  0.00    +0.068 C 
ATOM     25  C   UNL     1      -2.761  -2.471  24.294  0.00  0.00    +0.027 C 
ATOM     26  C   UNL     1      -5.108  -2.914  23.510  0.00  0.00    +0.027 C 
ENDBRANCH   7  24
BRANCH   9  14
ATOM     14  C   UNL     1      -2.612   2.894  23.709  0.00  0.00    +0.002 C 
ATOM     21  C   UNL     1      -2.637   2.113  22.411  0.00  0.00    +0.004 C 
ENDBRANCH   9  14
BRANCH   8  12
ATOM     12  C   UNL     1      -3.127   5.141  25.703  0.00  0.00    +0.100 C 
BRANCH  12  15
ATOM      1  O   UNL     1      -1.871   5.723  23.780  0.00  0.00    -0.276 OA
ATOM      6  N   UNL     1      -1.035   3.986  25.076  0.00  0.00    -0.301 N 
ATOM     15  C   UNL     1      -1.958   4.983  24.763  0.00  0.00    +0.216 C 
ATOM     16  C   UNL     1       0.148   3.798  24.234  0.00  0.00    +0.108 C 
ATOM     17  C   UNL     1      -1.111   3.092  26.237  0.00  0.00    +0.108 C 
ATOM     18  C   UNL     1       0.200   1.376  24.932  0.00  0.00    +0.101 C 
ATOM     19  C   UNL     1       0.250   2.352  23.754  0.00  0.00    +0.033 C 
ATOM     20  C   UNL     1      -1.036   1.630  25.799  0.00  0.00    +0.033 C 
BRANCH  18  23
ATOM      4  O   UNL     1      -0.091  -1.008  25.097  0.00  0.00    -0.251 OA
ATOM     23  C   UNL     1       0.183  -0.029  24.414  0.00  0.00    +0.310 C 
BRANCH  23   3
ATOM      3  O   UNL     1       0.513  -0.032  23.091  0.00  0.00    -0.468 OA
ATOM     27  C   UNL     1       1.898  -0.257  22.804  0.00  0.00    +0.280 C 
ENDBRANCH  23   3
ENDBRANCH  18  23
ENDBRANCH  12  15
ENDBRANCH   8  12
TORSDOF 6
ENDMDL
