MODEL 1
REMARK VINA RESULT:      -3.1      0.000      0.000
REMARK  Name = 28959543
REMARK  11 active torsions:
REMARK  status: ('A' for Active; 'I' for Inactive)
REMARK    1  A    between atoms: O_3  and  C_17
REMARK    2  A    between atoms: N_6  and  C_15
REMARK    3  A    between atoms: N_6  and  C_18
REMARK    4  A    between atoms: N_6  and  C_19
REMARK    5  A    between atoms: C_8  and  C_12
REMARK    6  A    between atoms: C_9  and  C_14
REMARK    7  A    between atoms: C_12  and  C_15
REMARK    8  A    between atoms: C_14  and  C_17
REMARK    9  A    between atoms: C_16  and  C_20
REMARK   10  A    between atoms: C_18  and  C_21
REMARK   11  A    between atoms: C_19  and  C_22
REMARK                            x       y       z     vdW  Elec       q    Type
REMARK                         _______ _______ _______ _____ _____    ______ ____
ROOT
ATOM      2  O   UNL     1      -1.747   5.076  25.768  0.00  0.00    -0.270 OA
ATOM      5  N   UNL     1      -1.622   3.389  24.152  0.00  0.00    -0.297 N 
ATOM      8  C   UNL     1      -1.527   0.975  23.567  0.00  0.00    +0.011 C 
ATOM      9  C   UNL     1      -0.010   1.142  23.291  0.00  0.00    +0.006 C 
ATOM     10  C   UNL     1       0.589   2.301  24.106  0.00  0.00    +0.023 C 
ATOM     11  C   UNL     1      -2.248   2.320  23.361  0.00  0.00    +0.112 C 
ATOM     13  C   UNL     1      -0.197   3.592  23.891  0.00  0.00    +0.108 C 
ATOM     16  C   UNL     1      -2.269   4.185  25.100  0.00  0.00    +0.247 C 
ENDROOT
BRANCH  16  20
ATOM      1 CL   UNL     1      -6.151   1.011  26.409  0.00  0.00    -0.062 Cl
ATOM      7  N   UNL     1      -6.422   3.512  25.785  0.00  0.00    -0.244 NA
ATOM     20  C   UNL     1      -3.698   3.953  25.335  0.00  0.00    +0.041 A 
ATOM     23  C   UNL     1      -4.147   2.695  25.721  0.00  0.00    +0.053 A 
ATOM     24  C   UNL     1      -4.609   4.990  25.175  0.00  0.00    +0.033 A 
ATOM     25  C   UNL     1      -5.506   2.527  25.931  0.00  0.00    +0.130 A 
ATOM     26  C   UNL     1      -5.948   4.721  25.410  0.00  0.00    +0.113 A 
ENDBRANCH  16  20
BRANCH   8  12
ATOM     12  C   UNL     1      -1.849   0.406  24.954  0.00  0.00    +0.020 C 
BRANCH  12  15
ATOM     15  C   UNL     1      -3.142  -0.397  24.924  0.00  0.00    +0.084 C 
BRANCH  15   6
ATOM      6  N   UNL     1      -2.899  -1.745  25.425  0.00  0.00    -0.303 NA
BRANCH   6  18
ATOM     18  C   UNL     1      -1.475  -2.074  25.349  0.00  0.00    +0.081 C 
ATOM     21  C   UNL     1      -1.171  -2.919  24.124  0.00  0.00    +0.020 C 
ENDBRANCH   6  18
BRANCH   6  19
ATOM     19  C   UNL     1      -3.687  -2.723  24.675  0.00  0.00    +0.081 C 
ATOM     22  C   UNL     1      -4.547  -2.045  23.622  0.00  0.00    +0.020 C 
ENDBRANCH   6  19
ENDBRANCH  15   6
ENDBRANCH  12  15
ENDBRANCH   8  12
BRANCH   9  14
ATOM     14  C   UNL     1       0.786  -0.144  23.517  0.00  0.00    +0.124 C 
BRANCH  14  17
ATOM      4  O   UNL     1       1.802  -0.297  21.308  0.00  0.00    -0.251 OA
ATOM     17  C   UNL     1       1.906  -0.284  22.525  0.00  0.00    +0.305 C 
BRANCH  17   3
ATOM      3  O   UNL     1       3.088  -0.397  23.182  0.00  0.00    -0.481 OA
ATOM     27  H   UNL     1       2.988  -0.242  24.145  0.00  0.00    +0.295 HD
ENDBRANCH  17   3
ENDBRANCH  14  17
ENDBRANCH   9  14
TORSDOF 9
ENDMDL
MODEL 2
REMARK VINA RESULT:      -2.6      2.082      4.416
REMARK  Name = 28959543
REMARK  11 active torsions:
REMARK  status: ('A' for Active; 'I' for Inactive)
REMARK    1  A    between atoms: O_3  and  C_17
REMARK    2  A    between atoms: N_6  and  C_15
REMARK    3  A    between atoms: N_6  and  C_18
REMARK    4  A    between atoms: N_6  and  C_19
REMARK    5  A    between atoms: C_8  and  C_12
REMARK    6  A    between atoms: C_9  and  C_14
REMARK    7  A    between atoms: C_12  and  C_15
REMARK    8  A    between atoms: C_14  and  C_17
REMARK    9  A    between atoms: C_16  and  C_20
REMARK   10  A    between atoms: C_18  and  C_21
REMARK   11  A    between atoms: C_19  and  C_22
REMARK                            x       y       z     vdW  Elec       q    Type
REMARK                         _______ _______ _______ _____ _____    ______ ____
ROOT
ATOM      2  O   UNL     1      -4.569  -1.551  24.035  0.00  0.00    -0.270 OA
ATOM      5  N   UNL     1      -2.430  -0.792  24.603  0.00  0.00    -0.297 N 
ATOM      8  C   UNL     1      -0.452   0.629  24.110  0.00  0.00    +0.011 C 
ATOM      9  C   UNL     1       0.293  -0.643  23.627  0.00  0.00    +0.006 C 
ATOM     10  C   UNL     1      -0.688  -1.715  23.124  0.00  0.00    +0.023 C 
ATOM     11  C   UNL     1      -1.534   0.245  25.135  0.00  0.00    +0.112 C 
ATOM     13  C   UNL     1      -1.760  -2.017  24.168  0.00  0.00    +0.108 C 
ATOM     16  C   UNL     1      -3.818  -0.687  24.485  0.00  0.00    +0.247 C 
ENDROOT
BRANCH  16  20
ATOM      1 CL   UNL     1      -4.411   4.447  24.103  0.00  0.00    -0.062 Cl
ATOM      7  N   UNL     1      -5.672   2.926  25.780  0.00  0.00    -0.244 NA
ATOM     20  C   UNL     1      -4.455   0.556  24.931  0.00  0.00    +0.041 A 
ATOM     23  C   UNL     1      -4.125   1.766  24.329  0.00  0.00    +0.053 A 
ATOM     24  C   UNL     1      -5.393   0.531  25.956  0.00  0.00    +0.033 A 
ATOM     25  C   UNL     1      -4.755   2.912  24.786  0.00  0.00    +0.130 A 
ATOM     26  C   UNL     1      -5.967   1.732  26.341  0.00  0.00    +0.113 A 
ENDBRANCH  16  20
BRANCH   8  12
ATOM     12  C   UNL     1      -1.063   1.461  22.976  0.00  0.00    +0.020 C 
BRANCH  12  15
ATOM     15  C   UNL     1      -1.541   2.811  23.491  0.00  0.00    +0.084 C 
BRANCH  15   6
ATOM      6  N   UNL     1      -0.561   3.360  24.422  0.00  0.00    -0.303 NA
BRANCH   6  18
ATOM     18  C   UNL     1      -0.981   3.134  25.806  0.00  0.00    +0.081 C 
ATOM     21  C   UNL     1       0.187   2.690  26.669  0.00  0.00    +0.020 C 
ENDBRANCH   6  18
BRANCH   6  19
ATOM     19  C   UNL     1      -0.364   4.790  24.179  0.00  0.00    +0.081 C 
ATOM     22  C   UNL     1      -1.331   5.625  25.001  0.00  0.00    +0.020 C 
ENDBRANCH   6  19
ENDBRANCH  15   6
ENDBRANCH  12  15
ENDBRANCH   8  12
BRANCH   9  14
ATOM     14  C   UNL     1       1.359  -0.349  22.571  0.00  0.00    +0.124 C 
BRANCH  14  17
ATOM      4  O   UNL     1       3.503  -0.983  23.541  0.00  0.00    -0.251 OA
ATOM     17  C   UNL     1       2.709  -0.123  23.194  0.00  0.00    +0.305 C 
BRANCH  17   3
ATOM      3  O   UNL     1       2.935   1.209  23.323  0.00  0.00    -0.481 OA
ATOM     27  H   UNL     1       3.447   1.417  24.134  0.00  0.00    +0.295 HD
ENDBRANCH  17   3
ENDBRANCH  14  17
ENDBRANCH   9  14
TORSDOF 9
ENDMDL
MODEL 3
REMARK VINA RESULT:      -2.3      2.843      5.817
REMARK  Name = 28959543
REMARK  11 active torsions:
REMARK  status: ('A' for Active; 'I' for Inactive)
REMARK    1  A    between atoms: O_3  and  C_17
REMARK    2  A    between atoms: N_6  and  C_15
REMARK    3  A    between atoms: N_6  and  C_18
REMARK    4  A    between atoms: N_6  and  C_19
REMARK    5  A    between atoms: C_8  and  C_12
REMARK    6  A    between atoms: C_9  and  C_14
REMARK    7  A    between atoms: C_12  and  C_15
REMARK    8  A    between atoms: C_14  and  C_17
REMARK    9  A    between atoms: C_16  and  C_20
REMARK   10  A    between atoms: C_18  and  C_21
REMARK   11  A    between atoms: C_19  and  C_22
REMARK                            x       y       z     vdW  Elec       q    Type
REMARK                         _______ _______ _______ _____ _____    ______ ____
ROOT
ATOM      2  O   UNL     1      -5.198  -0.058  26.483  0.00  0.00    -0.270 OA
ATOM      5  N   UNL     1      -4.658   1.276  24.638  0.00  0.00    -0.297 N 
ATOM      8  C   UNL     1      -3.054   2.758  23.452  0.00  0.00    +0.011 C 
ATOM      9  C   UNL     1      -3.915   3.972  23.886  0.00  0.00    +0.006 C 
ATOM     10  C   UNL     1      -4.693   3.680  25.180  0.00  0.00    +0.023 C 
ATOM     11  C   UNL     1      -3.930   1.494  23.380  0.00  0.00    +0.112 C 
ATOM     13  C   UNL     1      -5.504   2.392  25.058  0.00  0.00    +0.108 C 
ATOM     16  C   UNL     1      -4.594   0.125  25.427  0.00  0.00    +0.247 C 
ENDROOT
BRANCH  16  20
ATOM      1 CL   UNL     1       0.015  -2.244  25.366  0.00  0.00    -0.062 Cl
ATOM      7  N   UNL     1      -2.098  -3.070  24.113  0.00  0.00    -0.244 NA
ATOM     20  C   UNL     1      -3.735  -0.974  24.974  0.00  0.00    +0.041 A 
ATOM     23  C   UNL     1      -2.405  -1.032  25.376  0.00  0.00    +0.053 A 
ATOM     24  C   UNL     1      -4.247  -1.963  24.143  0.00  0.00    +0.033 A 
ATOM     25  C   UNL     1      -1.635  -2.091  24.922  0.00  0.00    +0.130 A 
ATOM     26  C   UNL     1      -3.395  -2.981  23.743  0.00  0.00    +0.113 A 
ENDBRANCH  16  20
BRANCH   8  12
ATOM     12  C   UNL     1      -1.832   2.509  24.345  0.00  0.00    +0.020 C 
BRANCH  12  15
ATOM     15  C   UNL     1      -0.973   1.384  23.787  0.00  0.00    +0.084 C 
BRANCH  15   6
ATOM      6  N   UNL     1       0.281   1.304  24.529  0.00  0.00    -0.303 NA
BRANCH   6  18
ATOM     18  C   UNL     1       0.478   2.507  25.338  0.00  0.00    +0.081 C 
ATOM     21  C   UNL     1       0.074   2.270  26.784  0.00  0.00    +0.020 C 
ENDBRANCH   6  18
BRANCH   6  19
ATOM     19  C   UNL     1       1.409   1.115  23.616  0.00  0.00    +0.081 C 
ATOM     22  C   UNL     1       1.223  -0.127  22.761  0.00  0.00    +0.020 C 
ENDBRANCH   6  19
ENDBRANCH  15   6
ENDBRANCH  12  15
ENDBRANCH   8  12
BRANCH   9  14
ATOM     14  C   UNL     1      -3.106   5.262  24.024  0.00  0.00    +0.124 C 
BRANCH  14  17
ATOM      4  O   UNL     1      -2.467   4.801  26.330  0.00  0.00    -0.251 OA
ATOM     17  C   UNL     1      -2.190   5.217  25.216  0.00  0.00    +0.305 C 
BRANCH  17   3
ATOM      3  O   UNL     1      -0.974   5.716  24.877  0.00  0.00    -0.481 OA
ATOM     27  H   UNL     1      -0.542   5.184  24.176  0.00  0.00    +0.295 HD
ENDBRANCH  17   3
ENDBRANCH  14  17
ENDBRANCH   9  14
TORSDOF 9
ENDMDL
MODEL 4
REMARK VINA RESULT:      -2.1      1.193      1.648
REMARK  Name = 28959543
REMARK  11 active torsions:
REMARK  status: ('A' for Active; 'I' for Inactive)
REMARK    1  A    between atoms: O_3  and  C_17
REMARK    2  A    between atoms: N_6  and  C_15
REMARK    3  A    between atoms: N_6  and  C_18
REMARK    4  A    between atoms: N_6  and  C_19
REMARK    5  A    between atoms: C_8  and  C_12
REMARK    6  A    between atoms: C_9  and  C_14
REMARK    7  A    between atoms: C_12  and  C_15
REMARK    8  A    between atoms: C_14  and  C_17
REMARK    9  A    between atoms: C_16  and  C_20
REMARK   10  A    between atoms: C_18  and  C_21
REMARK   11  A    between atoms: C_19  and  C_22
REMARK                            x       y       z     vdW  Elec       q    Type
REMARK                         _______ _______ _______ _____ _____    ______ ____
ROOT
ATOM      2  O   UNL     1      -2.620   4.572  25.965  0.00  0.00    -0.270 OA
ATOM      5  N   UNL     1      -1.736   3.189  24.298  0.00  0.00    -0.297 N 
ATOM      8  C   UNL     1      -0.797   0.997  23.597  0.00  0.00    +0.011 C 
ATOM      9  C   UNL     1       0.611   1.646  23.592  0.00  0.00    +0.006 C 
ATOM     10  C   UNL     1       0.688   2.836  24.563  0.00  0.00    +0.023 C 
ATOM     11  C   UNL     1      -1.871   2.073  23.351  0.00  0.00    +0.112 C 
ATOM     13  C   UNL     1      -0.428   3.842  24.295  0.00  0.00    +0.108 C 
ATOM     16  C   UNL     1      -2.731   3.642  25.167  0.00  0.00    +0.247 C 
ENDROOT
BRANCH  16  20
ATOM      1 CL   UNL     1      -6.801   1.637  27.671  0.00  0.00    -0.062 Cl
ATOM      7  N   UNL     1      -6.508   1.668  25.096  0.00  0.00    -0.244 NA
ATOM     20  C   UNL     1      -4.030   2.963  25.143  0.00  0.00    +0.041 A 
ATOM     23  C   UNL     1      -4.690   2.675  26.333  0.00  0.00    +0.053 A 
ATOM     24  C   UNL     1      -4.608   2.604  23.930  0.00  0.00    +0.033 A 
ATOM     25  C   UNL     1      -5.916   2.032  26.256  0.00  0.00    +0.130 A 
ATOM     26  C   UNL     1      -5.837   1.965  23.961  0.00  0.00    +0.113 A 
ENDBRANCH  16  20
BRANCH   8  12
ATOM     12  C   UNL     1      -1.117   0.209  24.874  0.00  0.00    +0.020 C 
BRANCH  12  15
ATOM     15  C   UNL     1      -1.423  -1.246  24.551  0.00  0.00    +0.084 C 
BRANCH  15   6
ATOM      6  N   UNL     1      -2.835  -1.390  24.210  0.00  0.00    -0.303 NA
BRANCH   6  18
ATOM     18  C   UNL     1      -3.678  -0.781  25.240  0.00  0.00    +0.081 C 
ATOM     21  C   UNL     1      -3.360  -1.346  26.614  0.00  0.00    +0.020 C 
ENDBRANCH   6  18
BRANCH   6  19
ATOM     19  C   UNL     1      -3.182  -2.801  24.038  0.00  0.00    +0.081 C 
ATOM     22  C   UNL     1      -4.630  -2.962  23.607  0.00  0.00    +0.020 C 
ENDBRANCH   6  19
ENDBRANCH  15   6
ENDBRANCH  12  15
ENDBRANCH   8  12
BRANCH   9  14
ATOM     14  C   UNL     1       1.733   0.646  23.875  0.00  0.00    +0.124 C 
BRANCH  14  17
ATOM      4  O   UNL     1       3.831   0.740  22.638  0.00  0.00    -0.251 OA
ATOM     17  C   UNL     1       2.639   0.480  22.686  0.00  0.00    +0.305 C 
BRANCH  17   3
ATOM      3  O   UNL     1       1.932  -0.016  21.639  0.00  0.00    -0.481 OA
ATOM     27  H   UNL     1       1.452   0.689  21.155  0.00  0.00    +0.295 HD
ENDBRANCH  17   3
ENDBRANCH  14  17
ENDBRANCH   9  14
TORSDOF 9
ENDMDL
MODEL 5
REMARK VINA RESULT:      -1.9      3.123      7.024
REMARK  Name = 28959543
REMARK  11 active torsions:
REMARK  status: ('A' for Active; 'I' for Inactive)
REMARK    1  A    between atoms: O_3  and  C_17
REMARK    2  A    between atoms: N_6  and  C_15
REMARK    3  A    between atoms: N_6  and  C_18
REMARK    4  A    between atoms: N_6  and  C_19
REMARK    5  A    between atoms: C_8  and  C_12
REMARK    6  A    between atoms: C_9  and  C_14
REMARK    7  A    between atoms: C_12  and  C_15
REMARK    8  A    between atoms: C_14  and  C_17
REMARK    9  A    between atoms: C_16  and  C_20
REMARK   10  A    between atoms: C_18  and  C_21
REMARK   11  A    between atoms: C_19  and  C_22
REMARK                            x       y       z     vdW  Elec       q    Type
REMARK                         _______ _______ _______ _____ _____    ______ ____
ROOT
ATOM      2  O   UNL     1      -0.199  -2.096  25.355  0.00  0.00    -0.270 OA
ATOM      5  N   UNL     1      -2.032  -0.928  24.488  0.00  0.00    -0.297 N 
ATOM      8  C   UNL     1      -3.592   1.004  24.587  0.00  0.00    +0.011 C 
ATOM      9  C   UNL     1      -4.668   0.055  25.174  0.00  0.00    +0.006 C 
ATOM     10  C   UNL     1      -4.031  -1.133  25.914  0.00  0.00    +0.023 C 
ATOM     11  C   UNL     1      -2.595   0.201  23.733  0.00  0.00    +0.112 C 
ATOM     13  C   UNL     1      -3.022  -1.859  25.028  0.00  0.00    +0.108 C 
ATOM     16  C   UNL     1      -0.673  -1.156  24.718  0.00  0.00    +0.247 C 
ENDROOT
BRANCH  16  20
ATOM      1 CL   UNL     1       3.224  -0.079  21.477  0.00  0.00    -0.062 Cl
ATOM      7  N   UNL     1       2.127   1.619  23.098  0.00  0.00    -0.244 NA
ATOM     20  C   UNL     1       0.290  -0.201  24.161  0.00  0.00    +0.041 A 
ATOM     23  C   UNL     1       1.189  -0.608  23.181  0.00  0.00    +0.053 A 
ATOM     24  C   UNL     1       0.308   1.114  24.610  0.00  0.00    +0.033 A 
ATOM     25  C   UNL     1       2.080   0.332  22.687  0.00  0.00    +0.130 A 
ATOM     26  C   UNL     1       1.238   1.978  24.052  0.00  0.00    +0.113 A 
ENDBRANCH  16  20
BRANCH   8  12
ATOM     12  C   UNL     1      -2.844   1.829  25.643  0.00  0.00    +0.020 C 
BRANCH  12  15
ATOM     15  C   UNL     1      -2.139   3.016  25.004  0.00  0.00    +0.084 C 
BRANCH  15   6
ATOM      6  N   UNL     1      -2.851   4.247  25.329  0.00  0.00    -0.303 NA
BRANCH   6  18
ATOM     18  C   UNL     1      -3.938   4.481  24.377  0.00  0.00    +0.081 C 
ATOM     21  C   UNL     1      -3.721   3.698  23.093  0.00  0.00    +0.020 C 
ENDBRANCH   6  18
BRANCH   6  19
ATOM     19  C   UNL     1      -1.932   5.386  25.339  0.00  0.00    +0.081 C 
ATOM     22  C   UNL     1      -0.596   5.020  24.713  0.00  0.00    +0.020 C 
ENDBRANCH   6  19
ENDBRANCH  15   6
ENDBRANCH  12  15
ENDBRANCH   8  12
BRANCH   9  14
ATOM     14  C   UNL     1      -5.674   0.773  26.074  0.00  0.00    +0.124 C 
BRANCH  14  17
ATOM      4  O   UNL     1      -6.946   1.859  24.301  0.00  0.00    -0.251 OA
ATOM     17  C   UNL     1      -6.339   1.917  25.359  0.00  0.00    +0.305 C 
BRANCH  17   3
ATOM      3  O   UNL     1      -6.170   3.061  26.070  0.00  0.00    -0.481 OA
ATOM     27  H   UNL     1      -6.631   3.821  25.656  0.00  0.00    +0.295 HD
ENDBRANCH  17   3
ENDBRANCH  14  17
ENDBRANCH   9  14
TORSDOF 9
ENDMDL
MODEL 6
REMARK VINA RESULT:      -1.8      3.310      7.145
REMARK  Name = 28959543
REMARK  11 active torsions:
REMARK  status: ('A' for Active; 'I' for Inactive)
REMARK    1  A    between atoms: O_3  and  C_17
REMARK    2  A    between atoms: N_6  and  C_15
REMARK    3  A    between atoms: N_6  and  C_18
REMARK    4  A    between atoms: N_6  and  C_19
REMARK    5  A    between atoms: C_8  and  C_12
REMARK    6  A    between atoms: C_9  and  C_14
REMARK    7  A    between atoms: C_12  and  C_15
REMARK    8  A    between atoms: C_14  and  C_17
REMARK    9  A    between atoms: C_16  and  C_20
REMARK   10  A    between atoms: C_18  and  C_21
REMARK   11  A    between atoms: C_19  and  C_22
REMARK                            x       y       z     vdW  Elec       q    Type
REMARK                         _______ _______ _______ _____ _____    ______ ____
ROOT
ATOM      2  O   UNL     1      -0.210  -1.400  25.478  0.00  0.00    -0.270 OA
ATOM      5  N   UNL     1      -1.940  -0.511  24.177  0.00  0.00    -0.297 N 
ATOM      8  C   UNL     1      -3.141   1.458  23.254  0.00  0.00    +0.011 C 
ATOM      9  C   UNL     1      -4.258   1.220  24.303  0.00  0.00    +0.006 C 
ATOM     10  C   UNL     1      -3.717   0.503  25.551  0.00  0.00    +0.023 C 
ATOM     11  C   UNL     1      -2.420   0.133  22.946  0.00  0.00    +0.112 C 
ATOM     13  C   UNL     1      -2.976  -0.778  25.175  0.00  0.00    +0.108 C 
ATOM     16  C   UNL     1      -0.616  -0.865  24.447  0.00  0.00    +0.247 C 
ENDROOT
BRANCH  16  20
ATOM      1 CL   UNL     1       4.064   0.927  23.128  0.00  0.00    -0.062 Cl
ATOM      7  N   UNL     1       2.324  -0.046  21.472  0.00  0.00    -0.244 NA
ATOM     20  C   UNL     1       0.395  -0.583  23.423  0.00  0.00    +0.041 A 
ATOM     23  C   UNL     1       1.613  -0.017  23.783  0.00  0.00    +0.053 A 
ATOM     24  C   UNL     1       0.141  -0.882  22.090  0.00  0.00    +0.033 A 
ATOM     25  C   UNL     1       2.536   0.230  22.778  0.00  0.00    +0.130 A 
ATOM     26  C   UNL     1       1.129  -0.596  21.161  0.00  0.00    +0.113 A 
ENDBRANCH  16  20
BRANCH   8  12
ATOM     12  C   UNL     1      -2.127   2.536  23.656  0.00  0.00    +0.020 C 
BRANCH  12  15
ATOM     15  C   UNL     1      -2.431   3.076  25.046  0.00  0.00    +0.084 C 
BRANCH  15   6
ATOM      6  N   UNL     1      -1.199   3.530  25.681  0.00  0.00    -0.303 NA
BRANCH   6  18
ATOM     18  C   UNL     1      -0.640   4.675  24.961  0.00  0.00    +0.081 C 
ATOM     21  C   UNL     1      -1.605   5.848  24.961  0.00  0.00    +0.020 C 
ENDBRANCH   6  18
BRANCH   6  19
ATOM     19  C   UNL     1      -0.221   2.442  25.744  0.00  0.00    +0.081 C 
ATOM     22  C   UNL     1       0.525   2.450  27.067  0.00  0.00    +0.020 C 
ENDBRANCH   6  19
ENDBRANCH  15   6
ENDBRANCH  12  15
ENDBRANCH   8  12
BRANCH   9  14
ATOM     14  C   UNL     1      -4.995   2.501  24.695  0.00  0.00    +0.124 C 
BRANCH  14  17
ATOM      4  O   UNL     1      -6.219   2.410  26.801  0.00  0.00    -0.251 OA
ATOM     17  C   UNL     1      -6.164   2.214  25.597  0.00  0.00    +0.305 C 
BRANCH  17   3
ATOM      3  O   UNL     1      -7.183   1.690  24.871  0.00  0.00    -0.481 OA
ATOM     27  H   UNL     1      -8.046   2.090  25.108  0.00  0.00    +0.295 HD
ENDBRANCH  17   3
ENDBRANCH  14  17
ENDBRANCH   9  14
TORSDOF 9
ENDMDL
MODEL 7
REMARK VINA RESULT:      -1.8      1.967      4.373
REMARK  Name = 28959543
REMARK  11 active torsions:
REMARK  status: ('A' for Active; 'I' for Inactive)
REMARK    1  A    between atoms: O_3  and  C_17
REMARK    2  A    between atoms: N_6  and  C_15
REMARK    3  A    between atoms: N_6  and  C_18
REMARK    4  A    between atoms: N_6  and  C_19
REMARK    5  A    between atoms: C_8  and  C_12
REMARK    6  A    between atoms: C_9  and  C_14
REMARK    7  A    between atoms: C_12  and  C_15
REMARK    8  A    between atoms: C_14  and  C_17
REMARK    9  A    between atoms: C_16  and  C_20
REMARK   10  A    between atoms: C_18  and  C_21
REMARK   11  A    between atoms: C_19  and  C_22
REMARK                            x       y       z     vdW  Elec       q    Type
REMARK                         _______ _______ _______ _____ _____    ______ ____
ROOT
ATOM      2  O   UNL     1      -4.385  -1.719  23.835  0.00  0.00    -0.270 OA
ATOM      5  N   UNL     1      -2.312  -0.867  24.504  0.00  0.00    -0.297 N 
ATOM      8  C   UNL     1      -0.387   0.657  24.116  0.00  0.00    +0.011 C 
ATOM      9  C   UNL     1       0.438  -0.568  23.647  0.00  0.00    +0.006 C 
ATOM     10  C   UNL     1      -0.466  -1.679  23.087  0.00  0.00    +0.023 C 
ATOM     11  C   UNL     1      -1.491   0.204  25.089  0.00  0.00    +0.112 C 
ATOM     13  C   UNL     1      -1.565  -2.050  24.080  0.00  0.00    +0.108 C 
ATOM     16  C   UNL     1      -3.697  -0.827  24.329  0.00  0.00    +0.247 C 
ENDROOT
BRANCH  16  20
ATOM      1 CL   UNL     1      -7.041   1.497  27.534  0.00  0.00    -0.062 Cl
ATOM      7  N   UNL     1      -5.777   2.670  25.600  0.00  0.00    -0.244 NA
ATOM     20  C   UNL     1      -4.413   0.376  24.766  0.00  0.00    +0.041 A 
ATOM     23  C   UNL     1      -5.290   0.314  25.844  0.00  0.00    +0.053 A 
ATOM     24  C   UNL     1      -4.217   1.583  24.106  0.00  0.00    +0.033 A 
ATOM     25  C   UNL     1      -5.942   1.478  26.217  0.00  0.00    +0.130 A 
ATOM     26  C   UNL     1      -4.916   2.691  24.557  0.00  0.00    +0.113 A 
ENDBRANCH  16  20
BRANCH   8  12
ATOM     12  C   UNL     1      -0.992   1.478  22.970  0.00  0.00    +0.020 C 
BRANCH  12  15
ATOM     15  C   UNL     1      -1.025   2.958  23.322  0.00  0.00    +0.084 C 
BRANCH  15   6
ATOM      6  N   UNL     1      -1.163   3.120  24.765  0.00  0.00    -0.303 NA
BRANCH   6  18
ATOM     18  C   UNL     1      -2.069   4.227  25.075  0.00  0.00    +0.081 C 
ATOM     21  C   UNL     1      -1.345   5.562  25.017  0.00  0.00    +0.020 C 
ENDBRANCH   6  18
BRANCH   6  19
ATOM     19  C   UNL     1       0.144   3.345  25.385  0.00  0.00    +0.081 C 
ATOM     22  C   UNL     1       0.238   2.652  26.734  0.00  0.00    +0.020 C 
ENDBRANCH   6  19
ENDBRANCH  15   6
ENDBRANCH  12  15
ENDBRANCH   8  12
BRANCH   9  14
ATOM     14  C   UNL     1       1.532  -0.206  22.641  0.00  0.00    +0.124 C 
BRANCH  14  17
ATOM      4  O   UNL     1       3.508  -1.246  23.618  0.00  0.00    -0.251 OA
ATOM     17  C   UNL     1       2.897  -0.247  23.269  0.00  0.00    +0.305 C 
BRANCH  17   3
ATOM      3  O   UNL     1       3.379   1.016  23.400  0.00  0.00    -0.481 OA
ATOM     27  H   UNL     1       4.232   1.133  22.931  0.00  0.00    +0.295 HD
ENDBRANCH  17   3
ENDBRANCH  14  17
ENDBRANCH   9  14
TORSDOF 9
ENDMDL
MODEL 8
REMARK VINA RESULT:      -0.9      2.676      5.175
REMARK  Name = 28959543
REMARK  11 active torsions:
REMARK  status: ('A' for Active; 'I' for Inactive)
REMARK    1  A    between atoms: O_3  and  C_17
REMARK    2  A    between atoms: N_6  and  C_15
REMARK    3  A    between atoms: N_6  and  C_18
REMARK    4  A    between atoms: N_6  and  C_19
REMARK    5  A    between atoms: C_8  and  C_12
REMARK    6  A    between atoms: C_9  and  C_14
REMARK    7  A    between atoms: C_12  and  C_15
REMARK    8  A    between atoms: C_14  and  C_17
REMARK    9  A    between atoms: C_16  and  C_20
REMARK   10  A    between atoms: C_18  and  C_21
REMARK   11  A    between atoms: C_19  and  C_22
REMARK                            x       y       z     vdW  Elec       q    Type
REMARK                         _______ _______ _______ _____ _____    ______ ____
ROOT
ATOM      2  O   UNL     1      -5.478   1.097  25.984  0.00  0.00    -0.270 OA
ATOM      5  N   UNL     1      -4.083   1.697  24.206  0.00  0.00    -0.297 N 
ATOM      8  C   UNL     1      -1.810   2.190  23.328  0.00  0.00    +0.011 C 
ATOM      9  C   UNL     1      -2.169   3.698  23.356  0.00  0.00    +0.006 C 
ATOM     10  C   UNL     1      -3.242   4.004  24.414  0.00  0.00    +0.023 C 
ATOM     11  C   UNL     1      -3.091   1.349  23.177  0.00  0.00    +0.112 C 
ATOM     13  C   UNL     1      -4.465   3.108  24.237  0.00  0.00    +0.108 C 
ATOM     16  C   UNL     1      -4.653   0.808  25.119  0.00  0.00    +0.247 C 
ENDROOT
BRANCH  16  20
ATOM      1 CL   UNL     1      -4.620  -3.759  22.670  0.00  0.00    -0.062 Cl
ATOM      7  N   UNL     1      -3.467  -3.282  24.942  0.00  0.00    -0.244 NA
ATOM     20  C   UNL     1      -4.246  -0.599  25.058  0.00  0.00    +0.041 A 
ATOM     23  C   UNL     1      -4.618  -1.388  23.975  0.00  0.00    +0.053 A 
ATOM     24  C   UNL     1      -3.485  -1.150  26.082  0.00  0.00    +0.033 A 
ATOM     25  C   UNL     1      -4.208  -2.712  23.964  0.00  0.00    +0.130 A 
ATOM     26  C   UNL     1      -3.125  -2.485  25.978  0.00  0.00    +0.113 A 
ENDBRANCH  16  20
BRANCH   8  12
ATOM     12  C   UNL     1      -1.004   1.718  24.544  0.00  0.00    +0.020 C 
BRANCH  12  15
ATOM     15  C   UNL     1       0.400   1.296  24.133  0.00  0.00    +0.084 C 
BRANCH  15   6
ATOM      6  N   UNL     1       0.342   0.041  23.392  0.00  0.00    -0.303 NA
BRANCH   6  18
ATOM     18  C   UNL     1       0.122  -1.085  24.302  0.00  0.00    +0.081 C 
ATOM     21  C   UNL     1      -0.785  -2.129  23.674  0.00  0.00    +0.020 C 
ENDBRANCH   6  18
BRANCH   6  19
ATOM     19  C   UNL     1       1.571  -0.161  22.624  0.00  0.00    +0.081 C 
ATOM     22  C   UNL     1       2.660   0.802  23.066  0.00  0.00    +0.020 C 
ENDBRANCH   6  19
ENDBRANCH  15   6
ENDBRANCH  12  15
ENDBRANCH   8  12
BRANCH   9  14
ATOM     14  C   UNL     1      -0.950   4.601  23.547  0.00  0.00    +0.124 C 
BRANCH  14  17
ATOM      4  O   UNL     1      -0.224   4.336  25.859  0.00  0.00    -0.251 OA
ATOM     17  C   UNL     1      -0.773   4.994  24.988  0.00  0.00    +0.305 C 
BRANCH  17   3
ATOM      3  O   UNL     1      -1.321   6.217  25.199  0.00  0.00    -0.481 OA
ATOM     27  H   UNL     1      -1.941   6.469  24.483  0.00  0.00    +0.295 HD
ENDBRANCH  17   3
ENDBRANCH  14  17
ENDBRANCH   9  14
TORSDOF 9
ENDMDL
MODEL 9
REMARK VINA RESULT:      -0.7      2.861      4.646
REMARK  Name = 28959543
REMARK  11 active torsions:
REMARK  status: ('A' for Active; 'I' for Inactive)
REMARK    1  A    between atoms: O_3  and  C_17
REMARK    2  A    between atoms: N_6  and  C_15
REMARK    3  A    between atoms: N_6  and  C_18
REMARK    4  A    between atoms: N_6  and  C_19
REMARK    5  A    between atoms: C_8  and  C_12
REMARK    6  A    between atoms: C_9  and  C_14
REMARK    7  A    between atoms: C_12  and  C_15
REMARK    8  A    between atoms: C_14  and  C_17
REMARK    9  A    between atoms: C_16  and  C_20
REMARK   10  A    between atoms: C_18  and  C_21
REMARK   11  A    between atoms: C_19  and  C_22
REMARK                            x       y       z     vdW  Elec       q    Type
REMARK                         _______ _______ _______ _____ _____    ______ ____
ROOT
ATOM      2  O   UNL     1      -5.005   4.177  24.642  0.00  0.00    -0.270 OA
ATOM      5  N   UNL     1      -4.283   2.060  25.326  0.00  0.00    -0.297 N 
ATOM      8  C   UNL     1      -3.136  -0.087  24.822  0.00  0.00    +0.011 C 
ATOM      9  C   UNL     1      -4.528  -0.762  24.721  0.00  0.00    +0.006 C 
ATOM     10  C   UNL     1      -5.619   0.248  24.324  0.00  0.00    +0.023 C 
ATOM     11  C   UNL     1      -3.215   1.141  25.747  0.00  0.00    +0.112 C 
ATOM     13  C   UNL     1      -5.614   1.460  25.251  0.00  0.00    +0.108 C 
ATOM     16  C   UNL     1      -4.115   3.408  25.000  0.00  0.00    +0.247 C 
ENDROOT
BRANCH  16  20
ATOM      1 CL   UNL     1       0.833   3.027  26.491  0.00  0.00    -0.062 Cl
ATOM      7  N   UNL     1      -0.192   5.057  25.248  0.00  0.00    -0.244 NA
ATOM     20  C   UNL     1      -2.765   3.975  25.086  0.00  0.00    +0.041 A 
ATOM     23  C   UNL     1      -1.744   3.258  25.699  0.00  0.00    +0.053 A 
ATOM     24  C   UNL     1      -2.502   5.232  24.554  0.00  0.00    +0.033 A 
ATOM     25  C   UNL     1      -0.486   3.838  25.754  0.00  0.00    +0.130 A 
ATOM     26  C   UNL     1      -1.210   5.723  24.660  0.00  0.00    +0.113 A 
ENDBRANCH  16  20
BRANCH   8  12
ATOM     12  C   UNL     1      -2.534   0.305  23.467  0.00  0.00    +0.020 C 
BRANCH  12  15
ATOM     15  C   UNL     1      -1.310   1.190  23.653  0.00  0.00    +0.084 C 
BRANCH  15   6
ATOM      6  N   UNL     1      -0.221   0.412  24.234  0.00  0.00    -0.303 NA
BRANCH   6  18
ATOM     18  C   UNL     1       1.064   0.818  23.662  0.00  0.00    +0.081 C 
ATOM     21  C   UNL     1       1.450  -0.071  22.492  0.00  0.00    +0.020 C 
ENDBRANCH   6  18
BRANCH   6  19
ATOM     19  C   UNL     1      -0.441  -1.019  24.022  0.00  0.00    +0.081 C 
ATOM     22  C   UNL     1      -0.228  -1.803  25.306  0.00  0.00    +0.020 C 
ENDBRANCH   6  19
ENDBRANCH  15   6
ENDBRANCH  12  15
ENDBRANCH   8  12
BRANCH   9  14
ATOM     14  C   UNL     1      -4.544  -1.969  23.782  0.00  0.00    +0.124 C 
BRANCH  14  17
ATOM      4  O   UNL     1      -2.811  -3.649  23.444  0.00  0.00    -0.251 OA
ATOM     17  C   UNL     1      -3.528  -3.000  24.190  0.00  0.00    +0.305 C 
BRANCH  17   3
ATOM      3  O   UNL     1      -3.513  -3.118  25.542  0.00  0.00    -0.481 OA
ATOM     27  H   UNL     1      -4.168  -3.776  25.860  0.00  0.00    +0.295 HD
ENDBRANCH  17   3
ENDBRANCH  14  17
ENDBRANCH   9  14
TORSDOF 9
ENDMDL
MODEL 10
REMARK VINA RESULT:      -0.3      1.749      5.684
REMARK  Name = 28959543
REMARK  11 active torsions:
REMARK  status: ('A' for Active; 'I' for Inactive)
REMARK    1  A    between atoms: O_3  and  C_17
REMARK    2  A    between atoms: N_6  and  C_15
REMARK    3  A    between atoms: N_6  and  C_18
REMARK    4  A    between atoms: N_6  and  C_19
REMARK    5  A    between atoms: C_8  and  C_12
REMARK    6  A    between atoms: C_9  and  C_14
REMARK    7  A    between atoms: C_12  and  C_15
REMARK    8  A    between atoms: C_14  and  C_17
REMARK    9  A    between atoms: C_16  and  C_20
REMARK   10  A    between atoms: C_18  and  C_21
REMARK   11  A    between atoms: C_19  and  C_22
REMARK                            x       y       z     vdW  Elec       q    Type
REMARK                         _______ _______ _______ _____ _____    ______ ____
ROOT
ATOM      2  O   UNL     1       0.641  -1.072  23.282  0.00  0.00    -0.270 OA
ATOM      5  N   UNL     1      -0.109   0.664  24.659  0.00  0.00    -0.297 N 
ATOM      8  C   UNL     1      -1.646   2.575  25.066  0.00  0.00    +0.011 C 
ATOM      9  C   UNL     1      -0.470   3.536  24.752  0.00  0.00    +0.006 C 
ATOM     10  C   UNL     1       0.562   2.881  23.818  0.00  0.00    +0.023 C 
ATOM     11  C   UNL     1      -1.100   1.232  25.585  0.00  0.00    +0.112 C 
ATOM     13  C   UNL     1       1.028   1.535  24.368  0.00  0.00    +0.108 C 
ATOM     16  C   UNL     1      -0.184  -0.596  24.061  0.00  0.00    +0.247 C 
ENDROOT
BRANCH  16  20
ATOM      1 CL   UNL     1      -5.187  -1.788  23.429  0.00  0.00    -0.062 Cl
ATOM      7  N   UNL     1      -3.541  -3.057  24.978  0.00  0.00    -0.244 NA
ATOM     20  C   UNL     1      -1.339  -1.442  24.377  0.00  0.00    +0.041 A 
ATOM     23  C   UNL     1      -2.571  -1.193  23.782  0.00  0.00    +0.053 A 
ATOM     24  C   UNL     1      -1.207  -2.499  25.271  0.00  0.00    +0.033 A 
ATOM     25  C   UNL     1      -3.631  -2.021  24.113  0.00  0.00    +0.130 A 
ATOM     26  C   UNL     1      -2.328  -3.269  25.535  0.00  0.00    +0.113 A 
ENDBRANCH  16  20
BRANCH   8  12
ATOM     12  C   UNL     1      -2.594   2.342  23.883  0.00  0.00    +0.020 C 
BRANCH  12  15
ATOM     15  C   UNL     1      -3.972   2.921  24.170  0.00  0.00    +0.084 C 
BRANCH  15   6
ATOM      6  N   UNL     1      -4.440   2.460  25.473  0.00  0.00    -0.303 NA
BRANCH   6  18
ATOM     18  C   UNL     1      -5.076   1.148  25.357  0.00  0.00    +0.081 C 
ATOM     21  C   UNL     1      -6.476   1.265  24.779  0.00  0.00    +0.020 C 
ENDBRANCH   6  18
BRANCH   6  19
ATOM     19  C   UNL     1      -5.371   3.426  26.057  0.00  0.00    +0.081 C 
ATOM     22  C   UNL     1      -5.426   4.703  25.235  0.00  0.00    +0.020 C 
ENDBRANCH   6  19
ENDBRANCH  15   6
ENDBRANCH  12  15
ENDBRANCH   8  12
BRANCH   9  14
ATOM     14  C   UNL     1      -0.930   4.881  24.188  0.00  0.00    +0.124 C 
BRANCH  14  17
ATOM      4  O   UNL     1      -2.172   6.780  25.077  0.00  0.00    -0.251 OA
ATOM     17  C   UNL     1      -1.816   5.614  25.157  0.00  0.00    +0.305 C 
BRANCH  17   3
ATOM      3  O   UNL     1      -2.179   4.781  26.164  0.00  0.00    -0.481 OA
ATOM     27  H   UNL     1      -3.126   4.884  26.402  0.00  0.00    +0.295 HD
ENDBRANCH  17   3
ENDBRANCH  14  17
ENDBRANCH   9  14
TORSDOF 9
ENDMDL
