MODEL 1
REMARK VINA RESULT:      -2.8      0.000      0.000
REMARK  Name = 28991035
REMARK  7 active torsions:
REMARK  status: ('A' for Active; 'I' for Inactive)
REMARK    1  A    between atoms: S_1  and  N_7
REMARK    2  A    between atoms: S_1  and  C_21
REMARK    3  A    between atoms: N_6  and  C_15
REMARK    4  A    between atoms: N_7  and  C_16
REMARK    5  A    between atoms: C_9  and  C_15
REMARK    6  A    between atoms: C_10  and  C_16
REMARK    7  A    between atoms: C_26  and  C_27
REMARK                            x       y       z     vdW  Elec       q    Type
REMARK                         _______ _______ _______ _____ _____    ______ ____
ROOT
ATOM      5  N   UNL     1      -2.764   4.236  24.470  0.00  0.00    -0.298 NA
ATOM      8  C   UNL     1      -0.428   3.522  25.365  0.00  0.00    -0.003 C 
ATOM      9  C   UNL     1      -0.919   2.550  24.269  0.00  0.00    +0.020 C 
ATOM     10  C   UNL     1      -2.794   4.141  25.954  0.00  0.00    +0.072 C 
ATOM     11  C   UNL     1      -1.465   3.575  26.501  0.00  0.00    +0.024 C 
ATOM     12  C   UNL     1      -2.365   2.935  23.879  0.00  0.00    +0.089 C 
ATOM     13  C   UNL     1      -0.377   4.925  24.728  0.00  0.00    +0.019 C 
ATOM     14  C   UNL     1      -1.744   5.246  24.098  0.00  0.00    +0.085 C 
ENDROOT
BRANCH   9  15
ATOM     15  C   UNL     1      -0.819   1.082  24.676  0.00  0.00    +0.089 C 
BRANCH  15   6
ATOM      2  O   UNL     1       2.148   0.166  21.852  0.00  0.00    -0.377 OA
ATOM      6  N   UNL     1       0.301   0.429  24.003  0.00  0.00    -0.298 NA
ATOM     17  C   UNL     1      -0.112  -0.099  22.695  0.00  0.00    +0.112 C 
ATOM     18  C   UNL     1       1.425   1.360  23.837  0.00  0.00    +0.112 C 
ATOM     19  C   UNL     1       1.076  -0.766  22.007  0.00  0.00    +0.175 C 
ATOM     20  C   UNL     1       2.577   0.659  23.121  0.00  0.00    +0.175 C 
ENDBRANCH  15   6
ENDBRANCH   9  15
BRANCH  10  16
ATOM     16  C   UNL     1      -4.001   3.350  26.465  0.00  0.00    +0.124 C 
BRANCH  16   7
ATOM      7  N   UNL     1      -4.912   3.039  25.376  0.00  0.00    -0.188 NA
ATOM     28  H   UNL     1      -4.661   3.402  24.448  0.00  0.00    +0.148 HD
BRANCH   7   1
ATOM      1  S   UNL     1      -5.933   1.666  25.456  0.00  0.00    +0.058 S 
ATOM      3  O   UNL     1      -6.872   1.711  24.351  0.00  0.00    -0.153 OA
ATOM      4  O   UNL     1      -6.413   1.494  26.814  0.00  0.00    -0.153 OA
BRANCH   1  21
ATOM     21  C   UNL     1      -4.787   0.356  25.144  0.00  0.00    +0.105 A 
ATOM     22  C   UNL     1      -4.552  -0.067  23.836  0.00  0.00    +0.029 A 
ATOM     23  C   UNL     1      -4.122  -0.256  26.205  0.00  0.00    +0.029 A 
ATOM     24  C   UNL     1      -3.651  -1.102  23.590  0.00  0.00    +0.005 A 
ATOM     25  C   UNL     1      -3.221  -1.291  25.959  0.00  0.00    +0.005 A 
ATOM     26  C   UNL     1      -2.985  -1.715  24.651  0.00  0.00    -0.050 A 
ATOM     27  C   UNL     1      -2.020  -2.822  24.388  0.00  0.00    +0.044 C 
ENDBRANCH   1  21
ENDBRANCH   7   1
ENDBRANCH  16   7
ENDBRANCH  10  16
TORSDOF 6
ENDMDL
MODEL 2
REMARK VINA RESULT:      -2.7      1.483      2.335
REMARK  Name = 28991035
REMARK  7 active torsions:
REMARK  status: ('A' for Active; 'I' for Inactive)
REMARK    1  A    between atoms: S_1  and  N_7
REMARK    2  A    between atoms: S_1  and  C_21
REMARK    3  A    between atoms: N_6  and  C_15
REMARK    4  A    between atoms: N_7  and  C_16
REMARK    5  A    between atoms: C_9  and  C_15
REMARK    6  A    between atoms: C_10  and  C_16
REMARK    7  A    between atoms: C_26  and  C_27
REMARK                            x       y       z     vdW  Elec       q    Type
REMARK                         _______ _______ _______ _____ _____    ______ ____
ROOT
ATOM      5  N   UNL     1      -1.046   3.479  24.367  0.00  0.00    -0.298 NA
ATOM      8  C   UNL     1      -0.054   1.285  25.351  0.00  0.00    -0.003 C 
ATOM      9  C   UNL     1       0.648   1.662  24.027  0.00  0.00    +0.020 C 
ATOM     10  C   UNL     1      -2.138   2.512  24.660  0.00  0.00    +0.072 C 
ATOM     11  C   UNL     1      -1.567   1.147  25.105  0.00  0.00    +0.024 C 
ATOM     12  C   UNL     1      -0.075   2.884  23.416  0.00  0.00    +0.089 C 
ATOM     13  C   UNL     1       0.146   2.469  26.316  0.00  0.00    +0.019 C 
ATOM     14  C   UNL     1      -0.336   3.764  25.637  0.00  0.00    +0.085 C 
ENDROOT
BRANCH   9  15
ATOM     15  C   UNL     1       0.729   0.503  23.036  0.00  0.00    +0.089 C 
BRANCH  15   6
ATOM      2  O   UNL     1       4.833  -0.158  23.613  0.00  0.00    -0.377 OA
ATOM      6  N   UNL     1       2.117   0.111  22.804  0.00  0.00    -0.298 NA
ATOM     17  C   UNL     1       3.010   1.274  22.896  0.00  0.00    +0.112 C 
ATOM     18  C   UNL     1       2.534  -0.921  23.763  0.00  0.00    +0.112 C 
ATOM     19  C   UNL     1       4.453   0.837  22.662  0.00  0.00    +0.175 C 
ATOM     20  C   UNL     1       3.990  -1.305  23.509  0.00  0.00    +0.175 C 
ENDBRANCH  15   6
ENDBRANCH   9  15
BRANCH  10  16
ATOM     16  C   UNL     1      -3.118   2.365  23.493  0.00  0.00    +0.124 C 
BRANCH  16   7
ATOM      7  N   UNL     1      -4.439   2.844  23.864  0.00  0.00    -0.188 NA
ATOM     28  H   UNL     1      -4.929   3.425  23.173  0.00  0.00    +0.148 HD
BRANCH   7   1
ATOM      1  S   UNL     1      -5.380   2.002  25.021  0.00  0.00    +0.058 S 
ATOM      3  O   UNL     1      -6.747   1.911  24.541  0.00  0.00    -0.153 OA
ATOM      4  O   UNL     1      -5.107   2.526  26.346  0.00  0.00    -0.153 OA
BRANCH   1  21
ATOM     21  C   UNL     1      -4.668   0.386  24.948  0.00  0.00    +0.105 A 
ATOM     22  C   UNL     1      -4.089  -0.173  26.087  0.00  0.00    +0.029 A 
ATOM     23  C   UNL     1      -4.682  -0.329  23.750  0.00  0.00    +0.029 A 
ATOM     24  C   UNL     1      -3.525  -1.447  26.029  0.00  0.00    +0.005 A 
ATOM     25  C   UNL     1      -4.117  -1.602  23.692  0.00  0.00    +0.005 A 
ATOM     26  C   UNL     1      -3.538  -2.162  24.831  0.00  0.00    -0.050 A 
ATOM     27  C   UNL     1      -2.935  -3.525  24.769  0.00  0.00    +0.044 C 
ENDBRANCH   1  21
ENDBRANCH   7   1
ENDBRANCH  16   7
ENDBRANCH  10  16
TORSDOF 6
ENDMDL
MODEL 3
REMARK VINA RESULT:      -2.4      2.724      6.645
REMARK  Name = 28991035
REMARK  7 active torsions:
REMARK  status: ('A' for Active; 'I' for Inactive)
REMARK    1  A    between atoms: S_1  and  N_7
REMARK    2  A    between atoms: S_1  and  C_21
REMARK    3  A    between atoms: N_6  and  C_15
REMARK    4  A    between atoms: N_7  and  C_16
REMARK    5  A    between atoms: C_9  and  C_15
REMARK    6  A    between atoms: C_10  and  C_16
REMARK    7  A    between atoms: C_26  and  C_27
REMARK                            x       y       z     vdW  Elec       q    Type
REMARK                         _______ _______ _______ _____ _____    ______ ____
ROOT
ATOM      5  N   UNL     1      -2.497  -0.812  23.625  0.00  0.00    -0.298 NA
ATOM      8  C   UNL     1      -4.347  -0.436  25.415  0.00  0.00    -0.003 C 
ATOM      9  C   UNL     1      -4.117   0.845  24.581  0.00  0.00    +0.020 C 
ATOM     10  C   UNL     1      -1.997  -1.215  24.967  0.00  0.00    +0.072 C 
ATOM     11  C   UNL     1      -3.021  -0.862  26.069  0.00  0.00    +0.024 C 
ATOM     12  C   UNL     1      -2.916   0.610  23.637  0.00  0.00    +0.089 C 
ATOM     13  C   UNL     1      -4.747  -1.548  24.426  0.00  0.00    +0.019 C 
ATOM     14  C   UNL     1      -3.687  -1.642  23.314  0.00  0.00    +0.085 C 
ENDROOT
BRANCH   9  15
ATOM     15  C   UNL     1      -3.925   2.095  25.436  0.00  0.00    +0.089 C 
BRANCH  15   6
ATOM      2  O   UNL     1      -0.873   4.970  25.252  0.00  0.00    -0.377 OA
ATOM      6  N   UNL     1      -2.780   2.874  24.973  0.00  0.00    -0.298 NA
ATOM     17  C   UNL     1      -3.151   4.283  24.778  0.00  0.00    +0.112 C 
ATOM     18  C   UNL     1      -1.663   2.775  25.922  0.00  0.00    +0.112 C 
ATOM     19  C   UNL     1      -1.937   5.077  24.305  0.00  0.00    +0.175 C 
ATOM     20  C   UNL     1      -0.484   3.607  25.423  0.00  0.00    +0.175 C 
ENDBRANCH  15   6
ENDBRANCH   9  15
BRANCH  10  16
ATOM     16  C   UNL     1      -0.613  -0.638  25.272  0.00  0.00    +0.124 C 
BRANCH  16   7
ATOM      7  N   UNL     1       0.354  -1.063  24.274  0.00  0.00    -0.188 NA
ATOM     28  H   UNL     1       0.423  -2.073  24.100  0.00  0.00    +0.148 HD
BRANCH   7   1
ATOM      1  S   UNL     1       0.854   0.004  23.031  0.00  0.00    +0.058 S 
ATOM      3  O   UNL     1       0.440   1.352  23.371  0.00  0.00    -0.153 OA
ATOM      4  O   UNL     1       0.510  -0.559  21.739  0.00  0.00    -0.153 OA
BRANCH   1  21
ATOM     21  C   UNL     1       2.613  -0.080  23.179  0.00  0.00    +0.105 A 
ATOM     22  C   UNL     1       3.218  -1.245  23.650  0.00  0.00    +0.029 A 
ATOM     23  C   UNL     1       3.395   1.020  22.829  0.00  0.00    +0.029 A 
ATOM     24  C   UNL     1       4.606  -1.310  23.769  0.00  0.00    +0.005 A 
ATOM     25  C   UNL     1       4.783   0.955  22.949  0.00  0.00    +0.005 A 
ATOM     26  C   UNL     1       5.389  -0.211  23.419  0.00  0.00    -0.050 A 
ATOM     27  C   UNL     1       6.873  -0.281  23.547  0.00  0.00    +0.044 C 
ENDBRANCH   1  21
ENDBRANCH   7   1
ENDBRANCH  16   7
ENDBRANCH  10  16
TORSDOF 6
ENDMDL
MODEL 4
REMARK VINA RESULT:      -2.3      2.196      6.765
REMARK  Name = 28991035
REMARK  7 active torsions:
REMARK  status: ('A' for Active; 'I' for Inactive)
REMARK    1  A    between atoms: S_1  and  N_7
REMARK    2  A    between atoms: S_1  and  C_21
REMARK    3  A    between atoms: N_6  and  C_15
REMARK    4  A    between atoms: N_7  and  C_16
REMARK    5  A    between atoms: C_9  and  C_15
REMARK    6  A    between atoms: C_10  and  C_16
REMARK    7  A    between atoms: C_26  and  C_27
REMARK                            x       y       z     vdW  Elec       q    Type
REMARK                         _______ _______ _______ _____ _____    ______ ____
ROOT
ATOM      5  N   UNL     1      -2.561  -2.582  24.274  0.00  0.00    -0.298 NA
ATOM      8  C   UNL     1      -3.178  -0.625  25.873  0.00  0.00    -0.003 C 
ATOM      9  C   UNL     1      -3.810  -0.418  24.478  0.00  0.00    +0.020 C 
ATOM     10  C   UNL     1      -1.329  -2.019  24.889  0.00  0.00    +0.072 C 
ATOM     11  C   UNL     1      -1.652  -0.761  25.726  0.00  0.00    +0.024 C 
ATOM     12  C   UNL     1      -3.295  -1.527  23.533  0.00  0.00    +0.089 C 
ATOM     13  C   UNL     1      -3.706  -1.970  26.408  0.00  0.00    +0.019 C 
ATOM     14  C   UNL     1      -3.434  -3.072  25.369  0.00  0.00    +0.085 C 
ENDROOT
BRANCH   9  15
ATOM     15  C   UNL     1      -3.558   0.973  23.903  0.00  0.00    +0.089 C 
BRANCH  15   6
ATOM      2  O   UNL     1      -6.116   3.851  25.574  0.00  0.00    -0.377 OA
ATOM      6  N   UNL     1      -4.095   2.008  24.783  0.00  0.00    -0.298 NA
ATOM     17  C   UNL     1      -4.333   3.254  24.040  0.00  0.00    +0.112 C 
ATOM     18  C   UNL     1      -5.338   1.557  25.421  0.00  0.00    +0.112 C 
ATOM     19  C   UNL     1      -4.903   4.314  24.977  0.00  0.00    +0.175 C 
ATOM     20  C   UNL     1      -5.887   2.658  26.325  0.00  0.00    +0.175 C 
ENDBRANCH  15   6
ENDBRANCH   9  15
BRANCH  10  16
ATOM     16  C   UNL     1      -0.232  -1.748  23.856  0.00  0.00    +0.124 C 
BRANCH  16   7
ATOM      7  N   UNL     1       0.713  -0.763  24.353  0.00  0.00    -0.188 NA
ATOM     28  H   UNL     1       1.349  -1.070  25.099  0.00  0.00    +0.148 HD
BRANCH   7   1
ATOM      1  S   UNL     1       1.198   0.556  23.373  0.00  0.00    +0.058 S 
ATOM      3  O   UNL     1       0.696   0.352  22.027  0.00  0.00    -0.153 OA
ATOM      4  O   UNL     1       2.605   0.833  23.593  0.00  0.00    -0.153 OA
BRANCH   1  21
ATOM     21  C   UNL     1       0.290   1.888  24.098  0.00  0.00    +0.105 A 
ATOM     22  C   UNL     1       0.116   1.941  25.481  0.00  0.00    +0.029 A 
ATOM     23  C   UNL     1      -0.256   2.882  23.288  0.00  0.00    +0.029 A 
ATOM     24  C   UNL     1      -0.603   2.990  26.053  0.00  0.00    +0.005 A 
ATOM     25  C   UNL     1      -0.975   3.931  23.859  0.00  0.00    +0.005 A 
ATOM     26  C   UNL     1      -1.149   3.986  25.242  0.00  0.00    -0.050 A 
ATOM     27  C   UNL     1      -1.917   5.108  25.854  0.00  0.00    +0.044 C 
ENDBRANCH   1  21
ENDBRANCH   7   1
ENDBRANCH  16   7
ENDBRANCH  10  16
TORSDOF 6
ENDMDL
MODEL 5
REMARK VINA RESULT:      -2.2      2.586      6.156
REMARK  Name = 28991035
REMARK  7 active torsions:
REMARK  status: ('A' for Active; 'I' for Inactive)
REMARK    1  A    between atoms: S_1  and  N_7
REMARK    2  A    between atoms: S_1  and  C_21
REMARK    3  A    between atoms: N_6  and  C_15
REMARK    4  A    between atoms: N_7  and  C_16
REMARK    5  A    between atoms: C_9  and  C_15
REMARK    6  A    between atoms: C_10  and  C_16
REMARK    7  A    between atoms: C_26  and  C_27
REMARK                            x       y       z     vdW  Elec       q    Type
REMARK                         _______ _______ _______ _____ _____    ______ ____
ROOT
ATOM      5  N   UNL     1      -2.166   3.339  25.282  0.00  0.00    -0.298 NA
ATOM      8  C   UNL     1      -4.021   2.781  23.545  0.00  0.00    -0.003 C 
ATOM      9  C   UNL     1      -4.466   2.390  24.973  0.00  0.00    +0.020 C 
ATOM     10  C   UNL     1      -1.598   2.527  24.172  0.00  0.00    +0.072 C 
ATOM     11  C   UNL     1      -2.707   2.056  23.205  0.00  0.00    +0.024 C 
ATOM     12  C   UNL     1      -3.278   2.607  25.937  0.00  0.00    +0.089 C 
ATOM     13  C   UNL     1      -3.716   4.291  23.570  0.00  0.00    +0.019 C 
ATOM     14  C   UNL     1      -2.713   4.588  24.699  0.00  0.00    +0.085 C 
ENDROOT
BRANCH   9  15
ATOM     15  C   UNL     1      -5.013   0.967  25.065  0.00  0.00    +0.089 C 
BRANCH  15   6
ATOM      2  O   UNL     1      -2.887  -2.651  25.079  0.00  0.00    -0.377 OA
ATOM      6  N   UNL     1      -3.946  -0.015  24.893  0.00  0.00    -0.298 NA
ATOM     17  C   UNL     1      -3.563  -0.600  26.186  0.00  0.00    +0.112 C 
ATOM     18  C   UNL     1      -4.356  -1.075  23.963  0.00  0.00    +0.112 C 
ATOM     19  C   UNL     1      -2.456  -1.630  25.980  0.00  0.00    +0.175 C 
ATOM     20  C   UNL     1      -3.231  -2.095  23.810  0.00  0.00    +0.175 C 
ENDBRANCH  15   6
ENDBRANCH   9  15
BRANCH  10  16
ATOM     16  C   UNL     1      -0.751   1.357  24.678  0.00  0.00    +0.124 C 
BRANCH  16   7
ATOM      7  N   UNL     1       0.465   1.222  23.893  0.00  0.00    -0.188 NA
ATOM     28  H   UNL     1       1.229   1.873  24.113  0.00  0.00    +0.148 HD
BRANCH   7   1
ATOM      1  S   UNL     1       0.865  -0.268  23.150  0.00  0.00    +0.058 S 
ATOM      3  O   UNL     1       0.489  -0.212  21.749  0.00  0.00    -0.153 OA
ATOM      4  O   UNL     1       0.410  -1.365  23.983  0.00  0.00    -0.153 OA
BRANCH   1  21
ATOM     21  C   UNL     1       2.630  -0.246  23.242  0.00  0.00    +0.105 A 
ATOM     22  C   UNL     1       3.315  -1.358  23.732  0.00  0.00    +0.029 A 
ATOM     23  C   UNL     1       3.336   0.883  22.830  0.00  0.00    +0.029 A 
ATOM     24  C   UNL     1       4.707  -1.340  23.808  0.00  0.00    +0.005 A 
ATOM     25  C   UNL     1       4.728   0.901  22.906  0.00  0.00    +0.005 A 
ATOM     26  C   UNL     1       5.414  -0.211  23.395  0.00  0.00    -0.050 A 
ATOM     27  C   UNL     1       6.904  -0.192  23.476  0.00  0.00    +0.044 C 
ENDBRANCH   1  21
ENDBRANCH   7   1
ENDBRANCH  16   7
ENDBRANCH  10  16
TORSDOF 6
ENDMDL
MODEL 6
REMARK VINA RESULT:      -2.1      1.435      4.643
REMARK  Name = 28991035
REMARK  7 active torsions:
REMARK  status: ('A' for Active; 'I' for Inactive)
REMARK    1  A    between atoms: S_1  and  N_7
REMARK    2  A    between atoms: S_1  and  C_21
REMARK    3  A    between atoms: N_6  and  C_15
REMARK    4  A    between atoms: N_7  and  C_16
REMARK    5  A    between atoms: C_9  and  C_15
REMARK    6  A    between atoms: C_10  and  C_16
REMARK    7  A    between atoms: C_26  and  C_27
REMARK                            x       y       z     vdW  Elec       q    Type
REMARK                         _______ _______ _______ _____ _____    ______ ____
ROOT
ATOM      5  N   UNL     1      -3.383  -0.443  25.905  0.00  0.00    -0.298 NA
ATOM      8  C   UNL     1      -2.826  -2.358  24.235  0.00  0.00    -0.003 C 
ATOM      9  C   UNL     1      -1.575  -1.497  24.524  0.00  0.00    +0.020 C 
ATOM     10  C   UNL     1      -4.346  -0.427  24.772  0.00  0.00    +0.072 C 
ATOM     11  C   UNL     1      -3.950  -1.457  23.691  0.00  0.00    +0.024 C 
ATOM     12  C   UNL     1      -1.995  -0.297  25.402  0.00  0.00    +0.089 C 
ATOM     13  C   UNL     1      -3.305  -2.919  25.587  0.00  0.00    +0.019 C 
ATOM     14  C   UNL     1      -3.494  -1.759  26.580  0.00  0.00    +0.085 C 
ENDROOT
BRANCH   9  15
ATOM     15  C   UNL     1      -0.850  -1.043  23.260  0.00  0.00    +0.089 C 
BRANCH  15   6
ATOM      2  O   UNL     1       2.342   1.677  23.098  0.00  0.00    -0.377 OA
ATOM      6  N   UNL     1       0.377  -0.324  23.591  0.00  0.00    -0.298 NA
ATOM     17  C   UNL     1       1.375  -0.473  22.522  0.00  0.00    +0.112 C 
ATOM     18  C   UNL     1       0.100   1.100  23.826  0.00  0.00    +0.112 C 
ATOM     19  C   UNL     1       2.642   0.296  22.886  0.00  0.00    +0.175 C 
ATOM     20  C   UNL     1       1.398   1.833  24.158  0.00  0.00    +0.175 C 
ENDBRANCH  15   6
ENDBRANCH   9  15
BRANCH  10  16
ATOM     16  C   UNL     1      -4.531   0.973  24.182  0.00  0.00    +0.124 C 
BRANCH  16   7
ATOM      7  N   UNL     1      -5.742   1.593  24.693  0.00  0.00    -0.188 NA
ATOM     28  H   UNL     1      -6.588   1.009  24.706  0.00  0.00    +0.148 HD
BRANCH   7   1
ATOM      1  S   UNL     1      -5.657   2.912  25.782  0.00  0.00    +0.058 S 
ATOM      3  O   UNL     1      -5.690   2.404  27.141  0.00  0.00    -0.153 OA
ATOM      4  O   UNL     1      -6.587   3.946  25.368  0.00  0.00    -0.153 OA
BRANCH   1  21
ATOM     21  C   UNL     1      -4.030   3.525  25.469  0.00  0.00    +0.105 A 
ATOM     22  C   UNL     1      -3.017   3.326  26.407  0.00  0.00    +0.029 A 
ATOM     23  C   UNL     1      -3.759   4.211  24.286  0.00  0.00    +0.029 A 
ATOM     24  C   UNL     1      -1.734   3.812  26.162  0.00  0.00    +0.005 A 
ATOM     25  C   UNL     1      -2.475   4.697  24.040  0.00  0.00    +0.005 A 
ATOM     26  C   UNL     1      -1.462   4.498  24.978  0.00  0.00    -0.050 A 
ATOM     27  C   UNL     1      -0.089   5.017  24.715  0.00  0.00    +0.044 C 
ENDBRANCH   1  21
ENDBRANCH   7   1
ENDBRANCH  16   7
ENDBRANCH  10  16
TORSDOF 6
ENDMDL
MODEL 7
REMARK VINA RESULT:      -1.8      1.686      4.324
REMARK  Name = 28991035
REMARK  7 active torsions:
REMARK  status: ('A' for Active; 'I' for Inactive)
REMARK    1  A    between atoms: S_1  and  N_7
REMARK    2  A    between atoms: S_1  and  C_21
REMARK    3  A    between atoms: N_6  and  C_15
REMARK    4  A    between atoms: N_7  and  C_16
REMARK    5  A    between atoms: C_9  and  C_15
REMARK    6  A    between atoms: C_10  and  C_16
REMARK    7  A    between atoms: C_26  and  C_27
REMARK                            x       y       z     vdW  Elec       q    Type
REMARK                         _______ _______ _______ _____ _____    ______ ____
ROOT
ATOM      5  N   UNL     1      -1.777   0.154  25.629  0.00  0.00    -0.298 NA
ATOM      8  C   UNL     1      -0.374  -1.731  24.512  0.00  0.00    -0.003 C 
ATOM      9  C   UNL     1       0.271  -0.348  24.273  0.00  0.00    +0.020 C 
ATOM     10  C   UNL     1      -2.649  -0.687  24.766  0.00  0.00    +0.072 C 
ATOM     11  C   UNL     1      -1.816  -1.720  23.975  0.00  0.00    +0.024 C 
ATOM     12  C   UNL     1      -0.674   0.741  24.830  0.00  0.00    +0.089 C 
ATOM     13  C   UNL     1      -0.457  -1.928  26.038  0.00  0.00    +0.019 C 
ATOM     14  C   UNL     1      -1.180  -0.723  26.666  0.00  0.00    +0.085 C 
ENDROOT
BRANCH   9  15
ATOM     15  C   UNL     1       0.624  -0.092  22.809  0.00  0.00    +0.089 C 
BRANCH  15   6
ATOM      2  O   UNL     1       4.745   0.240  23.531  0.00  0.00    -0.377 OA
ATOM      6  N   UNL     1       2.071  -0.097  22.613  0.00  0.00    -0.298 NA
ATOM     17  C   UNL     1       2.636   1.237  22.863  0.00  0.00    +0.112 C 
ATOM     18  C   UNL     1       2.714  -1.087  23.486  0.00  0.00    +0.112 C 
ATOM     19  C   UNL     1       4.149   1.204  22.663  0.00  0.00    +0.175 C 
ATOM     20  C   UNL     1       4.225  -1.064  23.273  0.00  0.00    +0.175 C 
ENDBRANCH  15   6
ENDBRANCH   9  15
BRANCH  10  16
ATOM     16  C   UNL     1      -3.540   0.149  23.845  0.00  0.00    +0.124 C 
BRANCH  16   7
ATOM      7  N   UNL     1      -4.917   0.137  24.308  0.00  0.00    -0.188 NA
ATOM     28  H   UNL     1      -5.333  -0.785  24.491  0.00  0.00    +0.148 HD
BRANCH   7   1
ATOM      1  S   UNL     1      -5.581   1.494  25.115  0.00  0.00    +0.058 S 
ATOM      3  O   UNL     1      -5.814   1.149  26.505  0.00  0.00    -0.153 OA
ATOM      4  O   UNL     1      -6.651   2.061  24.316  0.00  0.00    -0.153 OA
BRANCH   1  21
ATOM     21  C   UNL     1      -4.232   2.635  25.055  0.00  0.00    +0.105 A 
ATOM     22  C   UNL     1      -3.631   2.940  23.834  0.00  0.00    +0.029 A 
ATOM     23  C   UNL     1      -3.767   3.226  26.229  0.00  0.00    +0.029 A 
ATOM     24  C   UNL     1      -2.565   3.837  23.787  0.00  0.00    +0.005 A 
ATOM     25  C   UNL     1      -2.701   4.124  26.182  0.00  0.00    +0.005 A 
ATOM     26  C   UNL     1      -2.100   4.430  24.960  0.00  0.00    -0.050 A 
ATOM     27  C   UNL     1      -0.960   5.391  24.910  0.00  0.00    +0.044 C 
ENDBRANCH   1  21
ENDBRANCH   7   1
ENDBRANCH  16   7
ENDBRANCH  10  16
TORSDOF 6
ENDMDL
MODEL 8
REMARK VINA RESULT:      -1.0      2.559      7.322
REMARK  Name = 28991035
REMARK  7 active torsions:
REMARK  status: ('A' for Active; 'I' for Inactive)
REMARK    1  A    between atoms: S_1  and  N_7
REMARK    2  A    between atoms: S_1  and  C_21
REMARK    3  A    between atoms: N_6  and  C_15
REMARK    4  A    between atoms: N_7  and  C_16
REMARK    5  A    between atoms: C_9  and  C_15
REMARK    6  A    between atoms: C_10  and  C_16
REMARK    7  A    between atoms: C_26  and  C_27
REMARK                            x       y       z     vdW  Elec       q    Type
REMARK                         _______ _______ _______ _____ _____    ______ ____
ROOT
ATOM      5  N   UNL     1      -2.675  -2.467  24.101  0.00  0.00    -0.298 NA
ATOM      8  C   UNL     1      -3.028  -0.687  25.966  0.00  0.00    -0.003 C 
ATOM      9  C   UNL     1      -3.539  -0.167  24.603  0.00  0.00    +0.020 C 
ATOM     10  C   UNL     1      -1.399  -2.231  24.828  0.00  0.00    +0.072 C 
ATOM     11  C   UNL     1      -1.543  -1.072  25.840  0.00  0.00    +0.024 C 
ATOM     12  C   UNL     1      -3.174  -1.200  23.513  0.00  0.00    +0.089 C 
ATOM     13  C   UNL     1      -3.810  -1.979  26.273  0.00  0.00    +0.019 C 
ATOM     14  C   UNL     1      -3.677  -2.947  25.083  0.00  0.00    +0.085 C 
ENDROOT
BRANCH   9  15
ATOM     15  C   UNL     1      -3.018   1.225  24.255  0.00  0.00    +0.089 C 
BRANCH  15   6
ATOM      2  O   UNL     1      -5.719   4.236  25.376  0.00  0.00    -0.377 OA
ATOM      6  N   UNL     1      -3.708   2.250  25.035  0.00  0.00    -0.298 NA
ATOM     17  C   UNL     1      -3.615   3.559  24.374  0.00  0.00    +0.112 C 
ATOM     18  C   UNL     1      -5.116   1.889  25.242  0.00  0.00    +0.112 C 
ATOM     19  C   UNL     1      -4.351   4.610  25.201  0.00  0.00    +0.175 C 
ATOM     20  C   UNL     1      -5.819   2.980  26.047  0.00  0.00    +0.175 C 
ENDBRANCH  15   6
ENDBRANCH   9  15
BRANCH  10  16
ATOM     16  C   UNL     1      -0.217  -2.013  23.880  0.00  0.00    +0.124 C 
BRANCH  16   7
ATOM      7  N   UNL     1       0.523  -0.817  24.244  0.00  0.00    -0.188 NA
ATOM     28  H   UNL     1       1.020  -0.839  25.143  0.00  0.00    +0.148 HD
BRANCH   7   1
ATOM      1  S   UNL     1       1.084   0.264  23.040  0.00  0.00    +0.058 S 
ATOM      3  O   UNL     1       0.748   1.621  23.431  0.00  0.00    -0.153 OA
ATOM      4  O   UNL     1       0.709  -0.230  21.728  0.00  0.00    -0.153 OA
BRANCH   1  21
ATOM     21  C   UNL     1       2.835   0.074  23.183  0.00  0.00    +0.105 A 
ATOM     22  C   UNL     1       3.681   1.130  22.843  0.00  0.00    +0.029 A 
ATOM     23  C   UNL     1       3.371  -1.133  23.631  0.00  0.00    +0.029 A 
ATOM     24  C   UNL     1       5.063   0.979  22.953  0.00  0.00    +0.005 A 
ATOM     25  C   UNL     1       4.753  -1.284  23.740  0.00  0.00    +0.005 A 
ATOM     26  C   UNL     1       5.599  -0.228  23.401  0.00  0.00    -0.050 A 
ATOM     27  C   UNL     1       7.078  -0.389  23.519  0.00  0.00    +0.044 C 
ENDBRANCH   1  21
ENDBRANCH   7   1
ENDBRANCH  16   7
ENDBRANCH  10  16
TORSDOF 6
ENDMDL
MODEL 9
REMARK VINA RESULT:       0.3      2.379      5.316
REMARK  Name = 28991035
REMARK  7 active torsions:
REMARK  status: ('A' for Active; 'I' for Inactive)
REMARK    1  A    between atoms: S_1  and  N_7
REMARK    2  A    between atoms: S_1  and  C_21
REMARK    3  A    between atoms: N_6  and  C_15
REMARK    4  A    between atoms: N_7  and  C_16
REMARK    5  A    between atoms: C_9  and  C_15
REMARK    6  A    between atoms: C_10  and  C_16
REMARK    7  A    between atoms: C_26  and  C_27
REMARK                            x       y       z     vdW  Elec       q    Type
REMARK                         _______ _______ _______ _____ _____    ______ ____
ROOT
ATOM      5  N   UNL     1      -0.521   1.771  25.580  0.00  0.00    -0.298 NA
ATOM      8  C   UNL     1      -0.950   3.896  24.142  0.00  0.00    -0.003 C 
ATOM      9  C   UNL     1      -2.276   3.329  24.697  0.00  0.00    +0.020 C 
ATOM     10  C   UNL     1       0.129   1.626  24.250  0.00  0.00    +0.072 C 
ATOM     11  C   UNL     1      -0.234   2.807  23.323  0.00  0.00    +0.024 C 
ATOM     12  C   UNL     1      -1.979   1.995  25.418  0.00  0.00    +0.089 C 
ATOM     13  C   UNL     1      -0.056   4.216  25.356  0.00  0.00    +0.019 C 
ATOM     14  C   UNL     1       0.059   2.964  26.244  0.00  0.00    +0.085 C 
ENDROOT
BRANCH   9  15
ATOM     15  C   UNL     1      -3.355   3.165  23.630  0.00  0.00    +0.089 C 
BRANCH  15   6
ATOM      2  O   UNL     1      -6.444   2.508  26.394  0.00  0.00    -0.377 OA
ATOM      6  N   UNL     1      -4.683   3.095  24.236  0.00  0.00    -0.298 NA
ATOM     17  C   UNL     1      -5.017   1.711  24.601  0.00  0.00    +0.112 C 
ATOM     18  C   UNL     1      -4.762   3.960  25.420  0.00  0.00    +0.112 C 
ATOM     19  C   UNL     1      -6.401   1.665  25.242  0.00  0.00    +0.175 C 
ATOM     20  C   UNL     1      -6.152   3.860  26.043  0.00  0.00    +0.175 C 
ENDBRANCH  15   6
ENDBRANCH   9  15
BRANCH  10  16
ATOM     16  C   UNL     1      -0.173   0.276  23.596  0.00  0.00    +0.124 C 
BRANCH  16   7
ATOM      7  N   UNL     1       0.519  -0.799  24.286  0.00  0.00    -0.188 NA
ATOM     28  H   UNL     1       1.546  -0.780  24.255  0.00  0.00    +0.148 HD
BRANCH   7   1
ATOM      1  S   UNL     1      -0.232  -1.633  25.580  0.00  0.00    +0.058 S 
ATOM      3  O   UNL     1      -0.441  -0.709  26.679  0.00  0.00    -0.153 OA
ATOM      4  O   UNL     1       0.450  -2.893  25.808  0.00  0.00    -0.153 OA
BRANCH   1  21
ATOM     21  C   UNL     1      -1.810  -2.018  24.884  0.00  0.00    +0.105 A 
ATOM     22  C   UNL     1      -2.913  -1.213  25.168  0.00  0.00    +0.029 A 
ATOM     23  C   UNL     1      -1.953  -3.130  24.054  0.00  0.00    +0.029 A 
ATOM     24  C   UNL     1      -4.158  -1.518  24.621  0.00  0.00    +0.005 A 
ATOM     25  C   UNL     1      -3.199  -3.435  23.507  0.00  0.00    +0.005 A 
ATOM     26  C   UNL     1      -4.302  -2.630  23.790  0.00  0.00    -0.050 A 
ATOM     27  C   UNL     1      -5.634  -2.956  23.205  0.00  0.00    +0.044 C 
ENDBRANCH   1  21
ENDBRANCH   7   1
ENDBRANCH  16   7
ENDBRANCH  10  16
TORSDOF 6
ENDMDL
MODEL 10
REMARK VINA RESULT:       0.5      2.487      6.179
REMARK  Name = 28991035
REMARK  7 active torsions:
REMARK  status: ('A' for Active; 'I' for Inactive)
REMARK    1  A    between atoms: S_1  and  N_7
REMARK    2  A    between atoms: S_1  and  C_21
REMARK    3  A    between atoms: N_6  and  C_15
REMARK    4  A    between atoms: N_7  and  C_16
REMARK    5  A    between atoms: C_9  and  C_15
REMARK    6  A    between atoms: C_10  and  C_16
REMARK    7  A    between atoms: C_26  and  C_27
REMARK                            x       y       z     vdW  Elec       q    Type
REMARK                         _______ _______ _______ _____ _____    ______ ____
ROOT
ATOM      5  N   UNL     1      -1.733  -1.222  24.360  0.00  0.00    -0.298 NA
ATOM      8  C   UNL     1      -4.071  -1.944  25.244  0.00  0.00    -0.003 C 
ATOM      9  C   UNL     1      -4.202  -0.821  24.189  0.00  0.00    +0.020 C 
ATOM     10  C   UNL     1      -1.750  -1.182  25.847  0.00  0.00    +0.072 C 
ATOM     11  C   UNL     1      -3.168  -1.460  26.393  0.00  0.00    +0.024 C 
ATOM     12  C   UNL     1      -2.785  -0.334  23.809  0.00  0.00    +0.089 C 
ATOM     13  C   UNL     1      -3.347  -3.119  24.558  0.00  0.00    +0.019 C 
ATOM     14  C   UNL     1      -2.032  -2.612  23.938  0.00  0.00    +0.085 C 
ENDROOT
BRANCH   9  15
ATOM     15  C   UNL     1      -5.090   0.334  24.646  0.00  0.00    +0.089 C 
BRANCH  15   6
ATOM      2  O   UNL     1      -4.099   4.411  24.597  0.00  0.00    -0.377 OA
ATOM      6  N   UNL     1      -4.328   1.577  24.731  0.00  0.00    -0.298 NA
ATOM     17  C   UNL     1      -4.349   2.290  23.446  0.00  0.00    +0.112 C 
ATOM     18  C   UNL     1      -4.856   2.441  25.794  0.00  0.00    +0.112 C 
ATOM     19  C   UNL     1      -3.557   3.589  23.562  0.00  0.00    +0.175 C 
ATOM     20  C   UNL     1      -4.053   3.738  25.855  0.00  0.00    +0.175 C 
ENDBRANCH  15   6
ENDBRANCH   9  15
BRANCH  10  16
ATOM     16  C   UNL     1      -1.174   0.123  26.403  0.00  0.00    +0.124 C 
BRANCH  16   7
ATOM      7  N   UNL     1      -1.419   1.226  25.490  0.00  0.00    -0.188 NA
ATOM     28  H   UNL     1      -2.401   1.477  25.324  0.00  0.00    +0.148 HD
BRANCH   7   1
ATOM      1  S   UNL     1      -0.226   2.428  25.230  0.00  0.00    +0.058 S 
ATOM      3  O   UNL     1       0.492   2.655  26.470  0.00  0.00    -0.153 OA
ATOM      4  O   UNL     1      -0.809   3.545  24.510  0.00  0.00    -0.153 OA
BRANCH   1  21
ATOM     21  C   UNL     1       0.866   1.605  24.110  0.00  0.00    +0.105 A 
ATOM     22  C   UNL     1       2.160   2.090  23.916  0.00  0.00    +0.029 A 
ATOM     23  C   UNL     1       0.434   0.475  23.418  0.00  0.00    +0.029 A 
ATOM     24  C   UNL     1       3.021   1.443  23.030  0.00  0.00    +0.005 A 
ATOM     25  C   UNL     1       1.295  -0.172  22.532  0.00  0.00    +0.005 A 
ATOM     26  C   UNL     1       2.589   0.312  22.338  0.00  0.00    -0.050 A 
ATOM     27  C   UNL     1       3.510  -0.380  21.391  0.00  0.00    +0.044 C 
ENDBRANCH   1  21
ENDBRANCH   7   1
ENDBRANCH  16   7
ENDBRANCH  10  16
TORSDOF 6
ENDMDL
