MODEL 1
REMARK VINA RESULT:      -1.7      0.000      0.000
REMARK  Name = 44716885
REMARK  14 active torsions:
REMARK  status: ('A' for Active; 'I' for Inactive)
REMARK    1  A    between atoms: O_1  and  C_15
REMARK    2  A    between atoms: O_1  and  C_24
REMARK    3  A    between atoms: O_2  and  C_16
REMARK    4  A    between atoms: O_3  and  C_20
REMARK    5  A    between atoms: N_7  and  C_25
REMARK    6  A    between atoms: N_8  and  C_26
REMARK    7  A    between atoms: C_9  and  C_19
REMARK    8  A    between atoms: C_11  and  C_20
REMARK    9  A    between atoms: C_11  and  C_21
REMARK   10  A    between atoms: C_12  and  C_22
REMARK   11  A    between atoms: C_22  and  C_23
REMARK   12  A    between atoms: C_25  and  C_27
REMARK   13  A    between atoms: C_26  and  C_28
REMARK   14  A    between atoms: C_26  and  C_29
REMARK                            x       y       z     vdW  Elec       q    Type
REMARK                         _______ _______ _______ _____ _____    ______ ____
ROOT
ATOM      9  C   UNL     1      -2.915   2.287  24.525  0.00  0.00    -0.023 C 
ATOM     10  C   UNL     1      -1.907   3.065  25.458  0.00  0.00    +0.007 C 
ATOM     11  C   UNL     1      -0.445   3.270  24.904  0.00  0.00    +0.031 C 
ATOM     12  C   UNL     1      -4.181   1.931  25.409  0.00  0.00    +0.032 C 
ATOM     13  C   UNL     1      -2.235   0.973  24.056  0.00  0.00    +0.011 C 
ATOM     14  C   UNL     1      -2.562   4.339  26.035  0.00  0.00    +0.007 C 
ATOM     15  C   UNL     1       0.096   1.901  24.391  0.00  0.00    +0.186 C 
ATOM     16  C   UNL     1      -4.826   3.163  26.085  0.00  0.00    +0.119 C 
ATOM     17  C   UNL     1      -0.854   1.179  23.443  0.00  0.00    +0.046 C 
ATOM     18  C   UNL     1      -3.808   4.000  26.855  0.00  0.00    +0.032 C 
ATOM     19  C   UNL     1      -3.336   3.084  23.267  0.00  0.00    +0.012 C 
ATOM     21  C   UNL     1       0.480   3.730  26.068  0.00  0.00    +0.017 C 
ENDROOT
BRANCH  16   2
ATOM      2  O   UNL     1      -5.493   3.979  25.126  0.00  0.00    -0.391 OA
ATOM     33  H   UNL     1      -6.315   4.303  25.533  0.00  0.00    +0.210 HD
ENDBRANCH  16   2
BRANCH  15   1
ATOM      1  O   UNL     1       1.341   2.046  23.708  0.00  0.00    -0.446 OA
BRANCH   1  24
ATOM      5  O   UNL     1       1.288  -0.039  22.744  0.00  0.00    -0.226 OA
ATOM      8  N   UNL     1       3.276   0.931  23.443  0.00  0.00    -0.279 N 
ATOM     24  C   UNL     1       1.912   0.889  23.249  0.00  0.00    +0.401 C 
ATOM     36  H   UNL     1       3.672   1.783  23.831  0.00  0.00    +0.152 HD
BRANCH   8  26
ATOM     26  C   UNL     1       4.174  -0.137  23.067  0.00  0.00    +0.070 C 
ATOM     28  C   UNL     1       3.809  -1.419  23.804  0.00  0.00    +0.027 C 
ATOM     29  C   UNL     1       5.620   0.262  23.333  0.00  0.00    +0.027 C 
ENDBRANCH   8  26
ENDBRANCH   1  24
ENDBRANCH  15   1
BRANCH  11  20
ATOM     20  C   UNL     1      -0.329   4.363  23.822  0.00  0.00    +0.166 C 
BRANCH  20   3
ATOM      3  O   UNL     1      -0.434   5.617  24.459  0.00  0.00    -0.394 OA
ATOM     34  H   UNL     1      -1.021   6.170  23.915  0.00  0.00    +0.209 HD
ENDBRANCH  20   3
ENDBRANCH  11  20
BRANCH  12  22
ATOM     22  C   UNL     1      -5.261   1.107  24.688  0.00  0.00    +0.102 C 
BRANCH  22  23
ATOM      4  O   UNL     1      -5.129  -1.025  23.552  0.00  0.00    -0.276 OA
ATOM      7  N   UNL     1      -4.153  -0.778  25.647  0.00  0.00    -0.308 N 
ATOM     23  C   UNL     1      -4.857  -0.341  24.535  0.00  0.00    +0.214 C 
ATOM     35  H   UNL     1      -3.965  -0.126  26.404  0.00  0.00    +0.149 HD
BRANCH   7  25
ATOM     25  C   UNL     1      -3.642  -2.123  25.779  0.00  0.00    +0.178 C 
BRANCH  25  27
ATOM      6  O   UNL     1      -1.276  -1.597  25.957  0.00  0.00    -0.466 OA
ATOM     27  C   UNL     1      -2.242  -2.247  25.255  0.00  0.00    +0.122 A 
ATOM     30  C   UNL     1      -1.695  -2.901  24.176  0.00  0.00    +0.046 A 
ATOM     31  C   UNL     1      -0.305  -2.636  24.217  0.00  0.00    +0.041 A 
ATOM     32  C   UNL     1      -0.101  -1.839  25.319  0.00  0.00    +0.195 A 
ENDBRANCH  25  27
ENDBRANCH   7  25
ENDBRANCH  22  23
ENDBRANCH  12  22
TORSDOF 10
ENDMDL
MODEL 2
REMARK VINA RESULT:       0.8      1.019      1.168
REMARK  Name = 44716885
REMARK  14 active torsions:
REMARK  status: ('A' for Active; 'I' for Inactive)
REMARK    1  A    between atoms: O_1  and  C_15
REMARK    2  A    between atoms: O_1  and  C_24
REMARK    3  A    between atoms: O_2  and  C_16
REMARK    4  A    between atoms: O_3  and  C_20
REMARK    5  A    between atoms: N_7  and  C_25
REMARK    6  A    between atoms: N_8  and  C_26
REMARK    7  A    between atoms: C_9  and  C_19
REMARK    8  A    between atoms: C_11  and  C_20
REMARK    9  A    between atoms: C_11  and  C_21
REMARK   10  A    between atoms: C_12  and  C_22
REMARK   11  A    between atoms: C_22  and  C_23
REMARK   12  A    between atoms: C_25  and  C_27
REMARK   13  A    between atoms: C_26  and  C_28
REMARK   14  A    between atoms: C_26  and  C_29
REMARK                            x       y       z     vdW  Elec       q    Type
REMARK                         _______ _______ _______ _____ _____    ______ ____
ROOT
ATOM      9  C   UNL     1      -3.126   2.957  24.557  0.00  0.00    -0.023 C 
ATOM     10  C   UNL     1      -2.033   3.241  25.659  0.00  0.00    +0.007 C 
ATOM     11  C   UNL     1      -0.538   3.329  25.167  0.00  0.00    +0.031 C 
ATOM     12  C   UNL     1      -4.469   2.597  25.319  0.00  0.00    +0.032 C 
ATOM     13  C   UNL     1      -2.672   1.731  23.719  0.00  0.00    +0.011 C 
ATOM     14  C   UNL     1      -2.474   4.394  26.589  0.00  0.00    +0.007 C 
ATOM     15  C   UNL     1      -0.228   2.090  24.274  0.00  0.00    +0.186 C 
ATOM     16  C   UNL     1      -4.911   3.680  26.331  0.00  0.00    +0.119 C 
ATOM     17  C   UNL     1      -1.254   1.852  23.172  0.00  0.00    +0.046 C 
ATOM     18  C   UNL     1      -3.791   4.065  27.294  0.00  0.00    +0.032 C 
ATOM     19  C   UNL     1      -3.352   4.143  23.588  0.00  0.00    +0.012 C 
ATOM     21  C   UNL     1       0.409   3.263  26.401  0.00  0.00    +0.017 C 
ENDROOT
BRANCH  16   2
ATOM      2  O   UNL     1      -5.386   4.842  25.658  0.00  0.00    -0.391 OA
ATOM     33  H   UNL     1      -5.222   5.607  26.235  0.00  0.00    +0.210 HD
ENDBRANCH  16   2
BRANCH  15   1
ATOM      1  O   UNL     1       1.048   2.196  23.644  0.00  0.00    -0.446 OA
BRANCH   1  24
ATOM      5  O   UNL     1       1.077  -0.048  23.153  0.00  0.00    -0.226 OA
ATOM      8  N   UNL     1       3.028   1.203  23.253  0.00  0.00    -0.279 N 
ATOM     24  C   UNL     1       1.664   1.014  23.332  0.00  0.00    +0.401 C 
ATOM     36  H   UNL     1       3.382   2.148  23.378  0.00  0.00    +0.152 HD
BRANCH   8  26
ATOM     26  C   UNL     1       3.967   0.151  22.942  0.00  0.00    +0.070 C 
ATOM     28  C   UNL     1       3.570  -1.139  23.646  0.00  0.00    +0.027 C 
ATOM     29  C   UNL     1       5.383   0.571  23.316  0.00  0.00    +0.027 C 
ENDBRANCH   8  26
ENDBRANCH   1  24
ENDBRANCH  15   1
BRANCH  11  20
ATOM     20  C   UNL     1      -0.190   4.645  24.444  0.00  0.00    +0.166 C 
BRANCH  20   3
ATOM      3  O   UNL     1       0.068   4.342  23.090  0.00  0.00    -0.394 OA
ATOM     34  H   UNL     1       0.069   3.373  23.005  0.00  0.00    +0.209 HD
ENDBRANCH  20   3
ENDBRANCH  11  20
BRANCH  12  22
ATOM     22  C   UNL     1      -5.648   2.222  24.408  0.00  0.00    +0.102 C 
BRANCH  22  23
ATOM      4  O   UNL     1      -6.900   0.179  24.075  0.00  0.00    -0.276 OA
ATOM      7  N   UNL     1      -4.616   0.071  24.492  0.00  0.00    -0.308 N 
ATOM     23  C   UNL     1      -5.824   0.726  24.300  0.00  0.00    +0.214 C 
ATOM     35  H   UNL     1      -3.776   0.618  24.656  0.00  0.00    +0.149 HD
BRANCH   7  25
ATOM     25  C   UNL     1      -4.482  -1.367  24.447  0.00  0.00    +0.178 C 
BRANCH  25  27
ATOM      6  O   UNL     1      -2.764  -3.081  24.298  0.00  0.00    -0.466 OA
ATOM     27  C   UNL     1      -3.064  -1.807  24.667  0.00  0.00    +0.122 A 
ATOM     30  C   UNL     1      -1.954  -1.179  25.180  0.00  0.00    +0.046 A 
ATOM     31  C   UNL     1      -0.904  -2.127  25.123  0.00  0.00    +0.041 A 
ATOM     32  C   UNL     1      -1.448  -3.267  24.579  0.00  0.00    +0.195 A 
ENDBRANCH  25  27
ENDBRANCH   7  25
ENDBRANCH  22  23
ENDBRANCH  12  22
TORSDOF 10
ENDMDL
MODEL 3
REMARK VINA RESULT:       1.0      1.826      4.407
REMARK  Name = 44716885
REMARK  14 active torsions:
REMARK  status: ('A' for Active; 'I' for Inactive)
REMARK    1  A    between atoms: O_1  and  C_15
REMARK    2  A    between atoms: O_1  and  C_24
REMARK    3  A    between atoms: O_2  and  C_16
REMARK    4  A    between atoms: O_3  and  C_20
REMARK    5  A    between atoms: N_7  and  C_25
REMARK    6  A    between atoms: N_8  and  C_26
REMARK    7  A    between atoms: C_9  and  C_19
REMARK    8  A    between atoms: C_11  and  C_20
REMARK    9  A    between atoms: C_11  and  C_21
REMARK   10  A    between atoms: C_12  and  C_22
REMARK   11  A    between atoms: C_22  and  C_23
REMARK   12  A    between atoms: C_25  and  C_27
REMARK   13  A    between atoms: C_26  and  C_28
REMARK   14  A    between atoms: C_26  and  C_29
REMARK                            x       y       z     vdW  Elec       q    Type
REMARK                         _______ _______ _______ _____ _____    ______ ____
ROOT
ATOM      9  C   UNL     1      -2.942   0.995  24.225  0.00  0.00    -0.023 C 
ATOM     10  C   UNL     1      -2.862  -0.579  24.148  0.00  0.00    +0.007 C 
ATOM     11  C   UNL     1      -1.435  -1.224  24.323  0.00  0.00    +0.031 C 
ATOM     12  C   UNL     1      -4.382   1.412  23.708  0.00  0.00    +0.032 C 
ATOM     13  C   UNL     1      -1.868   1.590  23.275  0.00  0.00    +0.011 C 
ATOM     14  C   UNL     1      -3.973  -1.230  25.002  0.00  0.00    +0.007 C 
ATOM     15  C   UNL     1      -0.432  -0.493  23.380  0.00  0.00    +0.186 C 
ATOM     16  C   UNL     1      -5.534   0.718  24.472  0.00  0.00    +0.119 C 
ATOM     17  C   UNL     1      -0.469   1.027  23.500  0.00  0.00    +0.046 C 
ATOM     18  C   UNL     1      -5.362  -0.798  24.529  0.00  0.00    +0.032 C 
ATOM     19  C   UNL     1      -2.691   1.559  25.645  0.00  0.00    +0.012 C 
ATOM     21  C   UNL     1      -1.492  -2.714  23.876  0.00  0.00    +0.017 C 
ENDROOT
BRANCH  16   2
ATOM      2  O   UNL     1      -5.655   1.239  25.792  0.00  0.00    -0.391 OA
ATOM     33  H   UNL     1      -5.292   2.141  25.790  0.00  0.00    +0.210 HD
ENDBRANCH  16   2
BRANCH  15   1
ATOM      1  O   UNL     1       0.915  -0.900  23.619  0.00  0.00    -0.446 OA
BRANCH   1  24
ATOM      5  O   UNL     1       1.632  -0.262  21.532  0.00  0.00    -0.226 OA
ATOM      8  N   UNL     1       3.048  -0.235  23.369  0.00  0.00    -0.279 N 
ATOM     24  C   UNL     1       1.847  -0.447  22.726  0.00  0.00    +0.401 C 
ATOM     36  H   UNL     1       3.079  -0.384  24.374  0.00  0.00    +0.152 HD
BRANCH   8  26
ATOM     26  C   UNL     1       4.240   0.244  22.707  0.00  0.00    +0.070 C 
ATOM     28  C   UNL     1       5.476  -0.107  23.523  0.00  0.00    +0.027 C 
ATOM     29  C   UNL     1       4.148   1.745  22.461  0.00  0.00    +0.027 C 
ENDBRANCH   8  26
ENDBRANCH   1  24
ENDBRANCH  15   1
BRANCH  11  20
ATOM     20  C   UNL     1      -0.927  -1.244  25.778  0.00  0.00    +0.166 C 
BRANCH  20   3
ATOM      3  O   UNL     1       0.204  -2.086  25.832  0.00  0.00    -0.394 OA
ATOM     34  H   UNL     1      -0.112  -2.982  26.042  0.00  0.00    +0.209 HD
ENDBRANCH  20   3
ENDBRANCH  11  20
BRANCH  12  22
ATOM     22  C   UNL     1      -4.634   2.926  23.648  0.00  0.00    +0.102 C 
BRANCH  22  23
ATOM      4  O   UNL     1      -4.318   3.832  25.869  0.00  0.00    -0.276 OA
ATOM      7  N   UNL     1      -2.664   4.128  24.263  0.00  0.00    -0.308 N 
ATOM     23  C   UNL     1      -3.886   3.667  24.732  0.00  0.00    +0.214 C 
ATOM     35  H   UNL     1      -2.390   3.923  23.306  0.00  0.00    +0.149 HD
BRANCH   7  25
ATOM     25  C   UNL     1      -1.735   4.873  25.081  0.00  0.00    +0.178 C 
BRANCH  25  27
ATOM      6  O   UNL     1      -1.170   3.477  26.989  0.00  0.00    -0.466 OA
ATOM     27  C   UNL     1      -0.765   3.975  25.790  0.00  0.00    +0.122 A 
ATOM     30  C   UNL     1       0.498   3.525  25.483  0.00  0.00    +0.046 A 
ATOM     31  C   UNL     1       0.893   2.696  26.561  0.00  0.00    +0.041 A 
ATOM     32  C   UNL     1      -0.156   2.700  27.450  0.00  0.00    +0.195 A 
ENDBRANCH  25  27
ENDBRANCH   7  25
ENDBRANCH  22  23
ENDBRANCH  12  22
TORSDOF 10
ENDMDL
MODEL 4
REMARK VINA RESULT:       2.1      1.627      4.622
REMARK  Name = 44716885
REMARK  14 active torsions:
REMARK  status: ('A' for Active; 'I' for Inactive)
REMARK    1  A    between atoms: O_1  and  C_15
REMARK    2  A    between atoms: O_1  and  C_24
REMARK    3  A    between atoms: O_2  and  C_16
REMARK    4  A    between atoms: O_3  and  C_20
REMARK    5  A    between atoms: N_7  and  C_25
REMARK    6  A    between atoms: N_8  and  C_26
REMARK    7  A    between atoms: C_9  and  C_19
REMARK    8  A    between atoms: C_11  and  C_20
REMARK    9  A    between atoms: C_11  and  C_21
REMARK   10  A    between atoms: C_12  and  C_22
REMARK   11  A    between atoms: C_22  and  C_23
REMARK   12  A    between atoms: C_25  and  C_27
REMARK   13  A    between atoms: C_26  and  C_28
REMARK   14  A    between atoms: C_26  and  C_29
REMARK                            x       y       z     vdW  Elec       q    Type
REMARK                         _______ _______ _______ _____ _____    ______ ____
ROOT
ATOM      9  C   UNL     1      -2.355   0.040  24.427  0.00  0.00    -0.023 C 
ATOM     10  C   UNL     1      -1.367  -0.973  23.728  0.00  0.00    +0.007 C 
ATOM     11  C   UNL     1       0.158  -0.576  23.710  0.00  0.00    +0.031 C 
ATOM     12  C   UNL     1      -3.826  -0.405  24.040  0.00  0.00    +0.032 C 
ATOM     13  C   UNL     1      -2.086   1.460  23.859  0.00  0.00    +0.011 C 
ATOM     14  C   UNL     1      -1.651  -2.422  24.183  0.00  0.00    +0.007 C 
ATOM     15  C   UNL     1       0.291   0.891  23.200  0.00  0.00    +0.186 C 
ATOM     16  C   UNL     1      -4.136  -1.879  24.393  0.00  0.00    +0.119 C 
ATOM     17  C   UNL     1      -0.621   1.879  23.918  0.00  0.00    +0.046 C 
ATOM     18  C   UNL     1      -3.083  -2.840  23.846  0.00  0.00    +0.032 C 
ATOM     19  C   UNL     1      -2.193   0.102  25.966  0.00  0.00    +0.012 C 
ATOM     21  C   UNL     1       0.910  -1.491  22.700  0.00  0.00    +0.017 C 
ENDROOT
BRANCH  16   2
ATOM      2  O   UNL     1      -4.256  -2.049  25.802  0.00  0.00    -0.391 OA
ATOM     33  H   UNL     1      -4.868  -1.369  26.132  0.00  0.00    +0.210 HD
ENDBRANCH  16   2
BRANCH  15   1
ATOM      1  O   UNL     1       1.626   1.379  23.332  0.00  0.00    -0.446 OA
BRANCH   1  24
ATOM      5  O   UNL     1       2.514   0.138  21.615  0.00  0.00    -0.226 OA
ATOM      8  N   UNL     1       3.682   0.505  23.585  0.00  0.00    -0.279 N 
ATOM     24  C   UNL     1       2.602   0.626  22.737  0.00  0.00    +0.401 C 
ATOM     36  H   UNL     1       3.645   0.999  24.472  0.00  0.00    +0.152 HD
BRANCH   8  26
ATOM     26  C   UNL     1       4.882  -0.231  23.257  0.00  0.00    +0.070 C 
ATOM     28  C   UNL     1       4.823  -1.632  23.852  0.00  0.00    +0.027 C 
ATOM     29  C   UNL     1       6.117   0.521  23.735  0.00  0.00    +0.027 C 
ENDBRANCH   8  26
ENDBRANCH   1  24
ENDBRANCH  15   1
BRANCH  11  20
ATOM     20  C   UNL     1       0.875  -0.769  25.062  0.00  0.00    +0.166 C 
BRANCH  20   3
ATOM      3  O   UNL     1       0.556  -2.057  25.542  0.00  0.00    -0.394 OA
ATOM     34  H   UNL     1       1.200  -2.274  26.238  0.00  0.00    +0.209 HD
ENDBRANCH  20   3
ENDBRANCH  11  20
BRANCH  12  22
ATOM     22  C   UNL     1      -4.940   0.505  24.579  0.00  0.00    +0.102 C 
BRANCH  22  23
ATOM      4  O   UNL     1      -4.332   2.484  23.326  0.00  0.00    -0.276 OA
ATOM      7  N   UNL     1      -4.648   2.632  25.624  0.00  0.00    -0.308 N 
ATOM     23  C   UNL     1      -4.606   1.969  24.406  0.00  0.00    +0.214 C 
ATOM     35  H   UNL     1      -4.902   2.117  26.462  0.00  0.00    +0.149 HD
BRANCH   7  25
ATOM     25  C   UNL     1      -4.369   4.043  25.764  0.00  0.00    +0.178 C 
BRANCH  25  27
ATOM      6  O   UNL     1      -2.034   3.626  26.291  0.00  0.00    -0.466 OA
ATOM     27  C   UNL     1      -2.916   4.353  25.555  0.00  0.00    +0.122 A 
ATOM     30  C   UNL     1      -2.250   5.247  24.750  0.00  0.00    +0.046 A 
ATOM     31  C   UNL     1      -0.871   5.057  25.007  0.00  0.00    +0.041 A 
ATOM     32  C   UNL     1      -0.792   4.060  25.951  0.00  0.00    +0.195 A 
ENDBRANCH  25  27
ENDBRANCH   7  25
ENDBRANCH  22  23
ENDBRANCH  12  22
TORSDOF 10
ENDMDL
