MODEL 1
REMARK VINA RESULT:      -1.2      0.000      0.000
REMARK  Name = 40777105
REMARK  8 active torsions:
REMARK  status: ('A' for Active; 'I' for Inactive)
REMARK    1  A    between atoms: O_3  and  C_22
REMARK    2  A    between atoms: O_3  and  C_29
REMARK    3  A    between atoms: N_5  and  C_15
REMARK    4  A    between atoms: C_9  and  C_16
REMARK    5  A    between atoms: C_10  and  C_15
REMARK    6  A    between atoms: C_18  and  C_21
REMARK    7  A    between atoms: C_19  and  C_22
REMARK    8  A    between atoms: C_20  and  C_23
REMARK                            x       y       z     vdW  Elec       q    Type
REMARK                         _______ _______ _______ _____ _____    ______ ____
ROOT
ATOM      4  N   UNL     1       0.191   3.615  25.451  0.00  0.00    -0.297 NA
ATOM      8  C   UNL     1      -1.904   4.177  24.009  0.00  0.00    +0.002 C 
ATOM      9  C   UNL     1      -2.328   3.511  25.348  0.00  0.00    +0.055 C 
ATOM     10  C   UNL     1       0.374   3.101  24.067  0.00  0.00    +0.074 C 
ATOM     11  C   UNL     1      -0.934   3.239  23.259  0.00  0.00    +0.024 C 
ATOM     12  C   UNL     1      -1.112   5.450  24.375  0.00  0.00    +0.019 C 
ATOM     13  C   UNL     1      -1.030   3.026  26.055  0.00  0.00    +0.094 C 
ATOM     14  C   UNL     1       0.005   5.084  25.369  0.00  0.00    +0.085 C 
ENDROOT
BRANCH   9  16
ATOM      6  N   UNL     1      -4.655   2.812  25.630  0.00  0.00    -0.237 NA
ATOM      7  N   UNL     1      -5.368   0.541  25.255  0.00  0.00    -0.232 NA
ATOM     16  C   UNL     1      -3.401   2.433  25.307  0.00  0.00    +0.050 A 
ATOM     17  C   UNL     1      -3.058   1.144  24.953  0.00  0.00    +0.052 A 
ATOM     18  C   UNL     1      -4.092   0.231  24.944  0.00  0.00    +0.076 A 
ATOM     20  C   UNL     1      -5.575   1.830  25.583  0.00  0.00    +0.127 A 
ATOM     23  C   UNL     1      -6.973   2.212  25.936  0.00  0.00    +0.088 C 
BRANCH  18  21
ATOM      1 BR   UNL     1      -1.311  -0.987  25.952  0.00  0.00    -0.050 Br
ATOM     21  C   UNL     1      -3.864  -1.150  24.592  0.00  0.00    +0.014 A 
ATOM     24  C   UNL     1      -2.699  -1.824  24.959  0.00  0.00    +0.027 A 
ATOM     25  C   UNL     1      -4.853  -1.810  23.862  0.00  0.00    +0.011 A 
ATOM     26  C   UNL     1      -2.523  -3.160  24.596  0.00  0.00    +0.016 A 
ATOM     27  C   UNL     1      -4.677  -3.145  23.499  0.00  0.00    +0.001 A 
ATOM     28  C   UNL     1      -3.512  -3.821  23.866  0.00  0.00    +0.001 A 
ENDBRANCH  18  21
ENDBRANCH   9  16
BRANCH  10  15
ATOM     15  C   UNL     1       0.909   1.668  24.043  0.00  0.00    +0.123 C 
BRANCH  15   5
ATOM      2  O   UNL     1       2.186  -0.355  22.419  0.00  0.00    -0.273 OA
ATOM      5  N   UNL     1       2.273   1.640  23.615  0.00  0.00    -0.312 N 
ATOM     19  C   UNL     1       2.809   0.620  22.828  0.00  0.00    +0.239 C 
ATOM     30  H   UNL     1       2.877   2.402  23.905  0.00  0.00    +0.149 HD
BRANCH  19  22
ATOM     22  C   UNL     1       4.274   0.845  22.522  0.00  0.00    +0.255 C 
BRANCH  22   3
ATOM      3  O   UNL     1       5.044   0.791  23.704  0.00  0.00    -0.374 OA
ATOM     29  C   UNL     1       5.395  -0.545  24.049  0.00  0.00    +0.194 C 
ENDBRANCH  22   3
ENDBRANCH  19  22
ENDBRANCH  15   5
ENDBRANCH  10  15
TORSDOF 6
ENDMDL
MODEL 2
REMARK VINA RESULT:      -0.9      1.774      5.376
REMARK  Name = 40777105
REMARK  8 active torsions:
REMARK  status: ('A' for Active; 'I' for Inactive)
REMARK    1  A    between atoms: O_3  and  C_22
REMARK    2  A    between atoms: O_3  and  C_29
REMARK    3  A    between atoms: N_5  and  C_15
REMARK    4  A    between atoms: C_9  and  C_16
REMARK    5  A    between atoms: C_10  and  C_15
REMARK    6  A    between atoms: C_18  and  C_21
REMARK    7  A    between atoms: C_19  and  C_22
REMARK    8  A    between atoms: C_20  and  C_23
REMARK                            x       y       z     vdW  Elec       q    Type
REMARK                         _______ _______ _______ _____ _____    ______ ____
ROOT
ATOM      4  N   UNL     1      -1.757  -2.173  23.793  0.00  0.00    -0.297 NA
ATOM      8  C   UNL     1      -3.722  -1.964  25.490  0.00  0.00    +0.002 C 
ATOM      9  C   UNL     1      -3.824  -0.859  24.402  0.00  0.00    +0.055 C 
ATOM     10  C   UNL     1      -1.232  -2.192  25.184  0.00  0.00    +0.074 C 
ATOM     11  C   UNL     1      -2.352  -1.862  26.194  0.00  0.00    +0.024 C 
ATOM     12  C   UNL     1      -3.753  -3.320  24.753  0.00  0.00    +0.019 C 
ATOM     13  C   UNL     1      -2.520  -0.922  23.555  0.00  0.00    +0.094 C 
ATOM     14  C   UNL     1      -2.686  -3.319  23.643  0.00  0.00    +0.085 C 
ENDROOT
BRANCH   9  16
ATOM      6  N   UNL     1      -5.360   0.744  25.427  0.00  0.00    -0.237 NA
ATOM      7  N   UNL     1      -4.811   3.079  25.659  0.00  0.00    -0.232 NA
ATOM     16  C   UNL     1      -4.156   0.558  24.845  0.00  0.00    +0.050 A 
ATOM     17  C   UNL     1      -3.240   1.568  24.639  0.00  0.00    +0.052 A 
ATOM     18  C   UNL     1      -3.625   2.821  25.070  0.00  0.00    +0.076 A 
ATOM     20  C   UNL     1      -5.617   2.011  25.804  0.00  0.00    +0.127 A 
ATOM     23  C   UNL     1      -6.940   2.257  26.450  0.00  0.00    +0.088 C 
BRANCH  18  21
ATOM      1 BR   UNL     1      -0.653   2.436  26.188  0.00  0.00    -0.050 Br
ATOM     21  C   UNL     1      -2.757   3.963  24.910  0.00  0.00    +0.014 A 
ATOM     24  C   UNL     1      -1.432   3.952  25.347  0.00  0.00    +0.027 A 
ATOM     25  C   UNL     1      -3.281   5.102  24.299  0.00  0.00    +0.011 A 
ATOM     26  C   UNL     1      -0.630   5.080  25.171  0.00  0.00    +0.016 A 
ATOM     27  C   UNL     1      -2.480   6.231  24.123  0.00  0.00    +0.001 A 
ATOM     28  C   UNL     1      -1.154   6.220  24.560  0.00  0.00    +0.001 A 
ENDBRANCH  18  21
ENDBRANCH   9  16
BRANCH  10  15
ATOM     15  C   UNL     1      -0.018  -1.277  25.362  0.00  0.00    +0.123 C 
BRANCH  15   5
ATOM      2  O   UNL     1       0.352   1.072  23.716  0.00  0.00    -0.273 OA
ATOM      5  N   UNL     1       0.733  -1.183  24.149  0.00  0.00    -0.312 N 
ATOM     19  C   UNL     1       0.860  -0.004  23.415  0.00  0.00    +0.239 C 
ATOM     30  H   UNL     1       1.191  -2.022  23.808  0.00  0.00    +0.149 HD
BRANCH  19  22
ATOM     22  C   UNL     1       1.711  -0.191  22.176  0.00  0.00    +0.255 C 
BRANCH  22   3
ATOM      3  O   UNL     1       3.068  -0.362  22.525  0.00  0.00    -0.374 OA
ATOM     29  C   UNL     1       3.742   0.886  22.665  0.00  0.00    +0.194 C 
ENDBRANCH  22   3
ENDBRANCH  19  22
ENDBRANCH  15   5
ENDBRANCH  10  15
TORSDOF 6
ENDMDL
MODEL 3
REMARK VINA RESULT:       0.6      2.723      7.296
REMARK  Name = 40777105
REMARK  8 active torsions:
REMARK  status: ('A' for Active; 'I' for Inactive)
REMARK    1  A    between atoms: O_3  and  C_22
REMARK    2  A    between atoms: O_3  and  C_29
REMARK    3  A    between atoms: N_5  and  C_15
REMARK    4  A    between atoms: C_9  and  C_16
REMARK    5  A    between atoms: C_10  and  C_15
REMARK    6  A    between atoms: C_18  and  C_21
REMARK    7  A    between atoms: C_19  and  C_22
REMARK    8  A    between atoms: C_20  and  C_23
REMARK                            x       y       z     vdW  Elec       q    Type
REMARK                         _______ _______ _______ _____ _____    ______ ____
ROOT
ATOM      4  N   UNL     1      -3.509  -1.785  25.972  0.00  0.00    -0.297 NA
ATOM      8  C   UNL     1      -2.377  -1.992  23.636  0.00  0.00    +0.002 C 
ATOM      9  C   UNL     1      -1.360  -1.467  24.687  0.00  0.00    +0.055 C 
ATOM     10  C   UNL     1      -4.347  -1.119  24.940  0.00  0.00    +0.074 C 
ATOM     11  C   UNL     1      -3.598  -1.050  23.592  0.00  0.00    +0.024 C 
ATOM     12  C   UNL     1      -2.878  -3.360  24.145  0.00  0.00    +0.019 C 
ATOM     13  C   UNL     1      -2.153  -1.179  25.995  0.00  0.00    +0.094 C 
ATOM     14  C   UNL     1      -3.372  -3.212  25.595  0.00  0.00    +0.085 C 
ENDROOT
BRANCH   9  16
ATOM      6  N   UNL     1       0.741  -0.630  23.756  0.00  0.00    -0.237 NA
ATOM      7  N   UNL     1       1.218   1.725  23.575  0.00  0.00    -0.232 NA
ATOM     16  C   UNL     1      -0.454  -0.309  24.296  0.00  0.00    +0.050 A 
ATOM     17  C   UNL     1      -0.877   0.988  24.504  0.00  0.00    +0.052 A 
ATOM     18  C   UNL     1       0.009   1.974  24.121  0.00  0.00    +0.076 A 
ATOM     20  C   UNL     1       1.514   0.421  23.424  0.00  0.00    +0.127 A 
ATOM     23  C   UNL     1       2.844   0.105  22.826  0.00  0.00    +0.088 C 
BRANCH  18  21
ATOM      1 BR   UNL     1      -1.642   2.682  26.768  0.00  0.00    -0.050 Br
ATOM     21  C   UNL     1      -0.314   3.371  24.287  0.00  0.00    +0.014 A 
ATOM     24  C   UNL     1      -1.030   3.839  25.390  0.00  0.00    +0.027 A 
ATOM     25  C   UNL     1       0.112   4.262  23.302  0.00  0.00    +0.011 A 
ATOM     26  C   UNL     1      -1.318   5.199  25.507  0.00  0.00    +0.016 A 
ATOM     27  C   UNL     1      -0.177   5.622  23.420  0.00  0.00    +0.001 A 
ATOM     28  C   UNL     1      -0.893   6.090  24.522  0.00  0.00    +0.001 A 
ENDBRANCH  18  21
ENDBRANCH   9  16
BRANCH  10  15
ATOM     15  C   UNL     1      -4.840   0.259  25.389  0.00  0.00    +0.123 C 
BRANCH  15   5
ATOM      2  O   UNL     1      -5.590   3.051  25.339  0.00  0.00    -0.273 OA
ATOM      5  N   UNL     1      -4.263   1.293  24.588  0.00  0.00    -0.312 N 
ATOM     19  C   UNL     1      -4.688   2.621  24.627  0.00  0.00    +0.239 C 
ATOM     30  H   UNL     1      -3.508   1.040  23.958  0.00  0.00    +0.149 HD
BRANCH  19  22
ATOM     22  C   UNL     1      -3.902   3.500  23.678  0.00  0.00    +0.255 C 
BRANCH  22   3
ATOM      3  O   UNL     1      -3.997   3.016  22.355  0.00  0.00    -0.374 OA
ATOM     29  C   UNL     1      -2.810   2.340  21.950  0.00  0.00    +0.194 C 
ENDBRANCH  22   3
ENDBRANCH  19  22
ENDBRANCH  15   5
ENDBRANCH  10  15
TORSDOF 6
ENDMDL
MODEL 4
REMARK VINA RESULT:       1.9      2.438      5.886
REMARK  Name = 40777105
REMARK  8 active torsions:
REMARK  status: ('A' for Active; 'I' for Inactive)
REMARK    1  A    between atoms: O_3  and  C_22
REMARK    2  A    between atoms: O_3  and  C_29
REMARK    3  A    between atoms: N_5  and  C_15
REMARK    4  A    between atoms: C_9  and  C_16
REMARK    5  A    between atoms: C_10  and  C_15
REMARK    6  A    between atoms: C_18  and  C_21
REMARK    7  A    between atoms: C_19  and  C_22
REMARK    8  A    between atoms: C_20  and  C_23
REMARK                            x       y       z     vdW  Elec       q    Type
REMARK                         _______ _______ _______ _____ _____    ______ ____
ROOT
ATOM      4  N   UNL     1      -4.929   3.019  23.825  0.00  0.00    -0.297 NA
ATOM      8  C   UNL     1      -3.869   3.537  26.146  0.00  0.00    +0.002 C 
ATOM      9  C   UNL     1      -2.795   3.625  25.027  0.00  0.00    +0.055 C 
ATOM     10  C   UNL     1      -5.303   1.962  24.801  0.00  0.00    +0.074 C 
ATOM     11  C   UNL     1      -4.519   2.138  26.120  0.00  0.00    +0.024 C 
ATOM     12  C   UNL     1      -4.971   4.556  25.788  0.00  0.00    +0.019 C 
ATOM     13  C   UNL     1      -3.451   3.110  23.714  0.00  0.00    +0.094 C 
ATOM     14  C   UNL     1      -5.435   4.313  24.340  0.00  0.00    +0.085 C 
ENDROOT
BRANCH   9  16
ATOM      6  N   UNL     1      -0.952   3.075  26.538  0.00  0.00    -0.237 NA
ATOM      7  N   UNL     1       0.997   1.866  25.800  0.00  0.00    -0.232 NA
ATOM     16  C   UNL     1      -1.437   2.988  25.282  0.00  0.00    +0.050 A 
ATOM     17  C   UNL     1      -0.772   2.365  24.246  0.00  0.00    +0.052 A 
ATOM     18  C   UNL     1       0.453   1.816  24.565  0.00  0.00    +0.076 A 
ATOM     20  C   UNL     1       0.252   2.501  26.723  0.00  0.00    +0.127 A 
ATOM     23  C   UNL     1       0.821   2.579  28.100  0.00  0.00    +0.088 C 
BRANCH  18  21
ATOM      1 BR   UNL     1      -1.142  -0.270  22.740  0.00  0.00    -0.050 Br
ATOM     21  C   UNL     1       1.249   1.138  23.571  0.00  0.00    +0.014 A 
ATOM     24  C   UNL     1       0.699   0.199  22.698  0.00  0.00    +0.027 A 
ATOM     25  C   UNL     1       2.607   1.447  23.499  0.00  0.00    +0.011 A 
ATOM     26  C   UNL     1       1.508  -0.431  21.752  0.00  0.00    +0.016 A 
ATOM     27  C   UNL     1       3.416   0.817  22.553  0.00  0.00    +0.001 A 
ATOM     28  C   UNL     1       2.867  -0.123  21.680  0.00  0.00    +0.001 A 
ENDBRANCH  18  21
ENDBRANCH   9  16
BRANCH  10  15
ATOM     15  C   UNL     1      -5.140   0.552  24.227  0.00  0.00    +0.123 C 
BRANCH  15   5
ATOM      2  O   UNL     1      -4.335  -2.190  23.783  0.00  0.00    -0.273 OA
ATOM      5  N   UNL     1      -4.212  -0.211  25.002  0.00  0.00    -0.312 N 
ATOM     19  C   UNL     1      -3.879  -1.534  24.715  0.00  0.00    +0.239 C 
ATOM     30  H   UNL     1      -3.779   0.240  25.802  0.00  0.00    +0.149 HD
BRANCH  19  22
ATOM     22  C   UNL     1      -2.873  -2.096  25.697  0.00  0.00    +0.255 C 
BRANCH  22   3
ATOM      3  O   UNL     1      -1.929  -1.112  26.060  0.00  0.00    -0.374 OA
ATOM     29  C   UNL     1      -0.605  -1.479  25.683  0.00  0.00    +0.194 C 
ENDBRANCH  22   3
ENDBRANCH  19  22
ENDBRANCH  15   5
ENDBRANCH  10  15
TORSDOF 6
ENDMDL
MODEL 5
REMARK VINA RESULT:       2.1      2.358      4.687
REMARK  Name = 40777105
REMARK  8 active torsions:
REMARK  status: ('A' for Active; 'I' for Inactive)
REMARK    1  A    between atoms: O_3  and  C_22
REMARK    2  A    between atoms: O_3  and  C_29
REMARK    3  A    between atoms: N_5  and  C_15
REMARK    4  A    between atoms: C_9  and  C_16
REMARK    5  A    between atoms: C_10  and  C_15
REMARK    6  A    between atoms: C_18  and  C_21
REMARK    7  A    between atoms: C_19  and  C_22
REMARK    8  A    between atoms: C_20  and  C_23
REMARK                            x       y       z     vdW  Elec       q    Type
REMARK                         _______ _______ _______ _____ _____    ______ ____
ROOT
ATOM      4  N   UNL     1      -3.806   3.757  25.981  0.00  0.00    -0.297 NA
ATOM      8  C   UNL     1      -4.733   2.351  23.995  0.00  0.00    +0.002 C 
ATOM      9  C   UNL     1      -4.204   1.419  25.120  0.00  0.00    +0.055 C 
ATOM     10  C   UNL     1      -3.227   4.243  24.700  0.00  0.00    +0.074 C 
ATOM     11  C   UNL     1      -3.601   3.295  23.540  0.00  0.00    +0.024 C 
ATOM     12  C   UNL     1      -5.832   3.232  24.626  0.00  0.00    +0.019 C 
ATOM     13  C   UNL     1      -3.489   2.319  26.169  0.00  0.00    +0.094 C 
ATOM     14  C   UNL     1      -5.279   3.900  25.897  0.00  0.00    +0.085 C 
ENDROOT
BRANCH   9  16
ATOM      6  N   UNL     1      -3.986  -0.979  24.687  0.00  0.00    -0.237 NA
ATOM      7  N   UNL     1      -1.899  -1.978  24.014  0.00  0.00    -0.232 NA
ATOM     16  C   UNL     1      -3.360   0.217  24.721  0.00  0.00    +0.050 A 
ATOM     17  C   UNL     1      -2.025   0.391  24.419  0.00  0.00    +0.052 A 
ATOM     18  C   UNL     1      -1.337  -0.752  24.069  0.00  0.00    +0.076 A 
ATOM     20  C   UNL     1      -3.207  -2.017  24.331  0.00  0.00    +0.127 A 
ATOM     23  C   UNL     1      -3.864  -3.356  24.285  0.00  0.00    +0.088 C 
BRANCH  18  21
ATOM      1 BR   UNL     1       0.508  -2.848  25.629  0.00  0.00    -0.050 Br
ATOM     21  C   UNL     1       0.065  -0.704  23.732  0.00  0.00    +0.014 A 
ATOM     24  C   UNL     1       0.999  -1.554  24.326  0.00  0.00    +0.027 A 
ATOM     25  C   UNL     1       0.477   0.230  22.782  0.00  0.00    +0.011 A 
ATOM     26  C   UNL     1       2.344  -1.471  23.968  0.00  0.00    +0.016 A 
ATOM     27  C   UNL     1       1.823   0.313  22.423  0.00  0.00    +0.001 A 
ATOM     28  C   UNL     1       2.757  -0.537  23.017  0.00  0.00    +0.001 A 
ENDBRANCH  18  21
ENDBRANCH   9  16
BRANCH  10  15
ATOM     15  C   UNL     1      -1.716   4.465  24.790  0.00  0.00    +0.123 C 
BRANCH  15   5
ATOM      2  O   UNL     1       0.556   2.675  24.779  0.00  0.00    -0.273 OA
ATOM      5  N   UNL     1      -1.162   3.766  25.908  0.00  0.00    -0.312 N 
ATOM     19  C   UNL     1      -0.059   2.918  25.813  0.00  0.00    +0.239 C 
ATOM     30  H   UNL     1      -1.602   3.897  26.814  0.00  0.00    +0.149 HD
BRANCH  19  22
ATOM     22  C   UNL     1       0.313   2.314  27.151  0.00  0.00    +0.255 C 
BRANCH  22   3
ATOM      3  O   UNL     1       1.548   2.825  27.602  0.00  0.00    -0.374 OA
ATOM     29  C   UNL     1       1.769   2.541  28.981  0.00  0.00    +0.194 C 
ENDBRANCH  22   3
ENDBRANCH  19  22
ENDBRANCH  15   5
ENDBRANCH  10  15
TORSDOF 6
ENDMDL
MODEL 6
REMARK VINA RESULT:       2.1      2.843      6.330
REMARK  Name = 40777105
REMARK  8 active torsions:
REMARK  status: ('A' for Active; 'I' for Inactive)
REMARK    1  A    between atoms: O_3  and  C_22
REMARK    2  A    between atoms: O_3  and  C_29
REMARK    3  A    between atoms: N_5  and  C_15
REMARK    4  A    between atoms: C_9  and  C_16
REMARK    5  A    between atoms: C_10  and  C_15
REMARK    6  A    between atoms: C_18  and  C_21
REMARK    7  A    between atoms: C_19  and  C_22
REMARK    8  A    between atoms: C_20  and  C_23
REMARK                            x       y       z     vdW  Elec       q    Type
REMARK                         _______ _______ _______ _____ _____    ______ ____
ROOT
ATOM      4  N   UNL     1      -4.234   3.927  24.167  0.00  0.00    -0.297 NA
ATOM      8  C   UNL     1      -2.064   4.113  25.595  0.00  0.00    +0.002 C 
ATOM      9  C   UNL     1      -1.789   3.313  24.292  0.00  0.00    +0.055 C 
ATOM     10  C   UNL     1      -4.514   3.526  25.572  0.00  0.00    +0.074 C 
ATOM     11  C   UNL     1      -3.203   3.431  26.382  0.00  0.00    +0.024 C 
ATOM     12  C   UNL     1      -2.580   5.503  25.166  0.00  0.00    +0.019 C 
ATOM     13  C   UNL     1      -3.161   3.072  23.599  0.00  0.00    +0.094 C 
ATOM     14  C   UNL     1      -3.751   5.328  24.182  0.00  0.00    +0.085 C 
ENDROOT
BRANCH   9  16
ATOM      6  N   UNL     1      -1.480   1.034  25.122  0.00  0.00    -0.237 NA
ATOM      7  N   UNL     1       0.482  -0.267  24.604  0.00  0.00    -0.232 NA
ATOM     16  C   UNL     1      -0.960   2.041  24.390  0.00  0.00    +0.050 A 
ATOM     17  C   UNL     1       0.257   1.970  23.745  0.00  0.00    +0.052 A 
ATOM     18  C   UNL     1       0.942   0.781  23.888  0.00  0.00    +0.076 A 
ATOM     20  C   UNL     1      -0.717  -0.074  25.185  0.00  0.00    +0.127 A 
ATOM     23  C   UNL     1      -1.258  -1.209  25.988  0.00  0.00    +0.088 C 
BRANCH  18  21
ATOM      1 BR   UNL     1       0.865  -0.735  21.073  0.00  0.00    -0.050 Br
ATOM     21  C   UNL     1       2.228   0.581  23.265  0.00  0.00    +0.014 A 
ATOM     24  C   UNL     1       2.361  -0.064  22.034  0.00  0.00    +0.027 A 
ATOM     25  C   UNL     1       3.358   1.055  23.930  0.00  0.00    +0.011 A 
ATOM     26  C   UNL     1       3.625  -0.234  21.470  0.00  0.00    +0.016 A 
ATOM     27  C   UNL     1       4.622   0.885  23.366  0.00  0.00    +0.001 A 
ATOM     28  C   UNL     1       4.756   0.240  22.136  0.00  0.00    +0.001 A 
ENDBRANCH  18  21
ENDBRANCH   9  16
BRANCH  10  15
ATOM     15  C   UNL     1      -5.332   2.236  25.659  0.00  0.00    +0.123 C 
BRANCH  15   5
ATOM      2  O   UNL     1      -4.366  -0.457  26.083  0.00  0.00    -0.273 OA
ATOM      5  N   UNL     1      -4.917   1.300  24.660  0.00  0.00    -0.312 N 
ATOM     19  C   UNL     1      -4.463   0.015  24.954  0.00  0.00    +0.239 C 
ATOM     30  H   UNL     1      -4.955   1.595  23.689  0.00  0.00    +0.149 HD
BRANCH  19  22
ATOM     22  C   UNL     1      -4.093  -0.760  23.707  0.00  0.00    +0.255 C 
BRANCH  22   3
ATOM      3  O   UNL     1      -4.557  -2.090  23.790  0.00  0.00    -0.374 OA
ATOM     29  C   UNL     1      -3.522  -2.990  24.175  0.00  0.00    +0.194 C 
ENDBRANCH  22   3
ENDBRANCH  19  22
ENDBRANCH  15   5
ENDBRANCH  10  15
TORSDOF 6
ENDMDL
MODEL 7
REMARK VINA RESULT:       2.6      3.197      5.773
REMARK  Name = 40777105
REMARK  8 active torsions:
REMARK  status: ('A' for Active; 'I' for Inactive)
REMARK    1  A    between atoms: O_3  and  C_22
REMARK    2  A    between atoms: O_3  and  C_29
REMARK    3  A    between atoms: N_5  and  C_15
REMARK    4  A    between atoms: C_9  and  C_16
REMARK    5  A    between atoms: C_10  and  C_15
REMARK    6  A    between atoms: C_18  and  C_21
REMARK    7  A    between atoms: C_19  and  C_22
REMARK    8  A    between atoms: C_20  and  C_23
REMARK                            x       y       z     vdW  Elec       q    Type
REMARK                         _______ _______ _______ _____ _____    ______ ____
ROOT
ATOM      4  N   UNL     1      -2.744   4.959  24.858  0.00  0.00    -0.297 NA
ATOM      8  C   UNL     1      -0.230   4.295  25.012  0.00  0.00    +0.002 C 
ATOM      9  C   UNL     1      -0.932   3.502  23.875  0.00  0.00    +0.055 C 
ATOM     10  C   UNL     1      -2.390   4.631  26.264  0.00  0.00    +0.074 C 
ATOM     11  C   UNL     1      -0.967   4.038  26.343  0.00  0.00    +0.024 C 
ATOM     12  C   UNL     1      -0.400   5.794  24.682  0.00  0.00    +0.019 C 
ATOM     13  C   UNL     1      -2.457   3.798  23.977  0.00  0.00    +0.094 C 
ATOM     14  C   UNL     1      -1.889   6.090  24.427  0.00  0.00    +0.085 C 
ENDROOT
BRANCH   9  16
ATOM      6  N   UNL     1       0.614   1.671  23.391  0.00  0.00    -0.237 NA
ATOM      7  N   UNL     1      -0.057  -0.641  23.506  0.00  0.00    -0.232 NA
ATOM     16  C   UNL     1      -0.641   2.014  23.750  0.00  0.00    +0.050 A 
ATOM     17  C   UNL     1      -1.644   1.100  23.998  0.00  0.00    +0.052 A 
ATOM     18  C   UNL     1      -1.292  -0.227  23.859  0.00  0.00    +0.076 A 
ATOM     20  C   UNL     1       0.833   0.346  23.290  0.00  0.00    +0.127 A 
ATOM     23  C   UNL     1       2.209  -0.073  22.894  0.00  0.00    +0.088 C 
BRANCH  18  21
ATOM      1 BR   UNL     1      -0.190  -2.726  25.523  0.00  0.00    -0.050 Br
ATOM     21  C   UNL     1      -2.251  -1.280  24.090  0.00  0.00    +0.014 A 
ATOM     24  C   UNL     1      -1.923  -2.436  24.800  0.00  0.00    +0.027 A 
ATOM     25  C   UNL     1      -3.538  -1.116  23.578  0.00  0.00    +0.011 A 
ATOM     26  C   UNL     1      -2.884  -3.428  24.998  0.00  0.00    +0.016 A 
ATOM     27  C   UNL     1      -4.499  -2.108  23.777  0.00  0.00    +0.001 A 
ATOM     28  C   UNL     1      -4.172  -3.265  24.486  0.00  0.00    +0.001 A 
ENDBRANCH  18  21
ENDBRANCH   9  16
BRANCH  10  15
ATOM     15  C   UNL     1      -3.424   3.718  26.929  0.00  0.00    +0.123 C 
BRANCH  15   5
ATOM      2  O   UNL     1      -6.019   4.285  25.785  0.00  0.00    -0.273 OA
ATOM      5  N   UNL     1      -4.124   2.944  25.952  0.00  0.00    -0.312 N 
ATOM     19  C   UNL     1      -5.378   3.292  25.452  0.00  0.00    +0.239 C 
ATOM     30  H   UNL     1      -3.680   2.096  25.611  0.00  0.00    +0.149 HD
BRANCH  19  22
ATOM     22  C   UNL     1      -5.883   2.296  24.429  0.00  0.00    +0.255 C 
BRANCH  22   3
ATOM      3  O   UNL     1      -6.640   1.281  25.054  0.00  0.00    -0.374 OA
ATOM     29  C   UNL     1      -6.542   1.343  26.474  0.00  0.00    +0.194 C 
ENDBRANCH  22   3
ENDBRANCH  19  22
ENDBRANCH  15   5
ENDBRANCH  10  15
TORSDOF 6
ENDMDL
