MODEL 1
REMARK VINA RESULT:      -6.7      0.000      0.000
REMARK  Name = 25390428
REMARK  10 active torsions:
REMARK  status: ('A' for Active; 'I' for Inactive)
REMARK    1  A    between atoms: O_2  and  C_8
REMARK    2  A    between atoms: O_3  and  C_10
REMARK    3  A    between atoms: N_6  and  C_13
REMARK    4  A    between atoms: N_7  and  C_15
REMARK    5  A    between atoms: C_9  and  C_12
REMARK    6  A    between atoms: C_11  and  C_13
REMARK    7  A    between atoms: C_12  and  C_14
REMARK    8  A    between atoms: C_15  and  C_17
REMARK    9  A    between atoms: C_15  and  C_18
REMARK   10  A    between atoms: C_16  and  C_19
REMARK                            x       y       z     vdW  Elec       q    Type
REMARK                         _______ _______ _______ _____ _____    ______ ____
ROOT
ATOM      1  O   UNL     1      -1.485   2.693  23.527  0.00  0.00    -0.366 OA
ATOM      8  C   UNL     1      -0.450   2.168  25.579  0.00  0.00    +0.175 C 
ATOM      9  C   UNL     1      -0.708   3.285  24.583  0.00  0.00    +0.158 C 
ATOM     10  C   UNL     1      -0.300   0.971  24.662  0.00  0.00    +0.176 C 
ATOM     11  C   UNL     1      -1.352   1.256  23.595  0.00  0.00    +0.167 C 
ENDROOT
BRANCH   8   2
ATOM      2  O   UNL     1       0.693   2.414  26.369  0.00  0.00    -0.387 OA
ATOM     20  H   UNL     1       0.653   1.817  27.135  0.00  0.00    +0.210 HD
ENDBRANCH   8   2
BRANCH  10   3
ATOM      3  O   UNL     1       0.983   0.988  24.035  0.00  0.00    -0.387 OA
ATOM     21  H   UNL     1       0.856   1.295  23.121  0.00  0.00    +0.210 HD
ENDBRANCH  10   3
BRANCH   9  12
ATOM     12  C   UNL     1      -1.463   4.461  25.177  0.00  0.00    +0.130 C 
BRANCH  12  14
ATOM      4  O   UNL     1      -2.731   3.981  27.180  0.00  0.00    -0.276 OA
ATOM      7  N   UNL     1      -3.744   3.709  25.106  0.00  0.00    -0.313 N 
ATOM     14  C   UNL     1      -2.693   4.031  25.954  0.00  0.00    +0.216 C 
ATOM     23  H   UNL     1      -3.625   3.843  24.105  0.00  0.00    +0.149 HD
BRANCH   7  15
ATOM     15  C   UNL     1      -5.035   3.266  25.581  0.00  0.00    +0.067 C 
ATOM     17  C   UNL     1      -5.524   2.082  24.758  0.00  0.00    +0.027 C 
ATOM     18  C   UNL     1      -6.037   4.414  25.551  0.00  0.00    +0.027 C 
ENDBRANCH   7  15
ENDBRANCH  12  14
ENDBRANCH   9  12
BRANCH  11  13
ATOM     13  C   UNL     1      -2.717   0.676  23.936  0.00  0.00    +0.138 C 
BRANCH  13   6
ATOM      5  O   UNL     1      -4.687  -1.456  23.893  0.00  0.00    -0.276 OA
ATOM      6  N   UNL     1      -2.595  -0.635  24.504  0.00  0.00    -0.313 N 
ATOM     16  C   UNL     1      -3.595  -1.599  24.436  0.00  0.00    +0.210 C 
ATOM     19  C   UNL     1      -3.197  -2.894  25.091  0.00  0.00    +0.109 C 
ATOM     22  H   UNL     1      -1.720  -0.868  24.965  0.00  0.00    +0.149 HD
ENDBRANCH  13   6
ENDBRANCH  11  13
TORSDOF 7
ENDMDL
MODEL 2
REMARK VINA RESULT:      -6.6      2.090      4.552
REMARK  Name = 25390428
REMARK  10 active torsions:
REMARK  status: ('A' for Active; 'I' for Inactive)
REMARK    1  A    between atoms: O_2  and  C_8
REMARK    2  A    between atoms: O_3  and  C_10
REMARK    3  A    between atoms: N_6  and  C_13
REMARK    4  A    between atoms: N_7  and  C_15
REMARK    5  A    between atoms: C_9  and  C_12
REMARK    6  A    between atoms: C_11  and  C_13
REMARK    7  A    between atoms: C_12  and  C_14
REMARK    8  A    between atoms: C_15  and  C_17
REMARK    9  A    between atoms: C_15  and  C_18
REMARK   10  A    between atoms: C_16  and  C_19
REMARK                            x       y       z     vdW  Elec       q    Type
REMARK                         _______ _______ _______ _____ _____    ______ ____
ROOT
ATOM      1  O   UNL     1      -1.734   2.685  23.340  0.00  0.00    -0.366 OA
ATOM      8  C   UNL     1      -2.623   3.150  25.474  0.00  0.00    +0.175 C 
ATOM      9  C   UNL     1      -2.955   3.074  23.994  0.00  0.00    +0.158 C 
ATOM     10  C   UNL     1      -1.199   3.667  25.439  0.00  0.00    +0.176 C 
ATOM     11  C   UNL     1      -0.625   2.933  24.232  0.00  0.00    +0.167 C 
ENDROOT
BRANCH   8   2
ATOM      2  O   UNL     1      -3.508   3.997  26.174  0.00  0.00    -0.387 OA
ATOM     20  H   UNL     1      -4.412   3.759  25.907  0.00  0.00    +0.210 HD
ENDBRANCH   8   2
BRANCH  10   3
ATOM      3  O   UNL     1      -1.188   5.066  25.154  0.00  0.00    -0.387 OA
ATOM     21  H   UNL     1      -1.195   5.536  26.005  0.00  0.00    +0.210 HD
ENDBRANCH  10   3
BRANCH   9  12
ATOM     12  C   UNL     1      -4.050   2.072  23.672  0.00  0.00    +0.130 C 
BRANCH  12  14
ATOM      4  O   UNL     1      -4.763   0.758  25.573  0.00  0.00    -0.276 OA
ATOM      7  N   UNL     1      -3.084  -0.065  24.193  0.00  0.00    -0.313 N 
ATOM     14  C   UNL     1      -4.028   0.869  24.596  0.00  0.00    +0.216 C 
ATOM     23  H   UNL     1      -2.568   0.098  23.332  0.00  0.00    +0.149 HD
BRANCH   7  15
ATOM     15  C   UNL     1      -2.852  -1.307  24.895  0.00  0.00    +0.067 C 
ATOM     17  C   UNL     1      -1.384  -1.699  24.805  0.00  0.00    +0.027 C 
ATOM     18  C   UNL     1      -3.754  -2.407  24.348  0.00  0.00    +0.027 C 
ENDBRANCH   7  15
ENDBRANCH  12  14
ENDBRANCH   9  12
BRANCH  11  13
ATOM     13  C   UNL     1      -0.005   1.591  24.592  0.00  0.00    +0.138 C 
BRANCH  13   6
ATOM      5  O   UNL     1       0.938  -0.310  22.609  0.00  0.00    -0.276 OA
ATOM      6  N   UNL     1       1.321   1.473  24.058  0.00  0.00    -0.313 N 
ATOM     16  C   UNL     1       1.686   0.527  23.106  0.00  0.00    +0.210 C 
ATOM     19  C   UNL     1       3.132   0.641  22.702  0.00  0.00    +0.109 C 
ATOM     22  H   UNL     1       2.021   2.132  24.388  0.00  0.00    +0.149 HD
ENDBRANCH  13   6
ENDBRANCH  11  13
TORSDOF 7
ENDMDL
MODEL 3
REMARK VINA RESULT:      -6.1      2.442      4.381
REMARK  Name = 25390428
REMARK  10 active torsions:
REMARK  status: ('A' for Active; 'I' for Inactive)
REMARK    1  A    between atoms: O_2  and  C_8
REMARK    2  A    between atoms: O_3  and  C_10
REMARK    3  A    between atoms: N_6  and  C_13
REMARK    4  A    between atoms: N_7  and  C_15
REMARK    5  A    between atoms: C_9  and  C_12
REMARK    6  A    between atoms: C_11  and  C_13
REMARK    7  A    between atoms: C_12  and  C_14
REMARK    8  A    between atoms: C_15  and  C_17
REMARK    9  A    between atoms: C_15  and  C_18
REMARK   10  A    between atoms: C_16  and  C_19
REMARK                            x       y       z     vdW  Elec       q    Type
REMARK                         _______ _______ _______ _____ _____    ______ ____
ROOT
ATOM      1  O   UNL     1      -1.624   0.608  25.388  0.00  0.00    -0.366 OA
ATOM      8  C   UNL     1      -1.649  -1.408  24.164  0.00  0.00    +0.175 C 
ATOM      9  C   UNL     1      -2.445  -0.544  25.127  0.00  0.00    +0.158 C 
ATOM     10  C   UNL     1      -0.232  -1.173  24.646  0.00  0.00    +0.176 C 
ATOM     11  C   UNL     1      -0.262   0.308  25.009  0.00  0.00    +0.167 C 
ENDROOT
BRANCH   8   2
ATOM      2  O   UNL     1      -2.041  -2.762  24.216  0.00  0.00    -0.387 OA
ATOM     20  H   UNL     1      -2.427  -2.988  23.353  0.00  0.00    +0.210 HD
ENDBRANCH   8   2
BRANCH  10   3
ATOM      3  O   UNL     1       0.013  -1.917  25.840  0.00  0.00    -0.387 OA
ATOM     21  H   UNL     1      -0.836  -2.297  26.125  0.00  0.00    +0.210 HD
ENDBRANCH  10   3
BRANCH   9  12
ATOM     12  C   UNL     1      -3.787  -0.101  24.572  0.00  0.00    +0.130 C 
BRANCH  12  14
ATOM      4  O   UNL     1      -3.561   1.755  23.037  0.00  0.00    -0.276 OA
ATOM      7  N   UNL     1      -4.109   2.179  25.256  0.00  0.00    -0.313 N 
ATOM     14  C   UNL     1      -3.799   1.364  24.176  0.00  0.00    +0.216 C 
ATOM     23  H   UNL     1      -4.349   1.748  26.144  0.00  0.00    +0.149 HD
BRANCH   7  15
ATOM     15  C   UNL     1      -4.188   3.619  25.160  0.00  0.00    +0.067 C 
ATOM     17  C   UNL     1      -3.118   4.266  26.029  0.00  0.00    +0.027 C 
ATOM     18  C   UNL     1      -5.581   4.105  25.544  0.00  0.00    +0.027 C 
ENDBRANCH   7  15
ENDBRANCH  12  14
ENDBRANCH   9  12
BRANCH  11  13
ATOM     13  C   UNL     1       0.109   1.214  23.844  0.00  0.00    +0.138 C 
BRANCH  13   6
ATOM      5  O   UNL     1       1.780  -0.266  21.986  0.00  0.00    -0.276 OA
ATOM      6  N   UNL     1       1.531   1.303  23.690  0.00  0.00    -0.313 N 
ATOM     16  C   UNL     1       2.255   0.552  22.770  0.00  0.00    +0.210 C 
ATOM     19  C   UNL     1       3.728   0.861  22.800  0.00  0.00    +0.109 C 
ATOM     22  H   UNL     1       2.028   1.967  24.279  0.00  0.00    +0.149 HD
ENDBRANCH  13   6
ENDBRANCH  11  13
TORSDOF 7
ENDMDL
MODEL 4
REMARK VINA RESULT:      -5.7      1.652      2.344
REMARK  Name = 25390428
REMARK  10 active torsions:
REMARK  status: ('A' for Active; 'I' for Inactive)
REMARK    1  A    between atoms: O_2  and  C_8
REMARK    2  A    between atoms: O_3  and  C_10
REMARK    3  A    between atoms: N_6  and  C_13
REMARK    4  A    between atoms: N_7  and  C_15
REMARK    5  A    between atoms: C_9  and  C_12
REMARK    6  A    between atoms: C_11  and  C_13
REMARK    7  A    between atoms: C_12  and  C_14
REMARK    8  A    between atoms: C_15  and  C_17
REMARK    9  A    between atoms: C_15  and  C_18
REMARK   10  A    between atoms: C_16  and  C_19
REMARK                            x       y       z     vdW  Elec       q    Type
REMARK                         _______ _______ _______ _____ _____    ______ ____
ROOT
ATOM      1  O   UNL     1      -1.160   0.353  23.877  0.00  0.00    -0.366 OA
ATOM      8  C   UNL     1      -1.436   2.433  24.953  0.00  0.00    +0.175 C 
ATOM      9  C   UNL     1      -1.376   1.748  23.599  0.00  0.00    +0.158 C 
ATOM     10  C   UNL     1      -0.425   1.629  25.745  0.00  0.00    +0.176 C 
ATOM     11  C   UNL     1      -0.671   0.215  25.229  0.00  0.00    +0.167 C 
ENDROOT
BRANCH   8   2
ATOM      2  O   UNL     1      -1.118   3.806  24.869  0.00  0.00    -0.387 OA
ATOM     20  H   UNL     1      -1.687   4.196  24.184  0.00  0.00    +0.210 HD
ENDBRANCH   8   2
BRANCH  10   3
ATOM      3  O   UNL     1       0.903   2.009  25.381  0.00  0.00    -0.387 OA
ATOM     21  H   UNL     1       0.941   2.038  24.409  0.00  0.00    +0.210 HD
ENDBRANCH  10   3
BRANCH   9  12
ATOM     12  C   UNL     1      -2.645   1.917  22.781  0.00  0.00    +0.130 C 
BRANCH  12  14
ATOM      4  O   UNL     1      -3.810   3.963  23.331  0.00  0.00    -0.276 OA
ATOM      7  N   UNL     1      -4.475   1.976  24.336  0.00  0.00    -0.313 N 
ATOM     14  C   UNL     1      -3.691   2.752  23.494  0.00  0.00    +0.216 C 
ATOM     23  H   UNL     1      -4.331   0.970  24.351  0.00  0.00    +0.149 HD
BRANCH   7  15
ATOM     15  C   UNL     1      -5.548   2.518  25.138  0.00  0.00    +0.067 C 
ATOM     17  C   UNL     1      -5.013   3.581  26.088  0.00  0.00    +0.027 C 
ATOM     18  C   UNL     1      -6.262   1.406  25.897  0.00  0.00    +0.027 C 
ENDBRANCH   7  15
ENDBRANCH  12  14
ENDBRANCH   9  12
BRANCH  11  13
ATOM     13  C   UNL     1      -1.722  -0.537  26.032  0.00  0.00    +0.138 C 
BRANCH  13   6
ATOM      5  O   UNL     1      -2.174  -2.887  24.389  0.00  0.00    -0.276 OA
ATOM      6  N   UNL     1      -2.873  -0.831  25.230  0.00  0.00    -0.313 N 
ATOM     16  C   UNL     1      -3.006  -1.988  24.470  0.00  0.00    +0.210 C 
ATOM     19  C   UNL     1      -4.324  -2.057  23.745  0.00  0.00    +0.109 C 
ATOM     22  H   UNL     1      -3.636  -0.159  25.237  0.00  0.00    +0.149 HD
ENDBRANCH  13   6
ENDBRANCH  11  13
TORSDOF 7
ENDMDL
MODEL 5
REMARK VINA RESULT:      -5.7      2.078      4.368
REMARK  Name = 25390428
REMARK  10 active torsions:
REMARK  status: ('A' for Active; 'I' for Inactive)
REMARK    1  A    between atoms: O_2  and  C_8
REMARK    2  A    between atoms: O_3  and  C_10
REMARK    3  A    between atoms: N_6  and  C_13
REMARK    4  A    between atoms: N_7  and  C_15
REMARK    5  A    between atoms: C_9  and  C_12
REMARK    6  A    between atoms: C_11  and  C_13
REMARK    7  A    between atoms: C_12  and  C_14
REMARK    8  A    between atoms: C_15  and  C_17
REMARK    9  A    between atoms: C_15  and  C_18
REMARK   10  A    between atoms: C_16  and  C_19
REMARK                            x       y       z     vdW  Elec       q    Type
REMARK                         _______ _______ _______ _____ _____    ______ ____
ROOT
ATOM      1  O   UNL     1      -2.071   0.436  25.336  0.00  0.00    -0.366 OA
ATOM      8  C   UNL     1      -1.798  -1.622  24.216  0.00  0.00    +0.175 C 
ATOM      9  C   UNL     1      -2.707  -0.841  25.150  0.00  0.00    +0.158 C 
ATOM     10  C   UNL     1      -0.429  -1.146  24.657  0.00  0.00    +0.176 C 
ATOM     11  C   UNL     1      -0.683   0.330  24.945  0.00  0.00    +0.167 C 
ENDROOT
BRANCH   8   2
ATOM      2  O   UNL     1      -1.975  -3.016  24.345  0.00  0.00    -0.387 OA
ATOM     20  H   UNL     1      -1.296  -3.448  23.800  0.00  0.00    +0.210 HD
ENDBRANCH   8   2
BRANCH  10   3
ATOM      3  O   UNL     1      -0.056  -1.779  25.882  0.00  0.00    -0.387 OA
ATOM     21  H   UNL     1      -0.628  -1.418  26.581  0.00  0.00    +0.210 HD
ENDBRANCH  10   3
BRANCH   9  12
ATOM     12  C   UNL     1      -4.108  -0.640  24.600  0.00  0.00    +0.130 C 
BRANCH  12  14
ATOM      4  O   UNL     1      -5.550   0.819  25.880  0.00  0.00    -0.276 OA
ATOM      7  N   UNL     1      -4.175   1.734  24.245  0.00  0.00    -0.313 N 
ATOM     14  C   UNL     1      -4.704   0.696  24.999  0.00  0.00    +0.216 C 
ATOM     23  H   UNL     1      -3.434   1.530  23.580  0.00  0.00    +0.149 HD
BRANCH   7  15
ATOM     15  C   UNL     1      -4.568   3.114  24.417  0.00  0.00    +0.067 C 
ATOM     17  C   UNL     1      -4.028   3.964  23.275  0.00  0.00    +0.027 C 
ATOM     18  C   UNL     1      -4.099   3.640  25.768  0.00  0.00    +0.027 C 
ENDBRANCH   7  15
ENDBRANCH  12  14
ENDBRANCH   9  12
BRANCH  11  13
ATOM     13  C   UNL     1      -0.472   1.219  23.729  0.00  0.00    +0.138 C 
BRANCH  13   6
ATOM      5  O   UNL     1       0.428   2.900  25.919  0.00  0.00    -0.276 OA
ATOM      6  N   UNL     1      -0.856   2.572  24.003  0.00  0.00    -0.313 N 
ATOM     16  C   UNL     1      -0.373   3.306  25.081  0.00  0.00    +0.210 C 
ATOM     19  C   UNL     1      -0.920   4.708  25.119  0.00  0.00    +0.109 C 
ATOM     22  H   UNL     1      -1.506   3.017  23.359  0.00  0.00    +0.149 HD
ENDBRANCH  13   6
ENDBRANCH  11  13
TORSDOF 7
ENDMDL
MODEL 6
REMARK VINA RESULT:      -5.3      1.773      4.486
REMARK  Name = 25390428
REMARK  10 active torsions:
REMARK  status: ('A' for Active; 'I' for Inactive)
REMARK    1  A    between atoms: O_2  and  C_8
REMARK    2  A    between atoms: O_3  and  C_10
REMARK    3  A    between atoms: N_6  and  C_13
REMARK    4  A    between atoms: N_7  and  C_15
REMARK    5  A    between atoms: C_9  and  C_12
REMARK    6  A    between atoms: C_11  and  C_13
REMARK    7  A    between atoms: C_12  and  C_14
REMARK    8  A    between atoms: C_15  and  C_17
REMARK    9  A    between atoms: C_15  and  C_18
REMARK   10  A    between atoms: C_16  and  C_19
REMARK                            x       y       z     vdW  Elec       q    Type
REMARK                         _______ _______ _______ _____ _____    ______ ____
ROOT
ATOM      1  O   UNL     1      -2.912  -0.128  25.606  0.00  0.00    -0.366 OA
ATOM      8  C   UNL     1      -3.645  -1.551  23.874  0.00  0.00    +0.175 C 
ATOM      9  C   UNL     1      -4.072  -0.436  24.813  0.00  0.00    +0.158 C 
ATOM     10  C   UNL     1      -2.691  -2.337  24.750  0.00  0.00    +0.176 C 
ATOM     11  C   UNL     1      -1.978  -1.227  25.517  0.00  0.00    +0.167 C 
ENDROOT
BRANCH   8   2
ATOM      2  O   UNL     1      -4.742  -2.312  23.419  0.00  0.00    -0.387 OA
ATOM     20  H   UNL     1      -5.465  -2.194  24.058  0.00  0.00    +0.210 HD
ENDBRANCH   8   2
BRANCH  10   3
ATOM      3  O   UNL     1      -3.419  -3.127  25.689  0.00  0.00    -0.387 OA
ATOM     21  H   UNL     1      -3.943  -3.771  25.183  0.00  0.00    +0.210 HD
ENDBRANCH  10   3
BRANCH   9  12
ATOM     12  C   UNL     1      -4.545   0.813  24.090  0.00  0.00    +0.130 C 
BRANCH  12  14
ATOM      4  O   UNL     1      -5.499   2.217  25.812  0.00  0.00    -0.276 OA
ATOM      7  N   UNL     1      -3.520   2.872  24.785  0.00  0.00    -0.313 N 
ATOM     14  C   UNL     1      -4.600   2.027  24.998  0.00  0.00    +0.216 C 
ATOM     23  H   UNL     1      -2.799   2.589  24.127  0.00  0.00    +0.149 HD
BRANCH   7  15
ATOM     15  C   UNL     1      -3.325   4.103  25.516  0.00  0.00    +0.067 C 
ATOM     17  C   UNL     1      -2.220   4.930  24.873  0.00  0.00    +0.027 C 
ATOM     18  C   UNL     1      -3.020   3.813  26.980  0.00  0.00    +0.027 C 
ENDBRANCH   7  15
ENDBRANCH  12  14
ENDBRANCH   9  12
BRANCH  11  13
ATOM     13  C   UNL     1      -0.729  -0.723  24.810  0.00  0.00    +0.138 C 
BRANCH  13   6
ATOM      5  O   UNL     1      -0.810   2.035  23.905  0.00  0.00    -0.276 OA
ATOM      6  N   UNL     1      -0.188   0.428  25.472  0.00  0.00    -0.313 N 
ATOM     16  C   UNL     1      -0.273   1.719  24.963  0.00  0.00    +0.210 C 
ATOM     19  C   UNL     1       0.354   2.743  25.872  0.00  0.00    +0.109 C 
ATOM     22  H   UNL     1       0.265   0.284  26.370  0.00  0.00    +0.149 HD
ENDBRANCH  13   6
ENDBRANCH  11  13
TORSDOF 7
ENDMDL
MODEL 7
REMARK VINA RESULT:      -5.1      2.347      4.808
REMARK  Name = 25390428
REMARK  10 active torsions:
REMARK  status: ('A' for Active; 'I' for Inactive)
REMARK    1  A    between atoms: O_2  and  C_8
REMARK    2  A    between atoms: O_3  and  C_10
REMARK    3  A    between atoms: N_6  and  C_13
REMARK    4  A    between atoms: N_7  and  C_15
REMARK    5  A    between atoms: C_9  and  C_12
REMARK    6  A    between atoms: C_11  and  C_13
REMARK    7  A    between atoms: C_12  and  C_14
REMARK    8  A    between atoms: C_15  and  C_17
REMARK    9  A    between atoms: C_15  and  C_18
REMARK   10  A    between atoms: C_16  and  C_19
REMARK                            x       y       z     vdW  Elec       q    Type
REMARK                         _______ _______ _______ _____ _____    ______ ____
ROOT
ATOM      1  O   UNL     1      -2.087  -0.187  25.158  0.00  0.00    -0.366 OA
ATOM      8  C   UNL     1      -3.677  -1.414  23.922  0.00  0.00    +0.175 C 
ATOM      9  C   UNL     1      -3.468  -0.160  24.753  0.00  0.00    +0.158 C 
ATOM     10  C   UNL     1      -2.774  -2.402  24.630  0.00  0.00    +0.176 C 
ATOM     11  C   UNL     1      -1.579  -1.530  25.002  0.00  0.00    +0.167 C 
ENDROOT
BRANCH   8   2
ATOM      2  O   UNL     1      -5.030  -1.813  23.893  0.00  0.00    -0.387 OA
ATOM     20  H   UNL     1      -5.230  -2.230  24.748  0.00  0.00    +0.210 HD
ENDBRANCH   8   2
BRANCH  10   3
ATOM      3  O   UNL     1      -3.386  -2.853  25.839  0.00  0.00    -0.387 OA
ATOM     21  H   UNL     1      -3.565  -2.068  26.384  0.00  0.00    +0.210 HD
ENDBRANCH  10   3
BRANCH   9  12
ATOM     12  C   UNL     1      -3.753   1.123  23.993  0.00  0.00    +0.130 C 
BRANCH  12  14
ATOM      4  O   UNL     1      -1.911   1.985  22.685  0.00  0.00    -0.276 OA
ATOM      7  N   UNL     1      -2.136   2.650  24.900  0.00  0.00    -0.313 N 
ATOM     14  C   UNL     1      -2.505   1.952  23.759  0.00  0.00    +0.216 C 
ATOM     23  H   UNL     1      -2.734   2.599  25.721  0.00  0.00    +0.149 HD
BRANCH   7  15
ATOM     15  C   UNL     1      -0.982   3.518  24.957  0.00  0.00    +0.067 C 
ATOM     17  C   UNL     1      -0.005   3.029  26.017  0.00  0.00    +0.027 C 
ATOM     18  C   UNL     1      -1.408   4.958  25.218  0.00  0.00    +0.027 C 
ENDBRANCH   7  15
ENDBRANCH  12  14
ENDBRANCH   9  12
BRANCH  11  13
ATOM     13  C   UNL     1      -0.505  -1.501  23.923  0.00  0.00    +0.138 C 
BRANCH  13   6
ATOM      5  O   UNL     1       1.327  -0.425  21.945  0.00  0.00    -0.276 OA
ATOM      6  N   UNL     1       0.313  -0.331  24.040  0.00  0.00    -0.313 N 
ATOM     16  C   UNL     1       1.167   0.114  23.037  0.00  0.00    +0.210 C 
ATOM     19  C   UNL     1       1.890   1.381  23.410  0.00  0.00    +0.109 C 
ATOM     22  H   UNL     1       0.247   0.207  24.901  0.00  0.00    +0.149 HD
ENDBRANCH  13   6
ENDBRANCH  11  13
TORSDOF 7
ENDMDL
MODEL 8
REMARK VINA RESULT:      -5.0      2.728      6.059
REMARK  Name = 25390428
REMARK  10 active torsions:
REMARK  status: ('A' for Active; 'I' for Inactive)
REMARK    1  A    between atoms: O_2  and  C_8
REMARK    2  A    between atoms: O_3  and  C_10
REMARK    3  A    between atoms: N_6  and  C_13
REMARK    4  A    between atoms: N_7  and  C_15
REMARK    5  A    between atoms: C_9  and  C_12
REMARK    6  A    between atoms: C_11  and  C_13
REMARK    7  A    between atoms: C_12  and  C_14
REMARK    8  A    between atoms: C_15  and  C_17
REMARK    9  A    between atoms: C_15  and  C_18
REMARK   10  A    between atoms: C_16  and  C_19
REMARK                            x       y       z     vdW  Elec       q    Type
REMARK                         _______ _______ _______ _____ _____    ______ ____
ROOT
ATOM      1  O   UNL     1      -2.086   1.033  23.398  0.00  0.00    -0.366 OA
ATOM      8  C   UNL     1      -1.664   0.208  25.566  0.00  0.00    +0.175 C 
ATOM      9  C   UNL     1      -1.066   0.389  24.182  0.00  0.00    +0.158 C 
ATOM     10  C   UNL     1      -3.116  -0.071  25.236  0.00  0.00    +0.176 C 
ATOM     11  C   UNL     1      -3.360   0.868  24.060  0.00  0.00    +0.167 C 
ENDROOT
BRANCH   8   2
ATOM      2  O   UNL     1      -1.041  -0.837  26.281  0.00  0.00    -0.387 OA
ATOM     20  H   UNL     1      -1.661  -1.129  26.971  0.00  0.00    +0.210 HD
ENDBRANCH   8   2
BRANCH  10   3
ATOM      3  O   UNL     1      -3.267  -1.412  24.770  0.00  0.00    -0.387 OA
ATOM     21  H   UNL     1      -4.220  -1.584  24.682  0.00  0.00    +0.210 HD
ENDBRANCH  10   3
BRANCH   9  12
ATOM     12  C   UNL     1       0.195   1.235  24.175  0.00  0.00    +0.130 C 
BRANCH  12  14
ATOM      4  O   UNL     1       1.091  -0.289  22.524  0.00  0.00    -0.276 OA
ATOM      7  N   UNL     1       2.475   1.346  23.425  0.00  0.00    -0.313 N 
ATOM     14  C   UNL     1       1.276   0.662  23.278  0.00  0.00    +0.216 C 
ATOM     23  H   UNL     1       2.504   2.160  24.034  0.00  0.00    +0.149 HD
BRANCH   7  15
ATOM     15  C   UNL     1       3.672   1.008  22.690  0.00  0.00    +0.067 C 
ATOM     17  C   UNL     1       3.340   0.062  21.544  0.00  0.00    +0.027 C 
ATOM     18  C   UNL     1       4.718   0.405  23.620  0.00  0.00    +0.027 C 
ENDBRANCH   7  15
ENDBRANCH  12  14
ENDBRANCH   9  12
BRANCH  11  13
ATOM     13  C   UNL     1      -3.844   2.246  24.489  0.00  0.00    +0.138 C 
BRANCH  13   6
ATOM      5  O   UNL     1      -2.991   4.165  26.495  0.00  0.00    -0.276 OA
ATOM      6  N   UNL     1      -2.800   3.221  24.374  0.00  0.00    -0.313 N 
ATOM     16  C   UNL     1      -2.457   4.106  25.390  0.00  0.00    +0.210 C 
ATOM     19  C   UNL     1      -1.310   5.005  25.014  0.00  0.00    +0.109 C 
ATOM     22  H   UNL     1      -2.277   3.249  23.503  0.00  0.00    +0.149 HD
ENDBRANCH  13   6
ENDBRANCH  11  13
TORSDOF 7
ENDMDL
MODEL 9
REMARK VINA RESULT:      -4.7      1.905      4.502
REMARK  Name = 25390428
REMARK  10 active torsions:
REMARK  status: ('A' for Active; 'I' for Inactive)
REMARK    1  A    between atoms: O_2  and  C_8
REMARK    2  A    between atoms: O_3  and  C_10
REMARK    3  A    between atoms: N_6  and  C_13
REMARK    4  A    between atoms: N_7  and  C_15
REMARK    5  A    between atoms: C_9  and  C_12
REMARK    6  A    between atoms: C_11  and  C_13
REMARK    7  A    between atoms: C_12  and  C_14
REMARK    8  A    between atoms: C_15  and  C_17
REMARK    9  A    between atoms: C_15  and  C_18
REMARK   10  A    between atoms: C_16  and  C_19
REMARK                            x       y       z     vdW  Elec       q    Type
REMARK                         _______ _______ _______ _____ _____    ______ ____
ROOT
ATOM      1  O   UNL     1      -3.005   0.417  23.660  0.00  0.00    -0.366 OA
ATOM      8  C   UNL     1      -2.193  -1.474  24.811  0.00  0.00    +0.175 C 
ATOM      9  C   UNL     1      -1.887  -0.488  23.697  0.00  0.00    +0.158 C 
ATOM     10  C   UNL     1      -3.697  -1.613  24.689  0.00  0.00    +0.176 C 
ATOM     11  C   UNL     1      -4.120  -0.187  24.352  0.00  0.00    +0.167 C 
ENDROOT
BRANCH   8   2
ATOM      2  O   UNL     1      -1.504  -2.694  24.644  0.00  0.00    -0.387 OA
ATOM     20  H   UNL     1      -1.357  -3.070  25.529  0.00  0.00    +0.210 HD
ENDBRANCH   8   2
BRANCH  10   3
ATOM      3  O   UNL     1      -4.028  -2.447  23.579  0.00  0.00    -0.387 OA
ATOM     21  H   UNL     1      -4.391  -3.276  23.936  0.00  0.00    +0.210 HD
ENDBRANCH  10   3
BRANCH   9  12
ATOM     12  C   UNL     1      -0.604   0.293  23.919  0.00  0.00    +0.130 C 
BRANCH  12  14
ATOM      4  O   UNL     1      -0.736   1.008  26.225  0.00  0.00    -0.276 OA
ATOM      7  N   UNL     1      -0.826   2.603  24.538  0.00  0.00    -0.313 N 
ATOM     14  C   UNL     1      -0.727   1.312  25.036  0.00  0.00    +0.216 C 
ATOM     23  H   UNL     1      -0.748   2.750  23.535  0.00  0.00    +0.149 HD
BRANCH   7  15
ATOM     15  C   UNL     1      -0.956   3.768  25.383  0.00  0.00    +0.067 C 
ATOM     17  C   UNL     1      -2.362   3.849  25.960  0.00  0.00    +0.027 C 
ATOM     18  C   UNL     1      -0.601   5.032  24.609  0.00  0.00    +0.027 C 
ENDBRANCH   7  15
ENDBRANCH  12  14
ENDBRANCH   9  12
BRANCH  11  13
ATOM     13  C   UNL     1      -4.415   0.653  25.586  0.00  0.00    +0.138 C 
BRANCH  13   6
ATOM      5  O   UNL     1      -6.310   2.400  26.924  0.00  0.00    -0.276 OA
ATOM      6  N   UNL     1      -4.768   1.995  25.227  0.00  0.00    -0.313 N 
ATOM     16  C   UNL     1      -5.691   2.763  25.928  0.00  0.00    +0.210 C 
ATOM     19  C   UNL     1      -5.853   4.144  25.351  0.00  0.00    +0.109 C 
ATOM     22  H   UNL     1      -4.299   2.406  24.423  0.00  0.00    +0.149 HD
ENDBRANCH  13   6
ENDBRANCH  11  13
TORSDOF 7
ENDMDL
MODEL 10
REMARK VINA RESULT:      -4.4      1.320      4.375
REMARK  Name = 25390428
REMARK  10 active torsions:
REMARK  status: ('A' for Active; 'I' for Inactive)
REMARK    1  A    between atoms: O_2  and  C_8
REMARK    2  A    between atoms: O_3  and  C_10
REMARK    3  A    between atoms: N_6  and  C_13
REMARK    4  A    between atoms: N_7  and  C_15
REMARK    5  A    between atoms: C_9  and  C_12
REMARK    6  A    between atoms: C_11  and  C_13
REMARK    7  A    between atoms: C_12  and  C_14
REMARK    8  A    between atoms: C_15  and  C_17
REMARK    9  A    between atoms: C_15  and  C_18
REMARK   10  A    between atoms: C_16  and  C_19
REMARK                            x       y       z     vdW  Elec       q    Type
REMARK                         _______ _______ _______ _____ _____    ______ ____
ROOT
ATOM      1  O   UNL     1      -1.514   1.394  25.569  0.00  0.00    -0.366 OA
ATOM      8  C   UNL     1       0.309   2.245  24.338  0.00  0.00    +0.175 C 
ATOM      9  C   UNL     1      -0.418   0.973  24.737  0.00  0.00    +0.158 C 
ATOM     10  C   UNL     1       0.158   3.086  25.590  0.00  0.00    +0.176 C 
ATOM     11  C   UNL     1      -1.257   2.737  26.038  0.00  0.00    +0.167 C 
ENDROOT
BRANCH   8   2
ATOM      2  O   UNL     1       1.653   2.001  23.987  0.00  0.00    -0.387 OA
ATOM     20  H   UNL     1       1.877   2.598  23.253  0.00  0.00    +0.210 HD
ENDBRANCH   8   2
BRANCH  10   3
ATOM      3  O   UNL     1       1.065   2.639  26.598  0.00  0.00    -0.387 OA
ATOM     21  H   UNL     1       1.930   2.509  26.173  0.00  0.00    +0.210 HD
ENDBRANCH  10   3
BRANCH   9  12
ATOM     12  C   UNL     1      -0.948   0.184  23.553  0.00  0.00    +0.130 C 
BRANCH  12  14
ATOM      4  O   UNL     1      -3.355  -0.019  23.422  0.00  0.00    -0.276 OA
ATOM      7  N   UNL     1      -2.147  -1.605  24.616  0.00  0.00    -0.313 N 
ATOM     14  C   UNL     1      -2.289  -0.465  23.838  0.00  0.00    +0.216 C 
ATOM     23  H   UNL     1      -1.212  -1.921  24.857  0.00  0.00    +0.149 HD
BRANCH   7  15
ATOM     15  C   UNL     1      -3.266  -2.418  25.037  0.00  0.00    +0.067 C 
ATOM     17  C   UNL     1      -4.225  -2.639  23.876  0.00  0.00    +0.027 C 
ATOM     18  C   UNL     1      -3.973  -1.779  26.226  0.00  0.00    +0.027 C 
ENDBRANCH   7  15
ENDBRANCH  12  14
ENDBRANCH   9  12
BRANCH  11  13
ATOM     13  C   UNL     1      -2.314   3.652  25.437  0.00  0.00    +0.138 C 
BRANCH  13   6
ATOM      5  O   UNL     1      -5.010   3.518  26.508  0.00  0.00    -0.276 OA
ATOM      6  N   UNL     1      -3.420   2.898  24.923  0.00  0.00    -0.313 N 
ATOM     16  C   UNL     1      -4.684   2.892  25.503  0.00  0.00    +0.210 C 
ATOM     19  C   UNL     1      -5.665   2.037  24.747  0.00  0.00    +0.109 C 
ATOM     22  H   UNL     1      -3.266   2.354  24.078  0.00  0.00    +0.149 HD
ENDBRANCH  13   6
ENDBRANCH  11  13
TORSDOF 7
ENDMDL
