MODEL 1
REMARK VINA RESULT:       0.5      0.000      0.000
REMARK  Name = 51138146
REMARK  12 active torsions:
REMARK  status: ('A' for Active; 'I' for Inactive)
REMARK    1  A    between atoms: O_3  and  C_28
REMARK    2  A    between atoms: O_3  and  C_31
REMARK    3  A    between atoms: N_5  and  C_21
REMARK    4  A    between atoms: N_6  and  C_26
REMARK    5  A    between atoms: C_8  and  C_12
REMARK    6  A    between atoms: C_11  and  C_19
REMARK    7  A    between atoms: C_12  and  C_16
REMARK    8  A    between atoms: C_16  and  C_23
REMARK    9  A    between atoms: C_16  and  C_24
REMARK   10  A    between atoms: C_21  and  C_25
REMARK   11  A    between atoms: C_26  and  C_28
REMARK   12  A    between atoms: C_29  and  C_30
REMARK                            x       y       z     vdW  Elec       q    Type
REMARK                         _______ _______ _______ _____ _____    ______ ____
ROOT
ATOM      4  N   UNL     1      -3.087   1.336  25.355  0.00  0.00    -0.299 NA
ATOM      5  N   UNL     1       1.194   0.249  22.907  0.00  0.00    -0.340 N 
ATOM      8  C   UNL     1      -2.611   0.071  25.929  0.00  0.00    +0.085 C 
ATOM      9  C   UNL     1      -1.412  -0.575  25.226  0.00  0.00    -0.021 A 
ATOM     10  C   UNL     1      -0.539   0.090  24.316  0.00  0.00    +0.008 A 
ATOM     11  C   UNL     1      -2.131   2.432  25.422  0.00  0.00    +0.145 C 
ATOM     13  C   UNL     1      -0.464   1.432  23.803  0.00  0.00    -0.020 A 
ATOM     14  C   UNL     1      -1.358   2.584  24.114  0.00  0.00    +0.065 C 
ATOM     15  C   UNL     1       0.531  -0.611  23.749  0.00  0.00    +0.050 A 
ATOM     17  C   UNL     1       0.609   1.480  22.935  0.00  0.00    +0.091 A 
ATOM     18  C   UNL     1      -1.077  -1.915  25.546  0.00  0.00    +0.006 A 
ATOM     20  C   UNL     1       0.817  -1.946  24.043  0.00  0.00    +0.026 A 
ATOM     22  C   UNL     1      -0.001  -2.585  24.965  0.00  0.00    +0.002 A 
ATOM     32  H   UNL     1      -3.425   1.200  24.404  0.00  0.00    +0.123 HD
ENDROOT
BRANCH  11  19
ATOM      1  O   UNL     1      -2.613   4.535  26.441  0.00  0.00    -0.274 OA
ATOM      6  N   UNL     1      -4.120   3.658  24.899  0.00  0.00    -0.312 N 
ATOM     19  C   UNL     1      -2.957   3.660  25.650  0.00  0.00    +0.230 C 
ATOM     33  H   UNL     1      -4.300   2.888  24.260  0.00  0.00    +0.149 HD
BRANCH   6  26
ATOM     26  C   UNL     1      -5.100   4.718  24.953  0.00  0.00    +0.132 C 
BRANCH  26  28
ATOM     28  C   UNL     1      -6.336   4.296  25.727  0.00  0.00    +0.178 C 
BRANCH  28   3
ATOM      3  O   UNL     1      -6.140   2.990  26.255  0.00  0.00    -0.381 OA
ATOM     31  C   UNL     1      -6.478   1.989  25.306  0.00  0.00    +0.194 C 
ENDBRANCH  28   3
ENDBRANCH  26  28
ENDBRANCH   6  26
ENDBRANCH  11  19
BRANCH   8  12
ATOM     12  C   UNL     1      -3.850  -0.843  25.940  0.00  0.00    +0.026 C 
BRANCH  12  16
ATOM     16  C   UNL     1      -4.391  -1.134  24.537  0.00  0.00    -0.015 C 
ATOM     23  C   UNL     1      -3.870  -0.149  23.489  0.00  0.00    +0.007 C 
ATOM     24  C   UNL     1      -4.015  -2.561  24.137  0.00  0.00    +0.007 C 
ENDBRANCH  12  16
ENDBRANCH   8  12
BRANCH   5  21
ATOM     21  C   UNL     1       2.359  -0.080  22.113  0.00  0.00    +0.180 C 
BRANCH  21  25
ATOM      2  O   UNL     1       5.405   0.855  23.805  0.00  0.00    -0.360 OA
ATOM      7  N   UNL     1       4.274   1.151  23.055  0.00  0.00    -0.081 NA
ATOM     25  C   UNL     1       3.650  -0.019  22.891  0.00  0.00    +0.103 A 
ATOM     27  C   UNL     1       4.333  -1.079  23.512  0.00  0.00    +0.072 A 
ATOM     29  C   UNL     1       5.429  -0.476  24.071  0.00  0.00    +0.135 A 
ATOM     30  C   UNL     1       6.565  -0.965  24.862  0.00  0.00    +0.089 C 
ENDBRANCH  21  25
ENDBRANCH   5  21
TORSDOF 8
ENDMDL
MODEL 2
REMARK VINA RESULT:       2.8      1.563      7.930
REMARK  Name = 51138146
REMARK  12 active torsions:
REMARK  status: ('A' for Active; 'I' for Inactive)
REMARK    1  A    between atoms: O_3  and  C_28
REMARK    2  A    between atoms: O_3  and  C_31
REMARK    3  A    between atoms: N_5  and  C_21
REMARK    4  A    between atoms: N_6  and  C_26
REMARK    5  A    between atoms: C_8  and  C_12
REMARK    6  A    between atoms: C_11  and  C_19
REMARK    7  A    between atoms: C_12  and  C_16
REMARK    8  A    between atoms: C_16  and  C_23
REMARK    9  A    between atoms: C_16  and  C_24
REMARK   10  A    between atoms: C_21  and  C_25
REMARK   11  A    between atoms: C_26  and  C_28
REMARK   12  A    between atoms: C_29  and  C_30
REMARK                            x       y       z     vdW  Elec       q    Type
REMARK                         _______ _______ _______ _____ _____    ______ ____
ROOT
ATOM      4  N   UNL     1       0.760  -0.705  23.811  0.00  0.00    -0.299 NA
ATOM      5  N   UNL     1      -2.323   3.238  24.484  0.00  0.00    -0.340 N 
ATOM      8  C   UNL     1      -0.557  -1.143  23.331  0.00  0.00    +0.085 C 
ATOM      9  C   UNL     1      -1.720  -0.181  23.596  0.00  0.00    -0.021 A 
ATOM     10  C   UNL     1      -1.585   1.194  23.944  0.00  0.00    +0.008 A 
ATOM     11  C   UNL     1       1.272   0.499  23.171  0.00  0.00    +0.145 C 
ATOM     13  C   UNL     1      -0.461   2.071  24.135  0.00  0.00    -0.020 A 
ATOM     14  C   UNL     1       0.989   1.744  24.008  0.00  0.00    +0.065 C 
ATOM     15  C   UNL     1      -2.732   1.970  24.148  0.00  0.00    +0.050 A 
ATOM     17  C   UNL     1      -0.960   3.312  24.474  0.00  0.00    +0.091 A 
ATOM     18  C   UNL     1      -3.046  -0.653  23.414  0.00  0.00    +0.006 A 
ATOM     20  C   UNL     1      -4.029   1.475  24.009  0.00  0.00    +0.026 A 
ATOM     22  C   UNL     1      -4.168   0.148  23.624  0.00  0.00    +0.002 A 
ATOM     32  H   UNL     1       0.765  -0.613  24.826  0.00  0.00    +0.123 HD
ENDROOT
BRANCH  11  19
ATOM      1  O   UNL     1       3.497   1.152  22.610  0.00  0.00    -0.274 OA
ATOM      6  N   UNL     1       3.142  -0.948  23.550  0.00  0.00    -0.312 N 
ATOM     19  C   UNL     1       2.753   0.295  23.078  0.00  0.00    +0.230 C 
ATOM     33  H   UNL     1       2.443  -1.578  23.933  0.00  0.00    +0.149 HD
BRANCH   6  26
ATOM     26  C   UNL     1       4.514  -1.400  23.549  0.00  0.00    +0.132 C 
BRANCH  26  28
ATOM     28  C   UNL     1       5.353  -0.637  24.558  0.00  0.00    +0.178 C 
BRANCH  28   3
ATOM      3  O   UNL     1       6.256   0.219  23.870  0.00  0.00    -0.381 OA
ATOM     31  C   UNL     1       6.774  -0.401  22.702  0.00  0.00    +0.194 C 
ENDBRANCH  28   3
ENDBRANCH  26  28
ENDBRANCH   6  26
ENDBRANCH  11  19
BRANCH   8  12
ATOM     12  C   UNL     1      -0.770  -2.521  23.983  0.00  0.00    +0.026 C 
BRANCH  12  16
ATOM     16  C   UNL     1      -1.267  -2.429  25.429  0.00  0.00    -0.015 C 
ATOM     23  C   UNL     1      -0.937  -1.086  26.080  0.00  0.00    +0.007 C 
ATOM     24  C   UNL     1      -2.779  -2.659  25.458  0.00  0.00    +0.007 C 
ENDBRANCH  12  16
ENDBRANCH   8  12
BRANCH   5  21
ATOM     21  C   UNL     1      -3.195   4.353  24.788  0.00  0.00    +0.180 C 
BRANCH  21  25
ATOM      2  O   UNL     1      -6.588   4.071  25.981  0.00  0.00    -0.360 OA
ATOM      7  N   UNL     1      -5.562   4.754  25.339  0.00  0.00    -0.081 NA
ATOM     25  C   UNL     1      -4.509   3.934  25.399  0.00  0.00    +0.103 A 
ATOM     27  C   UNL     1      -4.808   2.730  26.059  0.00  0.00    +0.072 A 
ATOM     29  C   UNL     1      -6.126   2.867  26.406  0.00  0.00    +0.135 A 
ATOM     30  C   UNL     1      -7.087   2.009  27.109  0.00  0.00    +0.089 C 
ENDBRANCH  21  25
ENDBRANCH   5  21
TORSDOF 8
ENDMDL
MODEL 3
REMARK VINA RESULT:       3.5      1.665      2.642
REMARK  Name = 51138146
REMARK  12 active torsions:
REMARK  status: ('A' for Active; 'I' for Inactive)
REMARK    1  A    between atoms: O_3  and  C_28
REMARK    2  A    between atoms: O_3  and  C_31
REMARK    3  A    between atoms: N_5  and  C_21
REMARK    4  A    between atoms: N_6  and  C_26
REMARK    5  A    between atoms: C_8  and  C_12
REMARK    6  A    between atoms: C_11  and  C_19
REMARK    7  A    between atoms: C_12  and  C_16
REMARK    8  A    between atoms: C_16  and  C_23
REMARK    9  A    between atoms: C_16  and  C_24
REMARK   10  A    between atoms: C_21  and  C_25
REMARK   11  A    between atoms: C_26  and  C_28
REMARK   12  A    between atoms: C_29  and  C_30
REMARK                            x       y       z     vdW  Elec       q    Type
REMARK                         _______ _______ _______ _____ _____    ______ ____
ROOT
ATOM      4  N   UNL     1      -3.387   2.242  24.965  0.00  0.00    -0.299 NA
ATOM      5  N   UNL     1       0.533  -0.638  23.608  0.00  0.00    -0.340 N 
ATOM      8  C   UNL     1      -3.757   0.868  25.331  0.00  0.00    +0.085 C 
ATOM      9  C   UNL     1      -2.803  -0.232  24.853  0.00  0.00    -0.021 A 
ATOM     10  C   UNL     1      -1.468  -0.021  24.404  0.00  0.00    +0.008 A 
ATOM     11  C   UNL     1      -2.140   2.712  25.552  0.00  0.00    +0.145 C 
ATOM     13  C   UNL     1      -0.631   1.141  24.266  0.00  0.00    -0.020 A 
ATOM     14  C   UNL     1      -0.971   2.558  24.582  0.00  0.00    +0.065 C 
ATOM     15  C   UNL     1      -0.693  -1.117  24.005  0.00  0.00    +0.050 A 
ATOM     17  C   UNL     1       0.583   0.716  23.765  0.00  0.00    +0.091 A 
ATOM     18  C   UNL     1      -3.233  -1.582  24.925  0.00  0.00    +0.006 A 
ATOM     20  C   UNL     1      -1.151  -2.435  24.040  0.00  0.00    +0.026 A 
ATOM     22  C   UNL     1      -2.435  -2.651  24.522  0.00  0.00    +0.002 A 
ATOM     32  H   UNL     1      -3.386   2.362  23.954  0.00  0.00    +0.123 HD
ENDROOT
BRANCH  11  19
ATOM      1  O   UNL     1      -3.207   4.554  26.630  0.00  0.00    -0.274 OA
ATOM      6  N   UNL     1      -1.533   4.978  25.070  0.00  0.00    -0.312 N 
ATOM     19  C   UNL     1      -2.361   4.168  25.828  0.00  0.00    +0.230 C 
ATOM     33  H   UNL     1      -0.853   4.552  24.446  0.00  0.00    +0.149 HD
BRANCH   6  26
ATOM     26  C   UNL     1      -1.563   6.421  25.133  0.00  0.00    +0.132 C 
BRANCH  26  28
ATOM     28  C   UNL     1      -2.454   7.007  24.053  0.00  0.00    +0.178 C 
BRANCH  28   3
ATOM      3  O   UNL     1      -2.979   5.957  23.251  0.00  0.00    -0.381 OA
ATOM     31  C   UNL     1      -4.399   5.958  23.255  0.00  0.00    +0.194 C 
ENDBRANCH  28   3
ENDBRANCH  26  28
ENDBRANCH   6  26
ENDBRANCH  11  19
BRANCH   8  12
ATOM     12  C   UNL     1      -5.185   0.690  24.782  0.00  0.00    +0.026 C 
BRANCH  12  16
ATOM     16  C   UNL     1      -6.200   1.630  25.440  0.00  0.00    -0.015 C 
ATOM     23  C   UNL     1      -6.310   1.414  26.950  0.00  0.00    +0.007 C 
ATOM     24  C   UNL     1      -5.805   3.080  25.153  0.00  0.00    +0.007 C 
ENDBRANCH  12  16
ENDBRANCH   8  12
BRANCH   5  21
ATOM     21  C   UNL     1       1.630  -1.441  23.112  0.00  0.00    +0.180 C 
BRANCH  21  25
ATOM      2  O   UNL     1       4.382   0.832  22.585  0.00  0.00    -0.360 OA
ATOM      7  N   UNL     1       3.068   0.423  22.387  0.00  0.00    -0.081 NA
ATOM     25  C   UNL     1       2.947  -0.706  23.091  0.00  0.00    +0.103 A 
ATOM     27  C   UNL     1       4.140  -1.055  23.749  0.00  0.00    +0.072 A 
ATOM     29  C   UNL     1       5.009  -0.056  23.397  0.00  0.00    +0.135 A 
ATOM     30  C   UNL     1       6.415   0.225  23.713  0.00  0.00    +0.089 C 
ENDBRANCH  21  25
ENDBRANCH   5  21
TORSDOF 8
ENDMDL
MODEL 4
REMARK VINA RESULT:       3.8      2.104      4.657
REMARK  Name = 51138146
REMARK  12 active torsions:
REMARK  status: ('A' for Active; 'I' for Inactive)
REMARK    1  A    between atoms: O_3  and  C_28
REMARK    2  A    between atoms: O_3  and  C_31
REMARK    3  A    between atoms: N_5  and  C_21
REMARK    4  A    between atoms: N_6  and  C_26
REMARK    5  A    between atoms: C_8  and  C_12
REMARK    6  A    between atoms: C_11  and  C_19
REMARK    7  A    between atoms: C_12  and  C_16
REMARK    8  A    between atoms: C_16  and  C_23
REMARK    9  A    between atoms: C_16  and  C_24
REMARK   10  A    between atoms: C_21  and  C_25
REMARK   11  A    between atoms: C_26  and  C_28
REMARK   12  A    between atoms: C_29  and  C_30
REMARK                            x       y       z     vdW  Elec       q    Type
REMARK                         _______ _______ _______ _____ _____    ______ ____
ROOT
ATOM      4  N   UNL     1      -3.694   1.535  25.207  0.00  0.00    -0.299 NA
ATOM      5  N   UNL     1       1.025   2.133  23.510  0.00  0.00    -0.340 N 
ATOM      8  C   UNL     1      -3.511   2.982  25.042  0.00  0.00    +0.085 C 
ATOM      9  C   UNL     1      -2.088   3.444  24.708  0.00  0.00    -0.021 A 
ATOM     10  C   UNL     1      -1.046   2.603  24.223  0.00  0.00    +0.008 A 
ATOM     11  C   UNL     1      -3.446   0.750  24.005  0.00  0.00    +0.145 C 
ATOM     13  C   UNL     1      -0.959   1.204  23.898  0.00  0.00    -0.020 A 
ATOM     14  C   UNL     1      -2.033   0.173  23.993  0.00  0.00    +0.065 C 
ATOM     15  C   UNL     1       0.210   3.152  23.942  0.00  0.00    +0.050 A 
ATOM     17  C   UNL     1       0.331   0.959  23.475  0.00  0.00    +0.091 A 
ATOM     18  C   UNL     1      -1.781   4.825  24.809  0.00  0.00    +0.006 A 
ATOM     20  C   UNL     1       0.506   4.508  24.092  0.00  0.00    +0.026 A 
ATOM     22  C   UNL     1      -0.519   5.341  24.519  0.00  0.00    +0.002 A 
ATOM     32  H   UNL     1      -3.149   1.186  25.993  0.00  0.00    +0.123 HD
ENDROOT
BRANCH  11  19
ATOM      1  O   UNL     1      -5.554  -0.229  24.546  0.00  0.00    -0.274 OA
ATOM      6  N   UNL     1      -3.927  -1.547  23.529  0.00  0.00    -0.312 N 
ATOM     19  C   UNL     1      -4.436  -0.373  24.059  0.00  0.00    +0.230 C 
ATOM     33  H   UNL     1      -2.991  -1.552  23.135  0.00  0.00    +0.149 HD
BRANCH   6  26
ATOM     26  C   UNL     1      -4.673  -2.783  23.483  0.00  0.00    +0.132 C 
BRANCH  26  28
ATOM     28  C   UNL     1      -3.989  -3.879  24.280  0.00  0.00    +0.178 C 
BRANCH  28   3
ATOM      3  O   UNL     1      -3.210  -3.293  25.315  0.00  0.00    -0.381 OA
ATOM     31  C   UNL     1      -1.894  -2.994  24.872  0.00  0.00    +0.194 C 
ENDBRANCH  28   3
ENDBRANCH  26  28
ENDBRANCH   6  26
ENDBRANCH  11  19
BRANCH   8  12
ATOM     12  C   UNL     1      -4.036   3.593  26.355  0.00  0.00    +0.026 C 
BRANCH  12  16
ATOM     16  C   UNL     1      -5.555   3.788  26.358  0.00  0.00    -0.015 C 
ATOM     23  C   UNL     1      -6.016   4.835  25.343  0.00  0.00    +0.007 C 
ATOM     24  C   UNL     1      -6.237   2.450  26.065  0.00  0.00    +0.007 C 
ENDBRANCH  12  16
ENDBRANCH   8  12
BRANCH   5  21
ATOM     21  C   UNL     1       2.413   2.269  23.125  0.00  0.00    +0.180 C 
BRANCH  21  25
ATOM      2  O   UNL     1       3.589  -1.141  23.160  0.00  0.00    -0.360 OA
ATOM      7  N   UNL     1       2.605  -0.181  22.957  0.00  0.00    -0.081 NA
ATOM     25  C   UNL     1       3.195   0.984  23.240  0.00  0.00    +0.103 A 
ATOM     27  C   UNL     1       4.538   0.824  23.621  0.00  0.00    +0.072 A 
ATOM     29  C   UNL     1       4.735  -0.530  23.555  0.00  0.00    +0.135 A 
ATOM     30  C   UNL     1       5.886  -1.404  23.814  0.00  0.00    +0.089 C 
ENDBRANCH  21  25
ENDBRANCH   5  21
TORSDOF 8
ENDMDL
