MODEL 1
REMARK VINA RESULT:       5.0      0.000      0.000
REMARK  Name = 45784377
REMARK  14 active torsions:
REMARK  status: ('A' for Active; 'I' for Inactive)
REMARK    1  A    between atoms: O_1  and  C_11
REMARK    2  A    between atoms: O_4  and  C_24
REMARK    3  A    between atoms: O_4  and  C_27
REMARK    4  A    between atoms: O_5  and  C_34
REMARK    5  A    between atoms: O_5  and  C_38
REMARK    6  A    between atoms: N_6  and  C_15
REMARK    7  A    between atoms: N_7  and  C_25
REMARK    8  A    between atoms: C_8  and  C_18
REMARK    9  A    between atoms: C_10  and  C_20
REMARK   10  A    between atoms: C_14  and  C_19
REMARK   11  A    between atoms: C_19  and  C_21
REMARK   12  A    between atoms: C_19  and  C_22
REMARK   13  A    between atoms: C_23  and  C_24
REMARK   14  A    between atoms: C_25  and  C_26
REMARK                            x       y       z     vdW  Elec       q    Type
REMARK                         _______ _______ _______ _____ _____    ______ ____
ROOT
ATOM      8  C   UNL     1      -2.377  -0.839  25.331  0.00  0.00    -0.027 C 
ATOM      9  C   UNL     1      -2.615   0.166  24.155  0.00  0.00    +0.028 C 
ATOM     10  C   UNL     1      -1.249   0.696  23.589  0.00  0.00    +0.012 C 
ATOM     11  C   UNL     1      -3.647   1.261  24.550  0.00  0.00    +0.122 C 
ATOM     12  C   UNL     1      -3.733  -1.429  25.787  0.00  0.00    +0.007 C 
ATOM     13  C   UNL     1      -1.503  -2.010  24.825  0.00  0.00    +0.009 C 
ATOM     14  C   UNL     1      -4.962   0.667  25.105  0.00  0.00    +0.029 C 
ATOM     15  C   UNL     1      -0.348  -0.493  23.154  0.00  0.00    +0.076 C 
ATOM     16  C   UNL     1      -4.733  -0.360  26.213  0.00  0.00    +0.007 C 
ATOM     17  C   UNL     1      -0.174  -1.554  24.240  0.00  0.00    +0.023 C 
ATOM     18  C   UNL     1      -1.687  -0.176  26.549  0.00  0.00    +0.011 C 
ATOM     20  C   UNL     1      -1.408   1.670  22.409  0.00  0.00    +0.010 C 
ENDROOT
BRANCH  15   6
ATOM      3  O   UNL     1       0.881  -0.868  20.562  0.00  0.00    -0.272 OA
ATOM      6  N   UNL     1       0.964  -0.045  22.736  0.00  0.00    -0.309 N 
ATOM     23  C   UNL     1       1.465  -0.275  21.465  0.00  0.00    +0.251 C 
ATOM     39  H   UNL     1       1.560   0.401  23.428  0.00  0.00    +0.149 HD
BRANCH  23  24
ATOM     24  C   UNL     1       2.855   0.301  21.302  0.00  0.00    +0.324 C 
BRANCH  24   4
ATOM      4  O   UNL     1       3.305   0.866  22.515  0.00  0.00    -0.483 OA
BRANCH   4  27
ATOM     27  C   UNL     1       4.278   0.180  23.204  0.00  0.00    +0.121 A 
ATOM     30  C   UNL     1       4.092  -1.167  23.519  0.00  0.00    +0.045 A 
ATOM     31  C   UNL     1       5.451   0.830  23.588  0.00  0.00    +0.045 A 
ATOM     35  C   UNL     1       5.079  -1.862  24.217  0.00  0.00    +0.004 A 
ATOM     36  C   UNL     1       6.437   0.134  24.287  0.00  0.00    +0.004 A 
ATOM     37  C   UNL     1       6.251  -1.212  24.601  0.00  0.00    +0.000 A 
ENDBRANCH   4  27
ENDBRANCH  24   4
ENDBRANCH  23  24
ENDBRANCH  15   6
BRANCH  11   1
ATOM      1  O   UNL     1      -3.998   2.024  23.395  0.00  0.00    -0.391 OA
ATOM     40  H   UNL     1      -4.278   2.907  23.689  0.00  0.00    +0.210 HD
ENDBRANCH  11   1
BRANCH  14  19
ATOM     19  C   UNL     1      -5.913   1.760  25.609  0.00  0.00    +0.077 C 
ATOM     21  C   UNL     1      -7.107   1.892  24.670  0.00  0.00    +0.017 C 
BRANCH  19  22
ATOM      2  O   UNL     1      -5.441   4.074  25.075  0.00  0.00    -0.276 OA
ATOM      7  N   UNL     1      -4.148   3.023  26.688  0.00  0.00    -0.311 N 
ATOM     22  C   UNL     1      -5.161   3.081  25.742  0.00  0.00    +0.216 C 
ATOM     41  H   UNL     1      -4.014   2.180  27.237  0.00  0.00    +0.149 HD
BRANCH   7  25
ATOM     25  C   UNL     1      -3.296   4.151  26.991  0.00  0.00    +0.139 C 
BRANCH  25  26
ATOM     26  C   UNL     1      -2.181   4.294  25.997  0.00  0.00    -0.030 A 
ATOM     28  C   UNL     1      -2.141   5.399  25.146  0.00  0.00    +0.009 A 
ATOM     29  C   UNL     1      -1.183   3.320  25.923  0.00  0.00    +0.009 A 
ATOM     32  C   UNL     1      -1.104   5.530  24.223  0.00  0.00    +0.046 A 
ATOM     33  C   UNL     1      -0.147   3.453  25.000  0.00  0.00    +0.046 A 
ATOM     34  C   UNL     1      -0.107   4.558  24.149  0.00  0.00    +0.120 A 
BRANCH  34   5
ATOM      5  O   UNL     1       0.905   4.687  23.248  0.00  0.00    -0.495 OA
ATOM     38  C   UNL     1       0.753   5.685  22.240  0.00  0.00    +0.277 C 
ENDBRANCH  34   5
ENDBRANCH  25  26
ENDBRANCH   7  25
ENDBRANCH  19  22
ENDBRANCH  14  19
TORSDOF 10
ENDMDL
MODEL 2
REMARK VINA RESULT:       8.5      1.789      4.564
REMARK  Name = 45784377
REMARK  14 active torsions:
REMARK  status: ('A' for Active; 'I' for Inactive)
REMARK    1  A    between atoms: O_1  and  C_11
REMARK    2  A    between atoms: O_4  and  C_24
REMARK    3  A    between atoms: O_4  and  C_27
REMARK    4  A    between atoms: O_5  and  C_34
REMARK    5  A    between atoms: O_5  and  C_38
REMARK    6  A    between atoms: N_6  and  C_15
REMARK    7  A    between atoms: N_7  and  C_25
REMARK    8  A    between atoms: C_8  and  C_18
REMARK    9  A    between atoms: C_10  and  C_20
REMARK   10  A    between atoms: C_14  and  C_19
REMARK   11  A    between atoms: C_19  and  C_21
REMARK   12  A    between atoms: C_19  and  C_22
REMARK   13  A    between atoms: C_23  and  C_24
REMARK   14  A    between atoms: C_25  and  C_26
REMARK                            x       y       z     vdW  Elec       q    Type
REMARK                         _______ _______ _______ _____ _____    ______ ____
ROOT
ATOM      8  C   UNL     1      -2.528   4.078  24.619  0.00  0.00    -0.027 C 
ATOM      9  C   UNL     1      -2.522   2.735  25.422  0.00  0.00    +0.028 C 
ATOM     10  C   UNL     1      -1.436   1.751  24.856  0.00  0.00    +0.012 C 
ATOM     11  C   UNL     1      -3.957   2.147  25.548  0.00  0.00    +0.122 C 
ATOM     12  C   UNL     1      -3.526   5.064  25.273  0.00  0.00    +0.007 C 
ATOM     13  C   UNL     1      -1.121   4.716  24.692  0.00  0.00    +0.009 C 
ATOM     14  C   UNL     1      -4.973   3.171  26.103  0.00  0.00    +0.029 C 
ATOM     15  C   UNL     1      -0.037   2.430  24.864  0.00  0.00    +0.076 C 
ATOM     16  C   UNL     1      -4.941   4.506  25.361  0.00  0.00    +0.007 C 
ATOM     17  C   UNL     1      -0.021   3.797  24.181  0.00  0.00    +0.023 C 
ATOM     18  C   UNL     1      -2.923   3.881  23.134  0.00  0.00    +0.011 C 
ATOM     20  C   UNL     1      -1.355   0.418  25.618  0.00  0.00    +0.010 C 
ENDROOT
BRANCH  15   6
ATOM      3  O   UNL     1      -0.362   0.758  22.527  0.00  0.00    -0.272 OA
ATOM      6  N   UNL     1       0.968   1.595  24.241  0.00  0.00    -0.309 N 
ATOM     23  C   UNL     1       0.712   0.827  23.118  0.00  0.00    +0.251 C 
ATOM     39  H   UNL     1       1.878   1.527  24.689  0.00  0.00    +0.149 HD
BRANCH  23  24
ATOM     24  C   UNL     1       1.938   0.054  22.681  0.00  0.00    +0.324 C 
BRANCH  24   4
ATOM      4  O   UNL     1       3.096   0.853  22.794  0.00  0.00    -0.483 OA
BRANCH   4  27
ATOM     27  C   UNL     1       4.232   0.247  23.277  0.00  0.00    +0.121 A 
ATOM     30  C   UNL     1       5.405   0.987  23.434  0.00  0.00    +0.045 A 
ATOM     31  C   UNL     1       4.212  -1.107  23.611  0.00  0.00    +0.045 A 
ATOM     35  C   UNL     1       6.557   0.372  23.924  0.00  0.00    +0.004 A 
ATOM     36  C   UNL     1       5.365  -1.721  24.101  0.00  0.00    +0.004 A 
ATOM     37  C   UNL     1       6.537  -0.982  24.257  0.00  0.00    +0.000 A 
ENDBRANCH   4  27
ENDBRANCH  24   4
ENDBRANCH  23  24
ENDBRANCH  15   6
BRANCH  11   1
ATOM      1  O   UNL     1      -3.944   1.048  26.460  0.00  0.00    -0.391 OA
ATOM     40  H   UNL     1      -3.553   1.354  27.296  0.00  0.00    +0.210 HD
ENDBRANCH  11   1
BRANCH  14  19
ATOM     19  C   UNL     1      -6.403   2.616  26.097  0.00  0.00    +0.077 C 
ATOM     21  C   UNL     1      -6.750   2.044  27.467  0.00  0.00    +0.017 C 
BRANCH  19  22
ATOM      2  O   UNL     1      -7.407   1.631  24.126  0.00  0.00    -0.276 OA
ATOM      7  N   UNL     1      -5.610   0.548  25.114  0.00  0.00    -0.311 N 
ATOM     22  C   UNL     1      -6.547   1.564  25.002  0.00  0.00    +0.216 C 
ATOM     41  H   UNL     1      -4.897   0.593  25.835  0.00  0.00    +0.149 HD
BRANCH   7  25
ATOM     25  C   UNL     1      -5.547  -0.564  24.193  0.00  0.00    +0.139 C 
BRANCH  25  26
ATOM     26  C   UNL     1      -4.234  -1.287  24.274  0.00  0.00    -0.030 A 
ATOM     28  C   UNL     1      -3.228  -1.013  23.348  0.00  0.00    +0.009 A 
ATOM     29  C   UNL     1      -4.021  -2.234  25.277  0.00  0.00    +0.009 A 
ATOM     32  C   UNL     1      -2.009  -1.685  23.425  0.00  0.00    +0.046 A 
ATOM     33  C   UNL     1      -2.802  -2.906  25.353  0.00  0.00    +0.046 A 
ATOM     34  C   UNL     1      -1.795  -2.632  24.427  0.00  0.00    +0.120 A 
BRANCH  34   5
ATOM      5  O   UNL     1      -0.605  -3.287  24.501  0.00  0.00    -0.495 OA
ATOM     38  C   UNL     1       0.377  -2.751  25.387  0.00  0.00    +0.277 C 
ENDBRANCH  34   5
ENDBRANCH  25  26
ENDBRANCH   7  25
ENDBRANCH  19  22
ENDBRANCH  14  19
TORSDOF 10
ENDMDL
