MODEL 1
REMARK VINA RESULT:      -2.6      0.000      0.000
REMARK  Name = 45783290
REMARK  6 active torsions:
REMARK  status: ('A' for Active; 'I' for Inactive)
REMARK    1  A    between atoms: O_4  and  C_29
REMARK    2  A    between atoms: N_5  and  C_14
REMARK    3  A    between atoms: C_10  and  C_15
REMARK    4  A    between atoms: C_14  and  C_16
REMARK    5  A    between atoms: C_17  and  C_21
REMARK    6  A    between atoms: C_22  and  C_29
REMARK                            x       y       z     vdW  Elec       q    Type
REMARK                         _______ _______ _______ _____ _____    ______ ____
ROOT
ATOM      1  O   UNL     1      17.266  -5.040  24.504  0.00  0.00    -0.336 OA
ATOM      6  N   UNL     1      15.665  -4.910  26.065  0.00  0.00    -0.190 NA
ATOM      8  N   UNL     1      17.275  -6.269  25.176  0.00  0.00    -0.056 NA
ATOM     15  C   UNL     1      16.290  -4.299  25.091  0.00  0.00    +0.245 A 
ATOM     17  C   UNL     1      16.304  -6.115  26.080  0.00  0.00    +0.202 A 
ENDROOT
BRANCH  17  21
ATOM      3  O   UNL     1      12.733  -7.072  32.541  0.00  0.00    -0.377 OA
ATOM      7  N   UNL     1      14.253  -7.513  30.219  0.00  0.00    -0.311 N 
ATOM      9  N   UNL     1      15.254  -9.150  28.834  0.00  0.00    -0.240 NA
ATOM     19  C   UNL     1      12.939  -6.868  30.132  0.00  0.00    +0.134 C 
ATOM     20  C   UNL     1      14.468  -8.338  31.415  0.00  0.00    +0.134 C 
ATOM     21  C   UNL     1      15.950  -7.144  27.015  0.00  0.00    +0.027 A 
ATOM     23  C   UNL     1      14.942  -7.852  29.049  0.00  0.00    +0.122 A 
ATOM     25  C   UNL     1      12.622  -6.164  31.447  0.00  0.00    +0.178 C 
ATOM     26  C   UNL     1      14.072  -7.555  32.660  0.00  0.00    +0.178 C 
ATOM     27  C   UNL     1      15.263  -6.821  28.180  0.00  0.00    +0.055 A 
ATOM     28  C   UNL     1      16.289  -8.467  26.757  0.00  0.00    +0.031 A 
ATOM     30  C   UNL     1      15.922  -9.424  27.690  0.00  0.00    +0.113 A 
ENDBRANCH  17  21
BRANCH  15  10
ATOM      5  N   UNL     1      16.960  -1.903  25.163  0.00  0.00    -0.284 NA
ATOM     10  C   UNL     1      16.075  -2.906  24.536  0.00  0.00    +0.146 C 
ATOM     11  C   UNL     1      16.384  -2.812  23.031  0.00  0.00    +0.030 C 
ATOM     12  C   UNL     1      17.405  -1.690  22.903  0.00  0.00    +0.017 C 
ATOM     13  C   UNL     1      17.189  -0.867  24.156  0.00  0.00    +0.085 C 
BRANCH   5  14
ATOM     14  C   UNL     1      16.420  -1.354  26.401  0.00  0.00    +0.159 C 
BRANCH  14  16
ATOM      2  O   UNL     1      16.382  -1.735  28.805  0.00  0.00    -0.461 OA
ATOM     16  C   UNL     1      16.758  -2.214  27.590  0.00  0.00    +0.119 A 
ATOM     18  C   UNL     1      17.390  -3.428  27.723  0.00  0.00    +0.046 A 
ATOM     22  C   UNL     1      16.779  -2.653  29.725  0.00  0.00    +0.131 A 
ATOM     24  C   UNL     1      17.404  -3.714  29.110  0.00  0.00    +0.047 A 
BRANCH  22  29
ATOM     29  C   UNL     1      16.473  -2.343  31.128  0.00  0.00    +0.230 C 
BRANCH  29   4
ATOM      4  O   UNL     1      16.273  -0.936  31.291  0.00  0.00    -0.387 OA
ATOM     31  H   UNL     1      15.947  -0.596  30.441  0.00  0.00    +0.210 HD
ENDBRANCH  29   4
ENDBRANCH  22  29
ENDBRANCH  14  16
ENDBRANCH   5  14
ENDBRANCH  15  10
TORSDOF 6
ENDMDL
