MODEL 1
REMARK VINA RESULT:       0.6      0.000      0.000
REMARK  Name = 25338983
REMARK  8 active torsions:
REMARK  status: ('A' for Active; 'I' for Inactive)
REMARK    1  A    between atoms: O_2  and  C_16
REMARK    2  A    between atoms: O_2  and  C_26
REMARK    3  A    between atoms: O_5  and  C_27
REMARK    4  A    between atoms: O_5  and  C_31
REMARK    5  A    between atoms: N_7  and  C_14
REMARK    6  A    between atoms: C_9  and  C_16
REMARK    7  A    between atoms: C_14  and  C_18
REMARK    8  A    between atoms: C_17  and  C_19
REMARK                            x       y       z     vdW  Elec       q    Type
REMARK                         _______ _______ _______ _____ _____    ______ ____
ROOT
ATOM      4  O   UNL     1       1.313   1.980  25.827  0.00  0.00    -0.270 OA
ATOM      6  N   UNL     1      -0.349   0.691  24.789  0.00  0.00    -0.278 N 
ATOM      7  N   UNL     1      -3.495  -1.151  23.931  0.00  0.00    -0.328 N 
ATOM      8  N   UNL     1      -2.399  -2.949  24.673  0.00  0.00    -0.240 NA
ATOM      9  C   UNL     1       0.510  -0.521  24.744  0.00  0.00    +0.191 C 
ATOM     10  C   UNL     1      -0.195  -1.820  25.192  0.00  0.00    +0.091 C 
ATOM     11  C   UNL     1      -2.245  -0.726  24.267  0.00  0.00    +0.059 A 
ATOM     12  C   UNL     1      -1.699   0.640  24.156  0.00  0.00    +0.164 C 
ATOM     13  C   UNL     1      -1.592  -1.846  24.716  0.00  0.00    +0.066 A 
ATOM     15  C   UNL     1      -3.540  -2.496  24.194  0.00  0.00    +0.200 A 
ATOM     17  C   UNL     1       0.208   1.877  25.296  0.00  0.00    +0.248 C 
ENDROOT
BRANCH  17  19
ATOM      1  F   UNL     1      -2.787   6.590  24.894  0.00  0.00    -0.205 F 
ATOM     19  C   UNL     1      -0.579   3.114  25.191  0.00  0.00    +0.037 A 
ATOM     22  C   UNL     1      -1.590   3.378  26.113  0.00  0.00    +0.016 A 
ATOM     23  C   UNL     1      -0.313   4.025  24.168  0.00  0.00    +0.016 A 
ATOM     28  C   UNL     1      -2.336   4.552  26.014  0.00  0.00    +0.039 A 
ATOM     29  C   UNL     1      -1.059   5.199  24.067  0.00  0.00    +0.039 A 
ATOM     30  C   UNL     1      -2.072   5.462  24.991  0.00  0.00    +0.123 A 
ENDBRANCH  17  19
BRANCH   9  16
ATOM      3  O   UNL     1       0.304  -0.665  22.346  0.00  0.00    -0.249 OA
ATOM     16  C   UNL     1       1.022  -0.613  23.335  0.00  0.00    +0.328 C 
BRANCH  16   2
ATOM      2  O   UNL     1       2.386  -0.628  23.346  0.00  0.00    -0.467 OA
ATOM     26  C   UNL     1       3.018   0.494  22.722  0.00  0.00    +0.280 C 
ENDBRANCH  16   2
ENDBRANCH   9  16
BRANCH   7  14
ATOM     14  C   UNL     1      -4.573  -0.356  23.395  0.00  0.00    +0.158 C 
BRANCH  14  18
ATOM     18  C   UNL     1      -4.834   0.906  24.181  0.00  0.00    -0.028 A 
ATOM     20  C   UNL     1      -4.431   2.140  23.673  0.00  0.00    +0.009 A 
ATOM     21  C   UNL     1      -5.479   0.835  25.416  0.00  0.00    +0.009 A 
ATOM     24  C   UNL     1      -4.672   3.306  24.400  0.00  0.00    +0.046 A 
ATOM     25  C   UNL     1      -5.721   2.002  26.143  0.00  0.00    +0.046 A 
ATOM     27  C   UNL     1      -5.317   3.236  25.636  0.00  0.00    +0.120 A 
BRANCH  27   5
ATOM      5  O   UNL     1      -5.553   4.374  26.344  0.00  0.00    -0.495 OA
ATOM     31  C   UNL     1      -6.180   5.453  25.651  0.00  0.00    +0.277 C 
ENDBRANCH  27   5
ENDBRANCH  14  18
ENDBRANCH   7  14
TORSDOF 6
ENDMDL
MODEL 2
REMARK VINA RESULT:       2.6      2.030      4.562
REMARK  Name = 25338983
REMARK  8 active torsions:
REMARK  status: ('A' for Active; 'I' for Inactive)
REMARK    1  A    between atoms: O_2  and  C_16
REMARK    2  A    between atoms: O_2  and  C_26
REMARK    3  A    between atoms: O_5  and  C_27
REMARK    4  A    between atoms: O_5  and  C_31
REMARK    5  A    between atoms: N_7  and  C_14
REMARK    6  A    between atoms: C_9  and  C_16
REMARK    7  A    between atoms: C_14  and  C_18
REMARK    8  A    between atoms: C_17  and  C_19
REMARK                            x       y       z     vdW  Elec       q    Type
REMARK                         _______ _______ _______ _____ _____    ______ ____
ROOT
ATOM      4  O   UNL     1      -4.549  -0.901  23.860  0.00  0.00    -0.270 OA
ATOM      6  N   UNL     1      -2.335  -0.160  24.085  0.00  0.00    -0.278 N 
ATOM      7  N   UNL     1       0.976   1.538  23.660  0.00  0.00    -0.328 N 
ATOM      8  N   UNL     1       1.590  -0.365  22.666  0.00  0.00    -0.240 NA
ATOM      9  C   UNL     1      -1.779  -1.531  23.947  0.00  0.00    +0.191 C 
ATOM     10  C   UNL     1      -0.572  -1.638  22.992  0.00  0.00    +0.091 C 
ATOM     11  C   UNL     1      -0.095   0.699  23.742  0.00  0.00    +0.059 A 
ATOM     12  C   UNL     1      -1.402   0.969  24.370  0.00  0.00    +0.164 C 
ATOM     13  C   UNL     1       0.308  -0.460  23.129  0.00  0.00    +0.066 A 
ATOM     15  C   UNL     1       1.966   0.853  23.003  0.00  0.00    +0.200 A 
ATOM     17  C   UNL     1      -3.732  -0.010  24.087  0.00  0.00    +0.248 C 
ENDROOT
BRANCH  17  19
ATOM      1  F   UNL     1      -5.850   5.045  25.231  0.00  0.00    -0.205 F 
ATOM     19  C   UNL     1      -4.288   1.318  24.387  0.00  0.00    +0.037 A 
ATOM     22  C   UNL     1      -3.947   2.412  23.593  0.00  0.00    +0.016 A 
ATOM     23  C   UNL     1      -5.157   1.482  25.466  0.00  0.00    +0.016 A 
ATOM     28  C   UNL     1      -4.474   3.671  23.877  0.00  0.00    +0.039 A 
ATOM     29  C   UNL     1      -5.684   2.742  25.751  0.00  0.00    +0.039 A 
ATOM     30  C   UNL     1      -5.342   3.837  24.957  0.00  0.00    +0.123 A 
ENDBRANCH  17  19
BRANCH   9  16
ATOM      3  O   UNL     1      -0.343  -1.835  25.860  0.00  0.00    -0.249 OA
ATOM     16  C   UNL     1      -1.441  -1.982  25.340  0.00  0.00    +0.328 C 
BRANCH  16   2
ATOM      2  O   UNL     1      -2.535  -2.566  25.909  0.00  0.00    -0.467 OA
ATOM     26  C   UNL     1      -3.333  -3.363  25.030  0.00  0.00    +0.280 C 
ENDBRANCH  16   2
ENDBRANCH   9  16
BRANCH   7  14
ATOM     14  C   UNL     1       1.071   2.886  24.166  0.00  0.00    +0.158 C 
BRANCH  14  18
ATOM     18  C   UNL     1      -0.126   3.303  24.985  0.00  0.00    -0.028 A 
ATOM     20  C   UNL     1      -0.504   2.555  26.099  0.00  0.00    +0.009 A 
ATOM     21  C   UNL     1      -0.852   4.438  24.627  0.00  0.00    +0.009 A 
ATOM     24  C   UNL     1      -1.610   2.941  26.857  0.00  0.00    +0.046 A 
ATOM     25  C   UNL     1      -1.959   4.825  25.384  0.00  0.00    +0.046 A 
ATOM     27  C   UNL     1      -2.338   4.076  26.498  0.00  0.00    +0.120 A 
BRANCH  27   5
ATOM      5  O   UNL     1      -3.416   4.454  27.237  0.00  0.00    -0.495 OA
ATOM     31  C   UNL     1      -3.420   4.085  28.616  0.00  0.00    +0.277 C 
ENDBRANCH  27   5
ENDBRANCH  14  18
ENDBRANCH   7  14
TORSDOF 6
ENDMDL
