MODEL 1
REMARK VINA RESULT:       2.8      0.000      0.000
REMARK  Name = 45783666
REMARK  5 active torsions:
REMARK  status: ('A' for Active; 'I' for Inactive)
REMARK    1  A    between atoms: N_2  and  C_9
REMARK    2  A    between atoms: N_3  and  C_19
REMARK    3  A    between atoms: N_7  and  C_25
REMARK    4  A    between atoms: C_10  and  C_18
REMARK    5  A    between atoms: C_20  and  C_21
REMARK                            x       y       z     vdW  Elec       q    Type
REMARK                         _______ _______ _______ _____ _____    ______ ____
ROOT
ATOM      1  O   UNL     1      -2.245   3.492  23.966  0.00  0.00    -0.336 OA
ATOM      4  N   UNL     1      -1.851   1.286  23.994  0.00  0.00    -0.190 NA
ATOM      5  N   UNL     1      -0.861   3.341  23.808  0.00  0.00    -0.056 NA
ATOM     18  C   UNL     1      -2.751   2.235  24.068  0.00  0.00    +0.245 A 
ATOM     20  C   UNL     1      -0.708   2.014  23.835  0.00  0.00    +0.204 A 
ENDROOT
BRANCH  20  21
ATOM      6  N   UNL     1       2.974   1.604  23.510  0.00  0.00    -0.237 NA
ATOM     21  C   UNL     1       0.575   1.383  23.707  0.00  0.00    +0.041 A 
ATOM     22  C   UNL     1       0.690  -0.002  23.650  0.00  0.00    +0.017 A 
ATOM     23  C   UNL     1       1.736   2.134  23.634  0.00  0.00    +0.124 A 
ATOM     24  C   UNL     1       1.947  -0.584  23.524  0.00  0.00    +0.047 A 
ATOM     25  C   UNL     1       3.047   0.255  23.459  0.00  0.00    +0.139 A 
BRANCH  25   7
ATOM      7  N   UNL     1       4.301  -0.322  23.334  0.00  0.00    -0.290 N 
ATOM      8  N   UNL     1       5.919  -1.835  23.480  0.00  0.00    -0.244 NA
ATOM     26  C   UNL     1       5.409   0.260  22.785  0.00  0.00    +0.114 A 
ATOM     27  C   UNL     1       4.656  -1.579  23.737  0.00  0.00    +0.205 A 
ATOM     28  C   UNL     1       6.394  -0.693  22.887  0.00  0.00    +0.130 A 
ENDBRANCH  25   7
ENDBRANCH  20  21
BRANCH  18  10
ATOM      2  N   UNL     1      -4.624   1.395  25.477  0.00  0.00    -0.288 NA
ATOM     10  C   UNL     1      -4.251   2.123  24.247  0.00  0.00    +0.146 C 
ATOM     11  C   UNL     1      -5.915   1.935  25.902  0.00  0.00    +0.085 C 
ATOM     14  C   UNL     1      -4.937   3.495  24.381  0.00  0.00    +0.030 C 
ATOM     15  C   UNL     1      -5.720   3.423  25.685  0.00  0.00    +0.017 C 
BRANCH   2   9
ATOM      3  N   UNL     1      -3.402  -2.513  24.339  0.00  0.00    -0.305 NA
ATOM      9  C   UNL     1      -4.666  -0.054  25.298  0.00  0.00    +0.060 C 
ATOM     12  C   UNL     1      -4.622  -0.424  23.813  0.00  0.00    +0.034 C 
ATOM     13  C   UNL     1      -3.497  -0.713  26.035  0.00  0.00    +0.034 C 
ATOM     16  C   UNL     1      -4.555  -1.942  23.628  0.00  0.00    +0.085 C 
ATOM     17  C   UNL     1      -3.466  -2.222  25.778  0.00  0.00    +0.085 C 
ATOM     19  C   UNL     1      -3.322  -3.956  24.112  0.00  0.00    +0.104 C 
ENDBRANCH   2   9
ENDBRANCH  18  10
TORSDOF 4
ENDMDL
MODEL 2
REMARK VINA RESULT:       4.9      1.684      3.943
REMARK  Name = 45783666
REMARK  5 active torsions:
REMARK  status: ('A' for Active; 'I' for Inactive)
REMARK    1  A    between atoms: N_2  and  C_9
REMARK    2  A    between atoms: N_3  and  C_19
REMARK    3  A    between atoms: N_7  and  C_25
REMARK    4  A    between atoms: C_10  and  C_18
REMARK    5  A    between atoms: C_20  and  C_21
REMARK                            x       y       z     vdW  Elec       q    Type
REMARK                         _______ _______ _______ _____ _____    ______ ____
ROOT
ATOM      1  O   UNL     1      -1.186   0.512  23.163  0.00  0.00    -0.336 OA
ATOM      4  N   UNL     1       0.189  -0.824  24.324  0.00  0.00    -0.190 NA
ATOM      5  N   UNL     1       0.112   0.823  22.737  0.00  0.00    -0.056 NA
ATOM     18  C   UNL     1      -1.051  -0.466  24.096  0.00  0.00    +0.245 A 
ATOM     20  C   UNL     1       0.865  -0.004  23.467  0.00  0.00    +0.204 A 
ENDROOT
BRANCH  20  21
ATOM      6  N   UNL     1       4.364  -1.238  23.722  0.00  0.00    -0.237 NA
ATOM     21  C   UNL     1       2.296  -0.037  23.365  0.00  0.00    +0.041 A 
ATOM     22  C   UNL     1       3.003   1.039  22.841  0.00  0.00    +0.017 A 
ATOM     23  C   UNL     1       3.016  -1.142  23.787  0.00  0.00    +0.124 A 
ATOM     24  C   UNL     1       4.389   0.978  22.757  0.00  0.00    +0.047 A 
ATOM     25  C   UNL     1       5.016  -0.172  23.206  0.00  0.00    +0.139 A 
BRANCH  25   7
ATOM      7  N   UNL     1       6.398  -0.237  23.124  0.00  0.00    -0.290 N 
ATOM      8  N   UNL     1       8.415  -0.890  22.460  0.00  0.00    -0.244 NA
ATOM     26  C   UNL     1       7.289   0.510  23.841  0.00  0.00    +0.114 A 
ATOM     27  C   UNL     1       7.121  -1.064  22.309  0.00  0.00    +0.205 A 
ATOM     28  C   UNL     1       8.526   0.090  23.414  0.00  0.00    +0.130 A 
ENDBRANCH  25   7
ENDBRANCH  20  21
BRANCH  18  10
ATOM      2  N   UNL     1      -3.534  -0.321  24.184  0.00  0.00    -0.288 NA
ATOM     10  C   UNL     1      -2.329  -0.987  24.719  0.00  0.00    +0.146 C 
ATOM     11  C   UNL     1      -4.620  -1.297  24.274  0.00  0.00    +0.085 C 
ATOM     14  C   UNL     1      -2.556  -2.485  24.447  0.00  0.00    +0.030 C 
ATOM     15  C   UNL     1      -3.937  -2.570  23.813  0.00  0.00    +0.017 C 
BRANCH   2   9
ATOM      3  N   UNL     1      -5.444   3.380  25.031  0.00  0.00    -0.305 NA
ATOM      9  C   UNL     1      -3.857   0.926  24.872  0.00  0.00    +0.060 C 
ATOM     12  C   UNL     1      -3.584   2.135  23.973  0.00  0.00    +0.034 C 
ATOM     13  C   UNL     1      -5.323   0.924  25.313  0.00  0.00    +0.034 C 
ATOM     16  C   UNL     1      -4.025   3.434  24.652  0.00  0.00    +0.085 C 
ATOM     17  C   UNL     1      -5.707   2.263  25.948  0.00  0.00    +0.085 C 
ATOM     19  C   UNL     1      -5.862   4.646  25.633  0.00  0.00    +0.104 C 
ENDBRANCH   2   9
ENDBRANCH  18  10
TORSDOF 4
ENDMDL
MODEL 3
REMARK VINA RESULT:       5.8      2.032      4.345
REMARK  Name = 45783666
REMARK  5 active torsions:
REMARK  status: ('A' for Active; 'I' for Inactive)
REMARK    1  A    between atoms: N_2  and  C_9
REMARK    2  A    between atoms: N_3  and  C_19
REMARK    3  A    between atoms: N_7  and  C_25
REMARK    4  A    between atoms: C_10  and  C_18
REMARK    5  A    between atoms: C_20  and  C_21
REMARK                            x       y       z     vdW  Elec       q    Type
REMARK                         _______ _______ _______ _____ _____    ______ ____
ROOT
ATOM      1  O   UNL     1      -0.788  -0.301  22.682  0.00  0.00    -0.336 OA
ATOM      4  N   UNL     1       0.594  -0.596  24.421  0.00  0.00    -0.190 NA
ATOM      5  N   UNL     1       0.510  -0.147  22.179  0.00  0.00    -0.056 NA
ATOM     18  C   UNL     1      -0.649  -0.563  24.008  0.00  0.00    +0.245 A 
ATOM     20  C   UNL     1       1.267  -0.335  23.263  0.00  0.00    +0.204 A 
ENDROOT
BRANCH  20  21
ATOM      6  N   UNL     1       4.830  -1.318  23.679  0.00  0.00    -0.237 NA
ATOM     21  C   UNL     1       2.700  -0.267  23.224  0.00  0.00    +0.041 A 
ATOM     22  C   UNL     1       3.352   0.855  22.724  0.00  0.00    +0.017 A 
ATOM     23  C   UNL     1       3.477  -1.317  23.685  0.00  0.00    +0.124 A 
ATOM     24  C   UNL     1       4.742   0.892  22.701  0.00  0.00    +0.047 A 
ATOM     25  C   UNL     1       5.428  -0.210  23.186  0.00  0.00    +0.139 A 
BRANCH  25   7
ATOM      7  N   UNL     1       6.814  -0.177  23.165  0.00  0.00    -0.290 N 
ATOM      8  N   UNL     1       8.900  -0.731  22.643  0.00  0.00    -0.244 NA
ATOM     26  C   UNL     1       7.614   0.695  23.846  0.00  0.00    +0.114 A 
ATOM     27  C   UNL     1       7.631  -1.015  22.457  0.00  0.00    +0.205 A 
ATOM     28  C   UNL     1       8.897   0.334  23.508  0.00  0.00    +0.130 A 
ENDBRANCH  25   7
ENDBRANCH  20  21
BRANCH  18  10
ATOM      2  N   UNL     1      -3.043   0.053  24.294  0.00  0.00    -0.288 NA
ATOM     10  C   UNL     1      -1.926  -0.775  24.793  0.00  0.00    +0.146 C 
ATOM     11  C   UNL     1      -4.270  -0.690  24.585  0.00  0.00    +0.085 C 
ATOM     14  C   UNL     1      -2.443  -2.223  24.707  0.00  0.00    +0.030 C 
ATOM     15  C   UNL     1      -3.877  -2.104  24.208  0.00  0.00    +0.017 C 
BRANCH   2   9
ATOM      3  N   UNL     1      -2.108   4.162  24.845  0.00  0.00    -0.305 NA
ATOM      9  C   UNL     1      -3.064   1.396  24.868  0.00  0.00    +0.060 C 
ATOM     12  C   UNL     1      -1.683   1.787  25.400  0.00  0.00    +0.034 C 
ATOM     13  C   UNL     1      -3.527   2.412  23.820  0.00  0.00    +0.034 C 
ATOM     16  C   UNL     1      -1.677   3.234  25.900  0.00  0.00    +0.085 C 
ATOM     17  C   UNL     1      -3.461   3.839  24.372  0.00  0.00    +0.085 C 
ATOM     19  C   UNL     1      -2.050   5.543  25.322  0.00  0.00    +0.104 C 
ENDBRANCH   2   9
ENDBRANCH  18  10
TORSDOF 4
ENDMDL
