MODEL 1
REMARK VINA RESULT:       6.7      0.000      0.000
REMARK  Name = 11885331
REMARK  6 active torsions:
REMARK  status: ('A' for Active; 'I' for Inactive)
REMARK    1  A    between atoms: S_1  and  C_29
REMARK    2  A    between atoms: S_1  and  C_30
REMARK    3  A    between atoms: O_3  and  C_20
REMARK    4  A    between atoms: N_4  and  C_13
REMARK    5  A    between atoms: C_13  and  C_18
REMARK    6  A    between atoms: C_16  and  C_19
REMARK                            x       y       z     vdW  Elec       q    Type
REMARK                         _______ _______ _______ _____ _____    ______ ____
ROOT
ATOM      2  O   UNL     1       0.957   2.087  25.622  0.00  0.00    -0.267 OA
ATOM      4  N   UNL     1      -3.995   1.486  25.100  0.00  0.00    -0.297 NA
ATOM      5  N   UNL     1      -1.045   2.553  24.521  0.00  0.00    -0.311 N 
ATOM      6  C   UNL     1      -3.016   3.723  25.668  0.00  0.00    +0.024 C 
ATOM      7  C   UNL     1      -3.202   3.050  23.321  0.00  0.00    +0.050 C 
ATOM      8  C   UNL     1      -3.333   4.239  24.271  0.00  0.00    +0.017 C 
ATOM      9  C   UNL     1      -4.003   2.602  26.054  0.00  0.00    +0.090 C 
ATOM     10  C   UNL     1      -4.214   1.954  23.724  0.00  0.00    +0.094 C 
ATOM     11  C   UNL     1      -1.554   3.260  25.705  0.00  0.00    +0.130 C 
ATOM     12  C   UNL     1      -1.788   2.499  23.339  0.00  0.00    +0.026 A 
ATOM     14  C   UNL     1      -1.259   1.948  22.236  0.00  0.00    +0.022 A 
ATOM     15  C   UNL     1       0.259   2.028  24.608  0.00  0.00    +0.259 A 
ATOM     16  C   UNL     1       0.812   1.385  23.364  0.00  0.00    +0.047 A 
ATOM     17  C   UNL     1       0.058   1.378  22.254  0.00  0.00    +0.015 A 
ENDROOT
BRANCH  16  19
ATOM     19  C   UNL     1       2.149   0.765  23.355  0.00  0.00    -0.013 A 
ATOM     22  C   UNL     1       2.292  -0.591  23.646  0.00  0.00    +0.010 A 
ATOM     23  C   UNL     1       3.273   1.536  23.054  0.00  0.00    +0.010 A 
ATOM     27  C   UNL     1       3.557  -1.178  23.637  0.00  0.00    +0.015 A 
ATOM     28  C   UNL     1       4.539   0.948  23.045  0.00  0.00    +0.015 A 
ATOM     29  C   UNL     1       4.681  -0.408  23.336  0.00  0.00    +0.008 A 
BRANCH  29   1
ATOM      1  S   UNL     1       6.297  -1.157  23.327  0.00  0.00    -0.129 S 
ATOM     30  C   UNL     1       7.376   0.293  23.502  0.00  0.00    +0.090 C 
ENDBRANCH  29   1
ENDBRANCH  16  19
BRANCH   4  13
ATOM     13  C   UNL     1      -4.978   0.471  25.470  0.00  0.00    +0.123 C 
BRANCH  13  18
ATOM     18  C   UNL     1      -4.519  -0.902  25.064  0.00  0.00    +0.008 A 
ATOM     20  C   UNL     1      -3.603  -1.595  25.846  0.00  0.00    +0.121 A 
ATOM     21  C   UNL     1      -5.024  -1.461  23.897  0.00  0.00    +0.008 A 
ATOM     24  C   UNL     1      -3.187  -2.867  25.456  0.00  0.00    +0.046 A 
ATOM     25  C   UNL     1      -4.608  -2.735  23.506  0.00  0.00    +0.001 A 
ATOM     26  C   UNL     1      -3.689  -3.437  24.286  0.00  0.00    +0.004 A 
BRANCH  20   3
ATOM      3  O   UNL     1      -3.103  -1.053  26.993  0.00  0.00    -0.506 OA
ATOM     31  H   UNL     1      -2.598  -0.252  26.770  0.00  0.00    +0.292 HD
ENDBRANCH  20   3
ENDBRANCH  13  18
ENDBRANCH   4  13
TORSDOF 5
ENDMDL
MODEL 2
REMARK VINA RESULT:       9.9      0.949      1.282
REMARK  Name = 11885331
REMARK  6 active torsions:
REMARK  status: ('A' for Active; 'I' for Inactive)
REMARK    1  A    between atoms: S_1  and  C_29
REMARK    2  A    between atoms: S_1  and  C_30
REMARK    3  A    between atoms: O_3  and  C_20
REMARK    4  A    between atoms: N_4  and  C_13
REMARK    5  A    between atoms: C_13  and  C_18
REMARK    6  A    between atoms: C_16  and  C_19
REMARK                            x       y       z     vdW  Elec       q    Type
REMARK                         _______ _______ _______ _____ _____    ______ ____
ROOT
ATOM      2  O   UNL     1       1.106   2.057  25.441  0.00  0.00    -0.267 OA
ATOM      4  N   UNL     1      -3.827   1.322  24.917  0.00  0.00    -0.297 NA
ATOM      5  N   UNL     1      -0.884   2.363  24.263  0.00  0.00    -0.311 N 
ATOM      6  C   UNL     1      -2.890   3.625  25.239  0.00  0.00    +0.024 C 
ATOM      7  C   UNL     1      -3.027   2.684  22.982  0.00  0.00    +0.050 C 
ATOM      8  C   UNL     1      -3.190   3.972  23.787  0.00  0.00    +0.017 C 
ATOM      9  C   UNL     1      -3.868   2.540  25.736  0.00  0.00    +0.090 C 
ATOM     10  C   UNL     1      -4.030   1.626  23.493  0.00  0.00    +0.094 C 
ATOM     11  C   UNL     1      -1.422   3.193  25.351  0.00  0.00    +0.130 C 
ATOM     12  C   UNL     1      -1.605   2.161  23.085  0.00  0.00    +0.026 A 
ATOM     14  C   UNL     1      -1.051   1.495  22.061  0.00  0.00    +0.022 A 
ATOM     15  C   UNL     1       0.426   1.872  24.430  0.00  0.00    +0.259 A 
ATOM     16  C   UNL     1       1.009   1.099  23.277  0.00  0.00    +0.047 A 
ATOM     17  C   UNL     1       0.274   0.952  22.164  0.00  0.00    +0.015 A 
ENDROOT
BRANCH  16  19
ATOM     19  C   UNL     1       2.354   0.503  23.360  0.00  0.00    -0.013 A 
ATOM     22  C   UNL     1       2.505  -0.833  23.727  0.00  0.00    +0.010 A 
ATOM     23  C   UNL     1       3.479   1.277  23.070  0.00  0.00    +0.010 A 
ATOM     27  C   UNL     1       3.778  -1.398  23.805  0.00  0.00    +0.015 A 
ATOM     28  C   UNL     1       4.753   0.713  23.147  0.00  0.00    +0.015 A 
ATOM     29  C   UNL     1       4.902  -0.624  23.515  0.00  0.00    +0.008 A 
BRANCH  29   1
ATOM      1  S   UNL     1       6.529  -1.343  23.617  0.00  0.00    -0.129 S 
ATOM     30  C   UNL     1       7.494  -0.224  22.562  0.00  0.00    +0.090 C 
ENDBRANCH  29   1
ENDBRANCH  16  19
BRANCH   4  13
ATOM     13  C   UNL     1      -4.803   0.341  25.387  0.00  0.00    +0.123 C 
BRANCH  13  18
ATOM     18  C   UNL     1      -4.270  -1.059  25.253  0.00  0.00    +0.008 A 
ATOM     20  C   UNL     1      -4.360  -1.730  24.040  0.00  0.00    +0.121 A 
ATOM     21  C   UNL     1      -3.689  -1.664  26.360  0.00  0.00    +0.008 A 
ATOM     24  C   UNL     1      -3.861  -3.028  23.932  0.00  0.00    +0.046 A 
ATOM     25  C   UNL     1      -3.189  -2.963  26.252  0.00  0.00    +0.001 A 
ATOM     26  C   UNL     1      -3.275  -3.645  25.038  0.00  0.00    +0.004 A 
BRANCH  20   3
ATOM      3  O   UNL     1      -4.929  -1.143  22.950  0.00  0.00    -0.506 OA
ATOM     31  H   UNL     1      -4.753  -1.692  22.167  0.00  0.00    +0.292 HD
ENDBRANCH  20   3
ENDBRANCH  13  18
ENDBRANCH   4  13
TORSDOF 5
ENDMDL
MODEL 3
REMARK VINA RESULT:      10.0      2.072      4.447
REMARK  Name = 11885331
REMARK  6 active torsions:
REMARK  status: ('A' for Active; 'I' for Inactive)
REMARK    1  A    between atoms: S_1  and  C_29
REMARK    2  A    between atoms: S_1  and  C_30
REMARK    3  A    between atoms: O_3  and  C_20
REMARK    4  A    between atoms: N_4  and  C_13
REMARK    5  A    between atoms: C_13  and  C_18
REMARK    6  A    between atoms: C_16  and  C_19
REMARK                            x       y       z     vdW  Elec       q    Type
REMARK                         _______ _______ _______ _____ _____    ______ ____
ROOT
ATOM      2  O   UNL     1      -0.098  -0.220  22.115  0.00  0.00    -0.267 OA
ATOM      4  N   UNL     1      -4.006   0.416  25.193  0.00  0.00    -0.297 NA
ATOM      5  N   UNL     1      -1.646  -1.065  23.641  0.00  0.00    -0.311 N 
ATOM      6  C   UNL     1      -4.168  -1.082  23.189  0.00  0.00    +0.024 C 
ATOM      7  C   UNL     1      -3.306  -1.980  25.298  0.00  0.00    +0.050 C 
ATOM      8  C   UNL     1      -4.172  -2.313  24.085  0.00  0.00    +0.017 C 
ATOM      9  C   UNL     1      -4.741   0.130  23.954  0.00  0.00    +0.090 C 
ATOM     10  C   UNL     1      -3.915  -0.775  26.050  0.00  0.00    +0.094 C 
ATOM     11  C   UNL     1      -2.740  -0.841  22.685  0.00  0.00    +0.130 C 
ATOM     12  C   UNL     1      -1.880  -1.676  24.875  0.00  0.00    +0.026 A 
ATOM     14  C   UNL     1      -0.853  -1.975  25.685  0.00  0.00    +0.022 A 
ATOM     15  C   UNL     1      -0.348  -0.729  23.209  0.00  0.00    +0.259 A 
ATOM     16  C   UNL     1       0.781  -1.044  24.154  0.00  0.00    +0.047 A 
ATOM     17  C   UNL     1       0.495  -1.647  25.319  0.00  0.00    +0.015 A 
ENDROOT
BRANCH  16  19
ATOM     19  C   UNL     1       2.174  -0.696  23.823  0.00  0.00    -0.013 A 
ATOM     22  C   UNL     1       3.202  -1.599  24.091  0.00  0.00    +0.010 A 
ATOM     23  C   UNL     1       2.465   0.539  23.242  0.00  0.00    +0.010 A 
ATOM     27  C   UNL     1       4.521  -1.269  23.777  0.00  0.00    +0.015 A 
ATOM     28  C   UNL     1       3.784   0.869  22.928  0.00  0.00    +0.015 A 
ATOM     29  C   UNL     1       4.812  -0.035  23.196  0.00  0.00    +0.008 A 
BRANCH  29   1
ATOM      1  S   UNL     1       6.496   0.388  22.799  0.00  0.00    -0.129 S 
ATOM     30  C   UNL     1       7.253  -1.252  22.609  0.00  0.00    +0.090 C 
ENDBRANCH  29   1
ENDBRANCH  16  19
BRANCH   4  13
ATOM     13  C   UNL     1      -4.610   1.534  25.914  0.00  0.00    +0.123 C 
BRANCH  13  18
ATOM     18  C   UNL     1      -3.806   2.793  25.732  0.00  0.00    +0.008 A 
ATOM     20  C   UNL     1      -4.441   4.026  25.664  0.00  0.00    +0.121 A 
ATOM     21  C   UNL     1      -2.424   2.697  25.633  0.00  0.00    +0.008 A 
ATOM     24  C   UNL     1      -3.682   5.184  25.494  0.00  0.00    +0.046 A 
ATOM     25  C   UNL     1      -1.663   3.855  25.464  0.00  0.00    +0.001 A 
ATOM     26  C   UNL     1      -2.293   5.098  25.394  0.00  0.00    +0.004 A 
BRANCH  20   3
ATOM      3  O   UNL     1      -5.797   4.128  25.760  0.00  0.00    -0.506 OA
ATOM     31  H   UNL     1      -6.182   4.085  24.868  0.00  0.00    +0.292 HD
ENDBRANCH  20   3
ENDBRANCH  13  18
ENDBRANCH   4  13
TORSDOF 5
ENDMDL
