MODEL 1
REMARK VINA RESULT:      -6.2      0.000      0.000
REMARK  Name = 75536589
REMARK  9 active torsions:
REMARK  status: ('A' for Active; 'I' for Inactive)
REMARK    1  A    between atoms: O_3  and  C_9
REMARK    2  A    between atoms: O_5  and  C_17
REMARK    3  A    between atoms: O_5  and  C_20
REMARK    4  A    between atoms: N_6  and  C_8
REMARK    5  A    between atoms: N_6  and  C_13
REMARK    6  A    between atoms: N_7  and  C_12
REMARK    7  A    between atoms: C_10  and  C_12
REMARK    8  A    between atoms: C_13  and  C_14
REMARK    9  A    between atoms: C_15  and  C_17
REMARK                            x       y       z     vdW  Elec       q    Type
REMARK                         _______ _______ _______ _____ _____    ______ ____
ROOT
ATOM      2  O   UNL     1      -1.233   2.023  22.977  0.00  0.00    -0.371 OA
ATOM      8  C   UNL     1      -3.335   2.651  23.890  0.00  0.00    +0.111 C 
ATOM      9  C   UNL     1      -2.317   2.548  25.012  0.00  0.00    +0.164 C 
ATOM     10  C   UNL     1      -1.013   2.676  24.238  0.00  0.00    +0.165 C 
ATOM     11  C   UNL     1      -2.650   1.856  22.791  0.00  0.00    +0.181 C 
ENDROOT
BRANCH   9   3
ATOM      3  O   UNL     1      -2.462   3.574  25.975  0.00  0.00    -0.388 OA
ATOM     22  H   UNL     1      -3.400   3.631  26.223  0.00  0.00    +0.210 HD
ENDBRANCH   9   3
BRANCH   8   6
ATOM      6  N   UNL     1      -4.644   2.124  24.239  0.00  0.00    -0.304 NA
ATOM     21  H   UNL     1      -5.020   1.616  23.438  0.00  0.00    +0.123 HD
BRANCH   6  13
ATOM     13  C   UNL     1      -4.559   1.221  25.380  0.00  0.00    +0.124 C 
BRANCH  13  14
ATOM      1  S   UNL     1      -2.813  -0.909  25.761  0.00  0.00    -0.100 S 
ATOM     14  C   UNL     1      -4.135  -0.163  24.968  0.00  0.00    +0.004 A 
ATOM     16  C   UNL     1      -4.676  -0.973  23.993  0.00  0.00    +0.012 A 
ATOM     18  C   UNL     1      -3.997  -2.221  23.896  0.00  0.00    +0.008 A 
ATOM     19  C   UNL     1      -2.962  -2.319  24.799  0.00  0.00    +0.045 A 
ENDBRANCH  13  14
ENDBRANCH   6  13
ENDBRANCH   8   6
BRANCH  10  12
ATOM     12  C   UNL     1       0.169   2.038  24.945  0.00  0.00    +0.138 C 
BRANCH  12   7
ATOM      4  O   UNL     1       0.385  -0.589  23.754  0.00  0.00    -0.273 OA
ATOM      7  N   UNL     1       1.160   1.591  24.008  0.00  0.00    -0.311 N 
ATOM     15  C   UNL     1       1.186   0.302  23.484  0.00  0.00    +0.239 C 
ATOM     23  H   UNL     1       1.878   2.252  23.727  0.00  0.00    +0.149 HD
BRANCH  15  17
ATOM     17  C   UNL     1       2.336   0.104  22.520  0.00  0.00    +0.255 C 
BRANCH  17   5
ATOM      5  O   UNL     1       3.368   1.031  22.778  0.00  0.00    -0.374 OA
ATOM     20  C   UNL     1       4.598   0.384  23.092  0.00  0.00    +0.194 C 
ENDBRANCH  17   5
ENDBRANCH  15  17
ENDBRANCH  12   7
ENDBRANCH  10  12
TORSDOF 8
ENDMDL
MODEL 2
REMARK VINA RESULT:      -6.1      2.426      5.171
REMARK  Name = 75536589
REMARK  9 active torsions:
REMARK  status: ('A' for Active; 'I' for Inactive)
REMARK    1  A    between atoms: O_3  and  C_9
REMARK    2  A    between atoms: O_5  and  C_17
REMARK    3  A    between atoms: O_5  and  C_20
REMARK    4  A    between atoms: N_6  and  C_8
REMARK    5  A    between atoms: N_6  and  C_13
REMARK    6  A    between atoms: N_7  and  C_12
REMARK    7  A    between atoms: C_10  and  C_12
REMARK    8  A    between atoms: C_13  and  C_14
REMARK    9  A    between atoms: C_15  and  C_17
REMARK                            x       y       z     vdW  Elec       q    Type
REMARK                         _______ _______ _______ _____ _____    ______ ____
ROOT
ATOM      2  O   UNL     1      -0.819   2.874  26.517  0.00  0.00    -0.371 OA
ATOM      8  C   UNL     1       0.103   1.538  24.782  0.00  0.00    +0.111 C 
ATOM      9  C   UNL     1      -0.544   2.768  24.170  0.00  0.00    +0.164 C 
ATOM     10  C   UNL     1      -0.583   3.706  25.369  0.00  0.00    +0.165 C 
ATOM     11  C   UNL     1      -0.549   1.507  26.154  0.00  0.00    +0.181 C 
ENDROOT
BRANCH   9   3
ATOM      3  O   UNL     1       0.212   3.308  23.103  0.00  0.00    -0.388 OA
ATOM     22  H   UNL     1       1.133   3.010  23.199  0.00  0.00    +0.210 HD
ENDBRANCH   9   3
BRANCH   8   6
ATOM      6  N   UNL     1      -0.123   0.320  24.020  0.00  0.00    -0.304 NA
ATOM     21  H   UNL     1       0.735   0.075  23.526  0.00  0.00    +0.123 HD
BRANCH   6  13
ATOM     13  C   UNL     1      -0.502  -0.783  24.895  0.00  0.00    +0.124 C 
BRANCH  13  14
ATOM      1  S   UNL     1      -3.131  -0.178  24.221  0.00  0.00    -0.100 S 
ATOM     14  C   UNL     1      -1.884  -1.293  24.586  0.00  0.00    +0.004 A 
ATOM     16  C   UNL     1      -2.330  -2.597  24.550  0.00  0.00    +0.012 A 
ATOM     18  C   UNL     1      -3.712  -2.680  24.218  0.00  0.00    +0.008 A 
ATOM     19  C   UNL     1      -4.272  -1.439  24.014  0.00  0.00    +0.045 A 
ENDBRANCH  13  14
ENDBRANCH   6  13
ENDBRANCH   8   6
BRANCH  10  12
ATOM     12  C   UNL     1      -1.668   4.762  25.270  0.00  0.00    +0.138 C 
BRANCH  12   7
ATOM      4  O   UNL     1      -3.882   3.616  23.803  0.00  0.00    -0.273 OA
ATOM      7  N   UNL     1      -2.910   4.287  25.808  0.00  0.00    -0.311 N 
ATOM     15  C   UNL     1      -3.925   3.747  25.023  0.00  0.00    +0.239 C 
ATOM     23  H   UNL     1      -3.051   4.362  26.812  0.00  0.00    +0.149 HD
BRANCH  15  17
ATOM     17  C   UNL     1      -5.121   3.328  25.850  0.00  0.00    +0.255 C 
BRANCH  17   5
ATOM      5  O   UNL     1      -5.336   1.937  25.746  0.00  0.00    -0.374 OA
ATOM     20  C   UNL     1      -6.458   1.633  24.922  0.00  0.00    +0.194 C 
ENDBRANCH  17   5
ENDBRANCH  15  17
ENDBRANCH  12   7
ENDBRANCH  10  12
TORSDOF 8
ENDMDL
MODEL 3
REMARK VINA RESULT:      -6.0      2.268      3.602
REMARK  Name = 75536589
REMARK  9 active torsions:
REMARK  status: ('A' for Active; 'I' for Inactive)
REMARK    1  A    between atoms: O_3  and  C_9
REMARK    2  A    between atoms: O_5  and  C_17
REMARK    3  A    between atoms: O_5  and  C_20
REMARK    4  A    between atoms: N_6  and  C_8
REMARK    5  A    between atoms: N_6  and  C_13
REMARK    6  A    between atoms: N_7  and  C_12
REMARK    7  A    between atoms: C_10  and  C_12
REMARK    8  A    between atoms: C_13  and  C_14
REMARK    9  A    between atoms: C_15  and  C_17
REMARK                            x       y       z     vdW  Elec       q    Type
REMARK                         _______ _______ _______ _____ _____    ______ ____
ROOT
ATOM      2  O   UNL     1      -0.368   0.459  25.285  0.00  0.00    -0.371 OA
ATOM      8  C   UNL     1      -2.283  -0.887  25.689  0.00  0.00    +0.111 C 
ATOM      9  C   UNL     1      -1.707  -1.241  24.329  0.00  0.00    +0.164 C 
ATOM     10  C   UNL     1      -0.282  -0.723  24.471  0.00  0.00    +0.165 C 
ATOM     11  C   UNL     1      -1.649   0.471  25.940  0.00  0.00    +0.181 C 
ENDROOT
BRANCH   9   3
ATOM      3  O   UNL     1      -1.739  -2.631  24.068  0.00  0.00    -0.388 OA
ATOM     22  H   UNL     1      -0.946  -3.034  24.460  0.00  0.00    +0.210 HD
ENDBRANCH   9   3
BRANCH   8   6
ATOM      6  N   UNL     1      -3.736  -0.847  25.714  0.00  0.00    -0.304 NA
ATOM     21  H   UNL     1      -4.038  -0.325  26.537  0.00  0.00    +0.123 HD
BRANCH   6  13
ATOM     13  C   UNL     1      -4.264  -0.201  24.518  0.00  0.00    +0.124 C 
BRANCH  13  14
ATOM      1  S   UNL     1      -3.601   2.438  23.944  0.00  0.00    -0.100 S 
ATOM     14  C   UNL     1      -4.547   1.259  24.750  0.00  0.00    +0.004 A 
ATOM     16  C   UNL     1      -5.506   1.831  25.557  0.00  0.00    +0.012 A 
ATOM     18  C   UNL     1      -5.464   3.254  25.514  0.00  0.00    +0.008 A 
ATOM     19  C   UNL     1      -4.474   3.717  24.676  0.00  0.00    +0.045 A 
ENDBRANCH  13  14
ENDBRANCH   6  13
ENDBRANCH   8   6
BRANCH  10  12
ATOM     12  C   UNL     1       0.369  -0.385  23.143  0.00  0.00    +0.138 C 
BRANCH  12   7
ATOM      4  O   UNL     1       2.533  -0.211  21.231  0.00  0.00    -0.273 OA
ATOM      7  N   UNL     1       1.642   0.249  23.331  0.00  0.00    -0.311 N 
ATOM     15  C   UNL     1       2.629   0.285  22.350  0.00  0.00    +0.239 C 
ATOM     23  H   UNL     1       1.827   0.682  24.232  0.00  0.00    +0.149 HD
BRANCH  15  17
ATOM     17  C   UNL     1       3.868   1.018  22.817  0.00  0.00    +0.255 C 
BRANCH  17   5
ATOM      5  O   UNL     1       5.004   0.186  22.726  0.00  0.00    -0.374 OA
ATOM     20  C   UNL     1       5.438  -0.263  24.006  0.00  0.00    +0.194 C 
ENDBRANCH  17   5
ENDBRANCH  15  17
ENDBRANCH  12   7
ENDBRANCH  10  12
TORSDOF 8
ENDMDL
MODEL 4
REMARK VINA RESULT:      -4.4     14.774     16.502
REMARK  Name = 75536589
REMARK  9 active torsions:
REMARK  status: ('A' for Active; 'I' for Inactive)
REMARK    1  A    between atoms: O_3  and  C_9
REMARK    2  A    between atoms: O_5  and  C_17
REMARK    3  A    between atoms: O_5  and  C_20
REMARK    4  A    between atoms: N_6  and  C_8
REMARK    5  A    between atoms: N_6  and  C_13
REMARK    6  A    between atoms: N_7  and  C_12
REMARK    7  A    between atoms: C_10  and  C_12
REMARK    8  A    between atoms: C_13  and  C_14
REMARK    9  A    between atoms: C_15  and  C_17
REMARK                            x       y       z     vdW  Elec       q    Type
REMARK                         _______ _______ _______ _____ _____    ______ ____
ROOT
ATOM      2  O   UNL     1      -2.323 -10.777  13.178  0.00  0.00    -0.371 OA
ATOM      8  C   UNL     1      -4.235 -10.667  14.583  0.00  0.00    +0.111 C 
ATOM      9  C   UNL     1      -4.600 -10.139  13.207  0.00  0.00    +0.164 C 
ATOM     10  C   UNL     1      -3.501 -10.757  12.354  0.00  0.00    +0.165 C 
ATOM     11  C   UNL     1      -2.719 -10.577  14.547  0.00  0.00    +0.181 C 
ENDROOT
BRANCH   9   3
ATOM      3  O   UNL     1      -5.887 -10.552  12.789  0.00  0.00    -0.388 OA
ATOM     22  H   UNL     1      -6.522 -10.330  13.491  0.00  0.00    +0.210 HD
ENDBRANCH   9   3
BRANCH   8   6
ATOM      6  N   UNL     1      -4.821  -9.907  15.675  0.00  0.00    -0.304 NA
ATOM     21  H   UNL     1      -5.471  -9.221  15.288  0.00  0.00    +0.123 HD
BRANCH   6  13
ATOM     13  C   UNL     1      -5.541 -10.779  16.596  0.00  0.00    +0.124 C 
BRANCH  13  14
ATOM      1  S   UNL     1      -7.674 -10.617  18.372  0.00  0.00    -0.100 S 
ATOM     14  C   UNL     1      -6.936 -10.282  16.863  0.00  0.00    +0.004 A 
ATOM     16  C   UNL     1      -7.762  -9.555  16.034  0.00  0.00    +0.012 A 
ATOM     18  C   UNL     1      -9.017  -9.270  16.645  0.00  0.00    +0.008 A 
ATOM     19  C   UNL     1      -9.104  -9.790  17.918  0.00  0.00    +0.045 A 
ENDBRANCH  13  14
ENDBRANCH   6  13
ENDBRANCH   8   6
BRANCH  10  12
ATOM     12  C   UNL     1      -3.223  -9.982  11.080  0.00  0.00    +0.138 C 
BRANCH  12   7
ATOM      4  O   UNL     1      -4.679 -10.357   8.608  0.00  0.00    -0.273 OA
ATOM      7  N   UNL     1      -4.386  -9.264  10.641  0.00  0.00    -0.311 N 
ATOM     15  C   UNL     1      -5.024  -9.513   9.430  0.00  0.00    +0.239 C 
ATOM     23  H   UNL     1      -4.746  -8.532  11.247  0.00  0.00    +0.149 HD
BRANCH  15  17
ATOM     17  C   UNL     1      -6.222  -8.611   9.223  0.00  0.00    +0.255 C 
BRANCH  17   5
ATOM      5  O   UNL     1      -7.106  -8.698  10.319  0.00  0.00    -0.374 OA
ATOM     20  C   UNL     1      -8.435  -9.006   9.908  0.00  0.00    +0.194 C 
ENDBRANCH  17   5
ENDBRANCH  15  17
ENDBRANCH  12   7
ENDBRANCH  10  12
TORSDOF 8
ENDMDL
MODEL 5
REMARK VINA RESULT:      -4.3      2.332      6.208
REMARK  Name = 75536589
REMARK  9 active torsions:
REMARK  status: ('A' for Active; 'I' for Inactive)
REMARK    1  A    between atoms: O_3  and  C_9
REMARK    2  A    between atoms: O_5  and  C_17
REMARK    3  A    between atoms: O_5  and  C_20
REMARK    4  A    between atoms: N_6  and  C_8
REMARK    5  A    between atoms: N_6  and  C_13
REMARK    6  A    between atoms: N_7  and  C_12
REMARK    7  A    between atoms: C_10  and  C_12
REMARK    8  A    between atoms: C_13  and  C_14
REMARK    9  A    between atoms: C_15  and  C_17
REMARK                            x       y       z     vdW  Elec       q    Type
REMARK                         _______ _______ _______ _____ _____    ______ ____
ROOT
ATOM      2  O   UNL     1      -1.241   2.414  25.491  0.00  0.00    -0.371 OA
ATOM      8  C   UNL     1       0.111   1.267  23.910  0.00  0.00    +0.111 C 
ATOM      9  C   UNL     1      -1.344   1.150  23.495  0.00  0.00    +0.164 C 
ATOM     10  C   UNL     1      -1.960   2.320  24.250  0.00  0.00    +0.165 C 
ATOM     11  C   UNL     1      -0.024   1.655  25.373  0.00  0.00    +0.181 C 
ENDROOT
BRANCH   9   3
ATOM      3  O   UNL     1      -1.524   1.272  22.097  0.00  0.00    -0.388 OA
ATOM     22  H   UNL     1      -2.465   1.132  21.896  0.00  0.00    +0.210 HD
ENDBRANCH   9   3
BRANCH   8   6
ATOM      6  N   UNL     1       0.873   0.044  23.716  0.00  0.00    -0.304 NA
ATOM     21  H   UNL     1       0.225  -0.725  23.545  0.00  0.00    +0.123 HD
BRANCH   6  13
ATOM     13  C   UNL     1       1.781   0.165  22.581  0.00  0.00    +0.124 C 
BRANCH  13  14
ATOM      1  S   UNL     1       3.799  -1.354  23.746  0.00  0.00    -0.100 S 
ATOM     14  C   UNL     1       3.223   0.079  23.005  0.00  0.00    +0.004 A 
ATOM     16  C   UNL     1       4.211   1.031  22.883  0.00  0.00    +0.012 A 
ATOM     18  C   UNL     1       5.457   0.579  23.405  0.00  0.00    +0.008 A 
ATOM     19  C   UNL     1       5.374  -0.701  23.906  0.00  0.00    +0.045 A 
ENDBRANCH  13  14
ENDBRANCH   6  13
ENDBRANCH   8   6
BRANCH  10  12
ATOM     12  C   UNL     1      -3.441   2.142  24.528  0.00  0.00    +0.138 C 
BRANCH  12   7
ATOM      4  O   UNL     1      -3.429  -0.382  25.942  0.00  0.00    -0.273 OA
ATOM      7  N   UNL     1      -3.915   0.877  24.045  0.00  0.00    -0.311 N 
ATOM     15  C   UNL     1      -3.870  -0.293  24.799  0.00  0.00    +0.239 C 
ATOM     23  H   UNL     1      -4.291   0.841  23.102  0.00  0.00    +0.149 HD
BRANCH  15  17
ATOM     17  C   UNL     1      -4.436  -1.477  24.045  0.00  0.00    +0.255 C 
BRANCH  17   5
ATOM      5  O   UNL     1      -3.808  -2.673  24.451  0.00  0.00    -0.374 OA
ATOM     20  C   UNL     1      -2.397  -2.623  24.262  0.00  0.00    +0.194 C 
ENDBRANCH  17   5
ENDBRANCH  15  17
ENDBRANCH  12   7
ENDBRANCH  10  12
TORSDOF 8
ENDMDL
MODEL 6
REMARK VINA RESULT:      -4.0      2.262      4.378
REMARK  Name = 75536589
REMARK  9 active torsions:
REMARK  status: ('A' for Active; 'I' for Inactive)
REMARK    1  A    between atoms: O_3  and  C_9
REMARK    2  A    between atoms: O_5  and  C_17
REMARK    3  A    between atoms: O_5  and  C_20
REMARK    4  A    between atoms: N_6  and  C_8
REMARK    5  A    between atoms: N_6  and  C_13
REMARK    6  A    between atoms: N_7  and  C_12
REMARK    7  A    between atoms: C_10  and  C_12
REMARK    8  A    between atoms: C_13  and  C_14
REMARK    9  A    between atoms: C_15  and  C_17
REMARK                            x       y       z     vdW  Elec       q    Type
REMARK                         _______ _______ _______ _____ _____    ______ ____
ROOT
ATOM      2  O   UNL     1       0.189  -1.088  24.585  0.00  0.00    -0.371 OA
ATOM      8  C   UNL     1      -2.171  -0.868  24.425  0.00  0.00    +0.111 C 
ATOM      9  C   UNL     1      -1.527   0.478  24.142  0.00  0.00    +0.164 C 
ATOM     10  C   UNL     1      -0.114   0.053  23.766  0.00  0.00    +0.165 C 
ATOM     11  C   UNL     1      -1.041  -1.599  25.130  0.00  0.00    +0.181 C 
ENDROOT
BRANCH   9   3
ATOM      3  O   UNL     1      -2.165   1.177  23.091  0.00  0.00    -0.388 OA
ATOM     22  H   UNL     1      -3.123   1.025  23.160  0.00  0.00    +0.210 HD
ENDBRANCH   9   3
BRANCH   8   6
ATOM      6  N   UNL     1      -3.378  -0.780  25.231  0.00  0.00    -0.304 NA
ATOM     21  H   UNL     1      -3.212  -0.136  26.005  0.00  0.00    +0.123 HD
BRANCH   6  13
ATOM     13  C   UNL     1      -4.503  -0.296  24.440  0.00  0.00    +0.124 C 
BRANCH  13  14
ATOM      1  S   UNL     1      -4.730   2.466  24.202  0.00  0.00    -0.100 S 
ATOM     14  C   UNL     1      -5.067   0.985  24.994  0.00  0.00    +0.004 A 
ATOM     16  C   UNL     1      -5.860   1.164  26.107  0.00  0.00    +0.012 A 
ATOM     18  C   UNL     1      -6.195   2.533  26.311  0.00  0.00    +0.008 A 
ATOM     19  C   UNL     1      -5.645   3.350  25.348  0.00  0.00    +0.045 A 
ENDBRANCH  13  14
ENDBRANCH   6  13
ENDBRANCH   8   6
BRANCH  10  12
ATOM     12  C   UNL     1       0.920   1.140  23.998  0.00  0.00    +0.138 C 
BRANCH  12   7
ATOM      4  O   UNL     1       0.246   2.584  26.412  0.00  0.00    -0.273 OA
ATOM      7  N   UNL     1       0.307   2.434  24.090  0.00  0.00    -0.311 N 
ATOM     15  C   UNL     1       0.018   3.056  25.302  0.00  0.00    +0.239 C 
ATOM     23  H   UNL     1       0.066   2.906  23.224  0.00  0.00    +0.149 HD
BRANCH  15  17
ATOM     17  C   UNL     1      -0.626   4.412  25.104  0.00  0.00    +0.255 C 
BRANCH  17   5
ATOM      5  O   UNL     1      -2.028   4.290  25.016  0.00  0.00    -0.374 OA
ATOM     20  C   UNL     1      -2.646   4.312  26.299  0.00  0.00    +0.194 C 
ENDBRANCH  17   5
ENDBRANCH  15  17
ENDBRANCH  12   7
ENDBRANCH  10  12
TORSDOF 8
ENDMDL
MODEL 7
REMARK VINA RESULT:      -3.8      2.407      3.146
REMARK  Name = 75536589
REMARK  9 active torsions:
REMARK  status: ('A' for Active; 'I' for Inactive)
REMARK    1  A    between atoms: O_3  and  C_9
REMARK    2  A    between atoms: O_5  and  C_17
REMARK    3  A    between atoms: O_5  and  C_20
REMARK    4  A    between atoms: N_6  and  C_8
REMARK    5  A    between atoms: N_6  and  C_13
REMARK    6  A    between atoms: N_7  and  C_12
REMARK    7  A    between atoms: C_10  and  C_12
REMARK    8  A    between atoms: C_13  and  C_14
REMARK    9  A    between atoms: C_15  and  C_17
REMARK                            x       y       z     vdW  Elec       q    Type
REMARK                         _______ _______ _______ _____ _____    ______ ____
ROOT
ATOM      2  O   UNL     1       0.786   1.779  24.661  0.00  0.00    -0.371 OA
ATOM      8  C   UNL     1      -1.506   2.406  24.679  0.00  0.00    +0.111 C 
ATOM      9  C   UNL     1      -1.305   1.287  23.671  0.00  0.00    +0.164 C 
ATOM     10  C   UNL     1       0.003   0.682  24.161  0.00  0.00    +0.165 C 
ATOM     11  C   UNL     1      -0.083   2.910  24.855  0.00  0.00    +0.181 C 
ENDROOT
BRANCH   9   3
ATOM      3  O   UNL     1      -2.360   0.345  23.685  0.00  0.00    -0.388 OA
ATOM     22  H   UNL     1      -3.179   0.799  23.424  0.00  0.00    +0.210 HD
ENDBRANCH   9   3
BRANCH   8   6
ATOM      6  N   UNL     1      -2.422   3.441  24.228  0.00  0.00    -0.304 NA
ATOM     21  H   UNL     1      -1.936   4.045  23.565  0.00  0.00    +0.123 HD
BRANCH   6  13
ATOM     13  C   UNL     1      -3.590   2.860  23.577  0.00  0.00    +0.124 C 
BRANCH  13  14
ATOM      1  S   UNL     1      -5.251   3.637  25.667  0.00  0.00    -0.100 S 
ATOM     14  C   UNL     1      -4.648   2.467  24.572  0.00  0.00    +0.004 A 
ATOM     16  C   UNL     1      -5.243   1.237  24.751  0.00  0.00    +0.012 A 
ATOM     18  C   UNL     1      -6.206   1.256  25.801  0.00  0.00    +0.008 A 
ATOM     19  C   UNL     1      -6.311   2.499  26.385  0.00  0.00    +0.045 A 
ENDBRANCH  13  14
ENDBRANCH   6  13
ENDBRANCH   8   6
BRANCH  10  12
ATOM     12  C   UNL     1       0.773  -0.043  23.073  0.00  0.00    +0.138 C 
BRANCH  12   7
ATOM      4  O   UNL     1       3.348  -1.336  23.335  0.00  0.00    -0.273 OA
ATOM      7  N   UNL     1       2.065   0.548  22.864  0.00  0.00    -0.311 N 
ATOM     15  C   UNL     1       3.257  -0.155  23.014  0.00  0.00    +0.239 C 
ATOM     23  H   UNL     1       2.100   1.529  22.605  0.00  0.00    +0.149 HD
BRANCH  15  17
ATOM     17  C   UNL     1       4.466   0.712  22.731  0.00  0.00    +0.255 C 
BRANCH  17   5
ATOM      5  O   UNL     1       5.260   0.853  23.889  0.00  0.00    -0.374 OA
ATOM     20  C   UNL     1       5.738  -0.403  24.362  0.00  0.00    +0.194 C 
ENDBRANCH  17   5
ENDBRANCH  15  17
ENDBRANCH  12   7
ENDBRANCH  10  12
TORSDOF 8
ENDMDL
MODEL 8
REMARK VINA RESULT:      -3.3      1.338      2.049
REMARK  Name = 75536589
REMARK  9 active torsions:
REMARK  status: ('A' for Active; 'I' for Inactive)
REMARK    1  A    between atoms: O_3  and  C_9
REMARK    2  A    between atoms: O_5  and  C_17
REMARK    3  A    between atoms: O_5  and  C_20
REMARK    4  A    between atoms: N_6  and  C_8
REMARK    5  A    between atoms: N_6  and  C_13
REMARK    6  A    between atoms: N_7  and  C_12
REMARK    7  A    between atoms: C_10  and  C_12
REMARK    8  A    between atoms: C_13  and  C_14
REMARK    9  A    between atoms: C_15  and  C_17
REMARK                            x       y       z     vdW  Elec       q    Type
REMARK                         _______ _______ _______ _____ _____    ______ ____
ROOT
ATOM      2  O   UNL     1      -1.305   4.310  24.906  0.00  0.00    -0.371 OA
ATOM      8  C   UNL     1      -3.034   2.716  25.237  0.00  0.00    +0.111 C 
ATOM      9  C   UNL     1      -1.735   1.985  24.944  0.00  0.00    +0.164 C 
ATOM     10  C   UNL     1      -0.711   3.058  25.287  0.00  0.00    +0.165 C 
ATOM     11  C   UNL     1      -2.718   4.110  24.722  0.00  0.00    +0.181 C 
ENDROOT
BRANCH   9   3
ATOM      3  O   UNL     1      -1.571   0.825  25.737  0.00  0.00    -0.388 OA
ATOM     22  H   UNL     1      -0.925   1.022  26.436  0.00  0.00    +0.210 HD
ENDBRANCH   9   3
BRANCH   8   6
ATOM      6  N   UNL     1      -4.195   2.124  24.593  0.00  0.00    -0.304 NA
ATOM     21  H   UNL     1      -3.906   1.712  23.706  0.00  0.00    +0.123 HD
BRANCH   6  13
ATOM     13  C   UNL     1      -4.788   1.087  25.430  0.00  0.00    +0.124 C 
BRANCH  13  14
ATOM      1  S   UNL     1      -3.541  -1.291  26.153  0.00  0.00    -0.100 S 
ATOM     14  C   UNL     1      -4.341  -0.290  25.017  0.00  0.00    +0.004 A 
ATOM     16  C   UNL     1      -4.482  -0.908  23.794  0.00  0.00    +0.012 A 
ATOM     18  C   UNL     1      -3.927  -2.219  23.789  0.00  0.00    +0.008 A 
ATOM     19  C   UNL     1      -3.381  -2.555  25.008  0.00  0.00    +0.045 A 
ENDBRANCH  13  14
ENDBRANCH   6  13
ENDBRANCH   8   6
BRANCH  10  12
ATOM     12  C   UNL     1       0.612   2.877  24.567  0.00  0.00    +0.138 C 
BRANCH  12   7
ATOM      4  O   UNL     1       2.919   1.717  23.263  0.00  0.00    -0.273 OA
ATOM      7  N   UNL     1       0.701   1.582  23.955  0.00  0.00    -0.311 N 
ATOM     15  C   UNL     1       1.858   1.104  23.347  0.00  0.00    +0.239 C 
ATOM     23  H   UNL     1      -0.130   0.998  23.961  0.00  0.00    +0.149 HD
BRANCH  15  17
ATOM     17  C   UNL     1       1.671  -0.289  22.786  0.00  0.00    +0.255 C 
BRANCH  17   5
ATOM      5  O   UNL     1       0.315  -0.676  22.853  0.00  0.00    -0.374 OA
ATOM     20  C   UNL     1      -0.005  -1.275  24.106  0.00  0.00    +0.194 C 
ENDBRANCH  17   5
ENDBRANCH  15  17
ENDBRANCH  12   7
ENDBRANCH  10  12
TORSDOF 8
ENDMDL
MODEL 9
REMARK VINA RESULT:      -3.2     15.723     17.912
REMARK  Name = 75536589
REMARK  9 active torsions:
REMARK  status: ('A' for Active; 'I' for Inactive)
REMARK    1  A    between atoms: O_3  and  C_9
REMARK    2  A    between atoms: O_5  and  C_17
REMARK    3  A    between atoms: O_5  and  C_20
REMARK    4  A    between atoms: N_6  and  C_8
REMARK    5  A    between atoms: N_6  and  C_13
REMARK    6  A    between atoms: N_7  and  C_12
REMARK    7  A    between atoms: C_10  and  C_12
REMARK    8  A    between atoms: C_13  and  C_14
REMARK    9  A    between atoms: C_15  and  C_17
REMARK                            x       y       z     vdW  Elec       q    Type
REMARK                         _______ _______ _______ _____ _____    ______ ____
ROOT
ATOM      2  O   UNL     1      17.211   6.788  20.155  0.00  0.00    -0.371 OA
ATOM      8  C   UNL     1      15.529   7.018  21.817  0.00  0.00    +0.111 C 
ATOM      9  C   UNL     1      14.867   6.882  20.457  0.00  0.00    +0.164 C 
ATOM     10  C   UNL     1      15.984   6.235  19.650  0.00  0.00    +0.165 C 
ATOM     11  C   UNL     1      16.943   7.411  21.424  0.00  0.00    +0.181 C 
ENDROOT
BRANCH   9   3
ATOM      3  O   UNL     1      13.706   6.074  20.494  0.00  0.00    -0.388 OA
ATOM     22  H   UNL     1      13.102   6.438  21.164  0.00  0.00    +0.210 HD
ENDBRANCH   9   3
BRANCH   8   6
ATOM      6  N   UNL     1      14.890   7.996  22.682  0.00  0.00    -0.304 NA
ATOM     21  H   UNL     1      15.584   8.368  23.330  0.00  0.00    +0.123 HD
BRANCH   6  13
ATOM     13  C   UNL     1      14.325   9.094  21.907  0.00  0.00    +0.124 C 
BRANCH  13  14
ATOM      1  S   UNL     1      11.981   9.093  20.409  0.00  0.00    -0.100 S 
ATOM     14  C   UNL     1      12.820   9.060  21.902  0.00  0.00    +0.004 A 
ATOM     16  C   UNL     1      11.959   9.003  22.977  0.00  0.00    +0.012 A 
ATOM     18  C   UNL     1      10.594   8.987  22.570  0.00  0.00    +0.008 A 
ATOM     19  C   UNL     1      10.462   9.032  21.199  0.00  0.00    +0.045 A 
ENDBRANCH  13  14
ENDBRANCH   6  13
ENDBRANCH   8   6
BRANCH  10  12
ATOM     12  C   UNL     1      15.877   6.497  18.159  0.00  0.00    +0.138 C 
BRANCH  12   7
ATOM      4  O   UNL     1      13.365   6.682  16.737  0.00  0.00    -0.273 OA
ATOM      7  N   UNL     1      15.119   7.686  17.891  0.00  0.00    -0.311 N 
ATOM     15  C   UNL     1      13.913   7.681  17.196  0.00  0.00    +0.239 C 
ATOM     23  H   UNL     1      15.494   8.571  18.220  0.00  0.00    +0.149 HD
BRANCH  15  17
ATOM     17  C   UNL     1      13.331   9.071  17.058  0.00  0.00    +0.255 C 
BRANCH  17   5
ATOM      5  O   UNL     1      11.938   9.052  17.280  0.00  0.00    -0.374 OA
ATOM     20  C   UNL     1      11.204   9.094  16.060  0.00  0.00    +0.194 C 
ENDBRANCH  17   5
ENDBRANCH  15  17
ENDBRANCH  12   7
ENDBRANCH  10  12
TORSDOF 8
ENDMDL
MODEL 10
REMARK VINA RESULT:      -2.9      2.285      5.101
REMARK  Name = 75536589
REMARK  9 active torsions:
REMARK  status: ('A' for Active; 'I' for Inactive)
REMARK    1  A    between atoms: O_3  and  C_9
REMARK    2  A    between atoms: O_5  and  C_17
REMARK    3  A    between atoms: O_5  and  C_20
REMARK    4  A    between atoms: N_6  and  C_8
REMARK    5  A    between atoms: N_6  and  C_13
REMARK    6  A    between atoms: N_7  and  C_12
REMARK    7  A    between atoms: C_10  and  C_12
REMARK    8  A    between atoms: C_13  and  C_14
REMARK    9  A    between atoms: C_15  and  C_17
REMARK                            x       y       z     vdW  Elec       q    Type
REMARK                         _______ _______ _______ _____ _____    ______ ____
ROOT
ATOM      2  O   UNL     1       0.338   2.147  23.726  0.00  0.00    -0.371 OA
ATOM      8  C   UNL     1      -0.582   0.177  24.684  0.00  0.00    +0.111 C 
ATOM      9  C   UNL     1      -1.362   1.381  25.181  0.00  0.00    +0.164 C 
ATOM     10  C   UNL     1      -1.020   2.413  24.115  0.00  0.00    +0.165 C 
ATOM     11  C   UNL     1       0.697   0.831  24.187  0.00  0.00    +0.181 C 
ENDROOT
BRANCH   9   3
ATOM      3  O   UNL     1      -2.754   1.137  25.252  0.00  0.00    -0.388 OA
ATOM     22  H   UNL     1      -2.911   0.460  25.932  0.00  0.00    +0.210 HD
ENDBRANCH   9   3
BRANCH   8   6
ATOM      6  N   UNL     1      -0.343  -0.827  25.708  0.00  0.00    -0.304 NA
ATOM     21  H   UNL     1      -0.917  -0.611  26.523  0.00  0.00    +0.123 HD
BRANCH   6  13
ATOM     13  C   UNL     1      -0.682  -2.161  25.225  0.00  0.00    +0.124 C 
BRANCH  13  14
ATOM      1  S   UNL     1      -2.558  -3.347  23.550  0.00  0.00    -0.100 S 
ATOM     14  C   UNL     1      -2.120  -2.249  24.789  0.00  0.00    +0.004 A 
ATOM     16  C   UNL     1      -3.205  -1.542  25.260  0.00  0.00    +0.012 A 
ATOM     18  C   UNL     1      -4.411  -1.906  24.595  0.00  0.00    +0.008 A 
ATOM     19  C   UNL     1      -4.203  -2.877  23.641  0.00  0.00    +0.045 A 
ENDBRANCH  13  14
ENDBRANCH   6  13
ENDBRANCH   8   6
BRANCH  10  12
ATOM     12  C   UNL     1      -1.142   3.844  24.605  0.00  0.00    +0.138 C 
BRANCH  12   7
ATOM      4  O   UNL     1      -3.880   3.608  23.701  0.00  0.00    -0.273 OA
ATOM      7  N   UNL     1      -2.331   4.029  25.386  0.00  0.00    -0.311 N 
ATOM     15  C   UNL     1      -3.615   3.894  24.865  0.00  0.00    +0.239 C 
ATOM     23  H   UNL     1      -2.220   4.281  26.364  0.00  0.00    +0.149 HD
BRANCH  15  17
ATOM     17  C   UNL     1      -4.681   4.144  25.910  0.00  0.00    +0.255 C 
BRANCH  17   5
ATOM      5  O   UNL     1      -5.901   3.547  25.530  0.00  0.00    -0.374 OA
ATOM     20  C   UNL     1      -5.915   2.148  25.798  0.00  0.00    +0.194 C 
ENDBRANCH  17   5
ENDBRANCH  15  17
ENDBRANCH  12   7
ENDBRANCH  10  12
TORSDOF 8
ENDMDL
