MODEL 1
REMARK VINA RESULT:      -5.9      0.000      0.000
REMARK  Name = 75536705
REMARK  9 active torsions:
REMARK  status: ('A' for Active; 'I' for Inactive)
REMARK    1  A    between atoms: S_1  and  N_7
REMARK    2  A    between atoms: S_1  and  C_16
REMARK    3  A    between atoms: O_3  and  C_10
REMARK    4  A    between atoms: N_6  and  C_9
REMARK    5  A    between atoms: N_6  and  C_14
REMARK    6  A    between atoms: N_7  and  C_13
REMARK    7  A    between atoms: C_11  and  C_13
REMARK    8  A    between atoms: C_14  and  C_15
REMARK    9  A    between atoms: C_22  and  C_26
REMARK                            x       y       z     vdW  Elec       q    Type
REMARK                         _______ _______ _______ _____ _____    ______ ____
ROOT
ATOM      2  O   UNL     1      -0.275   3.497  25.717  0.00  0.00    -0.371 OA
ATOM      9  C   UNL     1       0.139   1.786  24.123  0.00  0.00    +0.111 C 
ATOM     10  C   UNL     1      -1.314   2.212  24.026  0.00  0.00    +0.164 C 
ATOM     11  C   UNL     1      -1.260   3.588  24.675  0.00  0.00    +0.164 C 
ATOM     12  C   UNL     1       0.516   2.316  25.496  0.00  0.00    +0.181 C 
ENDROOT
BRANCH  10   3
ATOM      3  O   UNL     1      -1.776   2.277  22.690  0.00  0.00    -0.388 OA
ATOM     29  H   UNL     1      -2.664   1.881  22.655  0.00  0.00    +0.210 HD
ENDBRANCH  10   3
BRANCH   9   6
ATOM      6  N   UNL     1       0.335   0.350  23.997  0.00  0.00    -0.303 NA
ATOM     27  H   UNL     1      -0.575  -0.109  23.955  0.00  0.00    +0.123 HD
BRANCH   6  14
ATOM     14  C   UNL     1       1.083   0.028  22.788  0.00  0.00    +0.137 C 
BRANCH  14  15
ATOM      8  N   UNL     1       2.997  -1.243  23.588  0.00  0.00    -0.259 NA
ATOM     15  C   UNL     1       2.562  -0.080  23.055  0.00  0.00    +0.055 A 
ATOM     17  C   UNL     1       3.386   0.991  22.751  0.00  0.00    +0.024 A 
ATOM     23  C   UNL     1       4.746   0.859  23.008  0.00  0.00    +0.003 A 
ATOM     24  C   UNL     1       4.325  -1.335  23.825  0.00  0.00    +0.111 A 
ATOM     25  C   UNL     1       5.233  -0.323  23.556  0.00  0.00    +0.020 A 
ENDBRANCH  14  15
ENDBRANCH   6  14
ENDBRANCH   9   6
BRANCH  11  13
ATOM     13  C   UNL     1      -2.590   4.028  25.262  0.00  0.00    +0.140 C 
BRANCH  13   7
ATOM      7  N   UNL     1      -3.274   2.866  25.863  0.00  0.00    -0.187 NA
ATOM     28  H   UNL     1      -2.689   2.260  26.453  0.00  0.00    +0.148 HD
BRANCH   7   1
ATOM      1  S   UNL     1      -4.628   2.184  25.094  0.00  0.00    +0.058 S 
ATOM      4  O   UNL     1      -4.755   2.740  23.760  0.00  0.00    -0.153 OA
ATOM      5  O   UNL     1      -5.755   2.214  26.007  0.00  0.00    -0.153 OA
BRANCH   1  16
ATOM     16  C   UNL     1      -4.140   0.492  24.934  0.00  0.00    +0.105 A 
ATOM     18  C   UNL     1      -3.142  -0.026  25.759  0.00  0.00    +0.029 A 
ATOM     19  C   UNL     1      -4.750  -0.323  23.980  0.00  0.00    +0.029 A 
ATOM     20  C   UNL     1      -2.754  -1.359  25.631  0.00  0.00    +0.005 A 
ATOM     21  C   UNL     1      -4.362  -1.657  23.853  0.00  0.00    +0.005 A 
ATOM     22  C   UNL     1      -3.364  -2.175  24.677  0.00  0.00    -0.050 A 
ATOM     26  C   UNL     1      -2.950  -3.601  24.541  0.00  0.00    +0.044 C 
ENDBRANCH   1  16
ENDBRANCH   7   1
ENDBRANCH  13   7
ENDBRANCH  11  13
TORSDOF 8
ENDMDL
MODEL 2
REMARK VINA RESULT:      -5.4      1.904      4.060
REMARK  Name = 75536705
REMARK  9 active torsions:
REMARK  status: ('A' for Active; 'I' for Inactive)
REMARK    1  A    between atoms: S_1  and  N_7
REMARK    2  A    between atoms: S_1  and  C_16
REMARK    3  A    between atoms: O_3  and  C_10
REMARK    4  A    between atoms: N_6  and  C_9
REMARK    5  A    between atoms: N_6  and  C_14
REMARK    6  A    between atoms: N_7  and  C_13
REMARK    7  A    between atoms: C_11  and  C_13
REMARK    8  A    between atoms: C_14  and  C_15
REMARK    9  A    between atoms: C_22  and  C_26
REMARK                            x       y       z     vdW  Elec       q    Type
REMARK                         _______ _______ _______ _____ _____    ______ ____
ROOT
ATOM      2  O   UNL     1      -1.948  -2.522  24.059  0.00  0.00    -0.371 OA
ATOM      9  C   UNL     1      -0.138  -1.037  24.458  0.00  0.00    +0.111 C 
ATOM     10  C   UNL     1      -1.293  -0.665  25.369  0.00  0.00    +0.164 C 
ATOM     11  C   UNL     1      -2.091  -1.962  25.375  0.00  0.00    +0.164 C 
ATOM     12  C   UNL     1      -0.844  -1.873  23.404  0.00  0.00    +0.181 C 
ENDROOT
BRANCH  10   3
ATOM      3  O   UNL     1      -0.868  -0.301  26.668  0.00  0.00    -0.388 OA
ATOM     29  H   UNL     1       0.103  -0.357  26.699  0.00  0.00    +0.210 HD
ENDBRANCH  10   3
BRANCH   9   6
ATOM      6  N   UNL     1       0.556   0.112  23.897  0.00  0.00    -0.303 NA
ATOM     27  H   UNL     1       1.162   0.517  24.611  0.00  0.00    +0.123 HD
BRANCH   6  14
ATOM     14  C   UNL     1       1.369  -0.275  22.751  0.00  0.00    +0.137 C 
BRANCH  14  15
ATOM      8  N   UNL     1       3.375  -1.359  23.601  0.00  0.00    -0.259 NA
ATOM     15  C   UNL     1       2.841  -0.237  23.070  0.00  0.00    +0.055 A 
ATOM     17  C   UNL     1       3.562   0.918  22.811  0.00  0.00    +0.024 A 
ATOM     23  C   UNL     1       4.918   0.920  23.116  0.00  0.00    +0.003 A 
ATOM     24  C   UNL     1       4.696  -1.320  23.884  0.00  0.00    +0.111 A 
ATOM     25  C   UNL     1       5.504  -0.216  23.663  0.00  0.00    +0.020 A 
ENDBRANCH  14  15
ENDBRANCH   6  14
ENDBRANCH   9   6
BRANCH  11  13
ATOM     13  C   UNL     1      -3.563  -1.760  25.690  0.00  0.00    +0.140 C 
BRANCH  13   7
ATOM      7  N   UNL     1      -3.829  -0.325  25.911  0.00  0.00    -0.187 NA
ATOM     28  H   UNL     1      -4.069  -0.058  26.874  0.00  0.00    +0.148 HD
BRANCH   7   1
ATOM      1  S   UNL     1      -4.411   0.638  24.636  0.00  0.00    +0.058 S 
ATOM      4  O   UNL     1      -5.763   1.070  24.938  0.00  0.00    -0.153 OA
ATOM      5  O   UNL     1      -4.120  -0.019  23.376  0.00  0.00    -0.153 OA
BRANCH   1  16
ATOM     16  C   UNL     1      -3.353   2.051  24.737  0.00  0.00    +0.105 A 
ATOM     18  C   UNL     1      -3.651   3.082  25.627  0.00  0.00    +0.029 A 
ATOM     19  C   UNL     1      -2.222   2.135  23.924  0.00  0.00    +0.029 A 
ATOM     20  C   UNL     1      -2.819   4.199  25.704  0.00  0.00    +0.005 A 
ATOM     21  C   UNL     1      -1.389   3.251  24.003  0.00  0.00    +0.005 A 
ATOM     22  C   UNL     1      -1.687   4.282  24.892  0.00  0.00    -0.050 A 
ATOM     26  C   UNL     1      -0.796   5.476  24.975  0.00  0.00    +0.044 C 
ENDBRANCH   1  16
ENDBRANCH   7   1
ENDBRANCH  13   7
ENDBRANCH  11  13
TORSDOF 8
ENDMDL
MODEL 3
REMARK VINA RESULT:      -3.7      2.437      5.658
REMARK  Name = 75536705
REMARK  9 active torsions:
REMARK  status: ('A' for Active; 'I' for Inactive)
REMARK    1  A    between atoms: S_1  and  N_7
REMARK    2  A    between atoms: S_1  and  C_16
REMARK    3  A    between atoms: O_3  and  C_10
REMARK    4  A    between atoms: N_6  and  C_9
REMARK    5  A    between atoms: N_6  and  C_14
REMARK    6  A    between atoms: N_7  and  C_13
REMARK    7  A    between atoms: C_11  and  C_13
REMARK    8  A    between atoms: C_14  and  C_15
REMARK    9  A    between atoms: C_22  and  C_26
REMARK                            x       y       z     vdW  Elec       q    Type
REMARK                         _______ _______ _______ _____ _____    ______ ____
ROOT
ATOM      2  O   UNL     1      -2.572   3.423  23.578  0.00  0.00    -0.371 OA
ATOM      9  C   UNL     1      -4.724   2.610  24.167  0.00  0.00    +0.111 C 
ATOM     10  C   UNL     1      -4.155   3.394  25.334  0.00  0.00    +0.164 C 
ATOM     11  C   UNL     1      -3.103   4.241  24.633  0.00  0.00    +0.164 C 
ATOM     12  C   UNL     1      -3.471   2.321  23.359  0.00  0.00    +0.181 C 
ENDROOT
BRANCH  10   3
ATOM      3  O   UNL     1      -5.128   4.190  25.984  0.00  0.00    -0.388 OA
ATOM     29  H   UNL     1      -6.008   3.900  25.686  0.00  0.00    +0.210 HD
ENDBRANCH  10   3
BRANCH   9   6
ATOM      6  N   UNL     1      -5.432   1.403  24.564  0.00  0.00    -0.303 NA
ATOM     27  H   UNL     1      -5.489   0.770  23.765  0.00  0.00    +0.123 HD
BRANCH   6  14
ATOM     14  C   UNL     1      -4.741   0.724  25.654  0.00  0.00    +0.137 C 
BRANCH  14  15
ATOM      8  N   UNL     1      -3.212  -1.134  26.018  0.00  0.00    -0.259 NA
ATOM     15  C   UNL     1      -4.149  -0.589  25.211  0.00  0.00    +0.055 A 
ATOM     17  C   UNL     1      -4.583  -1.163  24.027  0.00  0.00    +0.024 A 
ATOM     23  C   UNL     1      -4.018  -2.376  23.648  0.00  0.00    +0.003 A 
ATOM     24  C   UNL     1      -2.686  -2.312  25.617  0.00  0.00    +0.111 A 
ATOM     25  C   UNL     1      -3.051  -2.968  24.452  0.00  0.00    +0.020 A 
ENDBRANCH  14  15
ENDBRANCH   6  14
ENDBRANCH   9   6
BRANCH  11  13
ATOM     13  C   UNL     1      -1.979   4.686  25.553  0.00  0.00    +0.140 C 
BRANCH  13   7
ATOM      7  N   UNL     1      -0.737   3.973  25.198  0.00  0.00    -0.187 NA
ATOM     28  H   UNL     1      -0.402   4.112  24.236  0.00  0.00    +0.148 HD
BRANCH   7   1
ATOM      1  S   UNL     1      -0.327   2.528  25.996  0.00  0.00    +0.058 S 
ATOM      4  O   UNL     1      -1.527   1.924  26.545  0.00  0.00    -0.153 OA
ATOM      5  O   UNL     1       0.823   2.768  26.847  0.00  0.00    -0.153 OA
BRANCH   1  16
ATOM     16  C   UNL     1       0.226   1.517  24.655  0.00  0.00    +0.105 A 
ATOM     18  C   UNL     1       1.435   1.802  24.020  0.00  0.00    +0.029 A 
ATOM     19  C   UNL     1      -0.548   0.437  24.230  0.00  0.00    +0.029 A 
ATOM     20  C   UNL     1       1.870   1.007  22.960  0.00  0.00    +0.005 A 
ATOM     21  C   UNL     1      -0.113  -0.358  23.169  0.00  0.00    +0.005 A 
ATOM     22  C   UNL     1       1.096  -0.073  22.535  0.00  0.00    -0.050 A 
ATOM     26  C   UNL     1       1.561  -0.923  21.401  0.00  0.00    +0.044 C 
ENDBRANCH   1  16
ENDBRANCH   7   1
ENDBRANCH  13   7
ENDBRANCH  11  13
TORSDOF 8
ENDMDL
MODEL 4
REMARK VINA RESULT:      -3.4      3.205      6.895
REMARK  Name = 75536705
REMARK  9 active torsions:
REMARK  status: ('A' for Active; 'I' for Inactive)
REMARK    1  A    between atoms: S_1  and  N_7
REMARK    2  A    between atoms: S_1  and  C_16
REMARK    3  A    between atoms: O_3  and  C_10
REMARK    4  A    between atoms: N_6  and  C_9
REMARK    5  A    between atoms: N_6  and  C_14
REMARK    6  A    between atoms: N_7  and  C_13
REMARK    7  A    between atoms: C_11  and  C_13
REMARK    8  A    between atoms: C_14  and  C_15
REMARK    9  A    between atoms: C_22  and  C_26
REMARK                            x       y       z     vdW  Elec       q    Type
REMARK                         _______ _______ _______ _____ _____    ______ ____
ROOT
ATOM      2  O   UNL     1      -1.603  -1.372  26.421  0.00  0.00    -0.371 OA
ATOM      9  C   UNL     1      -3.600  -1.688  25.176  0.00  0.00    +0.111 C 
ATOM     10  C   UNL     1      -2.416  -2.121  24.331  0.00  0.00    +0.164 C 
ATOM     11  C   UNL     1      -1.362  -2.357  25.403  0.00  0.00    +0.164 C 
ATOM     12  C   UNL     1      -2.920  -0.827  26.227  0.00  0.00    +0.181 C 
ENDROOT
BRANCH  10   3
ATOM      3  O   UNL     1      -2.679  -3.292  23.582  0.00  0.00    -0.388 OA
ATOM     29  H   UNL     1      -2.432  -3.124  22.656  0.00  0.00    +0.210 HD
ENDBRANCH  10   3
BRANCH   9   6
ATOM      6  N   UNL     1      -4.618  -0.968  24.427  0.00  0.00    -0.303 NA
ATOM     27  H   UNL     1      -5.333  -0.632  25.073  0.00  0.00    +0.123 HD
BRANCH   6  14
ATOM     14  C   UNL     1      -4.044   0.172  23.724  0.00  0.00    +0.137 C 
BRANCH  14  15
ATOM      8  N   UNL     1      -5.288   1.409  25.409  0.00  0.00    -0.259 NA
ATOM     15  C   UNL     1      -4.484   1.482  24.326  0.00  0.00    +0.055 A 
ATOM     17  C   UNL     1      -4.055   2.669  23.755  0.00  0.00    +0.024 A 
ATOM     23  C   UNL     1      -4.478   3.859  24.336  0.00  0.00    +0.003 A 
ATOM     24  C   UNL     1      -5.679   2.587  25.946  0.00  0.00    +0.111 A 
ATOM     25  C   UNL     1      -5.306   3.826  25.453  0.00  0.00    +0.020 A 
ENDBRANCH  14  15
ENDBRANCH   6  14
ENDBRANCH   9   6
BRANCH  11  13
ATOM     13  C   UNL     1       0.060  -2.225  24.886  0.00  0.00    +0.140 C 
BRANCH  13   7
ATOM      7  N   UNL     1       0.502  -0.822  25.007  0.00  0.00    -0.187 NA
ATOM     28  H   UNL     1       0.301  -0.366  25.906  0.00  0.00    +0.148 HD
BRANCH   7   1
ATOM      1  S   UNL     1       0.635   0.152  23.619  0.00  0.00    +0.058 S 
ATOM      4  O   UNL     1      -0.237  -0.368  22.582  0.00  0.00    -0.153 OA
ATOM      5  O   UNL     1       2.039   0.388  23.340  0.00  0.00    -0.153 OA
BRANCH   1  16
ATOM     16  C   UNL     1      -0.043   1.683  24.184  0.00  0.00    +0.105 A 
ATOM     18  C   UNL     1      -0.022   2.804  23.354  0.00  0.00    +0.029 A 
ATOM     19  C   UNL     1      -0.598   1.771  25.462  0.00  0.00    +0.029 A 
ATOM     20  C   UNL     1      -0.553   4.013  23.801  0.00  0.00    +0.005 A 
ATOM     21  C   UNL     1      -1.130   2.981  25.908  0.00  0.00    +0.005 A 
ATOM     22  C   UNL     1      -1.108   4.101  25.079  0.00  0.00    -0.050 A 
ATOM     26  C   UNL     1      -1.677   5.395  25.556  0.00  0.00    +0.044 C 
ENDBRANCH   1  16
ENDBRANCH   7   1
ENDBRANCH  13   7
ENDBRANCH  11  13
TORSDOF 8
ENDMDL
MODEL 5
REMARK VINA RESULT:      -3.3      1.936      6.644
REMARK  Name = 75536705
REMARK  9 active torsions:
REMARK  status: ('A' for Active; 'I' for Inactive)
REMARK    1  A    between atoms: S_1  and  N_7
REMARK    2  A    between atoms: S_1  and  C_16
REMARK    3  A    between atoms: O_3  and  C_10
REMARK    4  A    between atoms: N_6  and  C_9
REMARK    5  A    between atoms: N_6  and  C_14
REMARK    6  A    between atoms: N_7  and  C_13
REMARK    7  A    between atoms: C_11  and  C_13
REMARK    8  A    between atoms: C_14  and  C_15
REMARK    9  A    between atoms: C_22  and  C_26
REMARK                            x       y       z     vdW  Elec       q    Type
REMARK                         _______ _______ _______ _____ _____    ______ ____
ROOT
ATOM      2  O   UNL     1      -1.762   2.662  22.941  0.00  0.00    -0.371 OA
ATOM      9  C   UNL     1      -3.307   2.856  24.734  0.00  0.00    +0.111 C 
ATOM     10  C   UNL     1      -1.910   2.680  25.301  0.00  0.00    +0.164 C 
ATOM     11  C   UNL     1      -1.057   3.101  24.113  0.00  0.00    +0.164 C 
ATOM     12  C   UNL     1      -3.119   2.359  23.311  0.00  0.00    +0.181 C 
ENDROOT
BRANCH  10   3
ATOM      3  O   UNL     1      -1.674   3.491  26.435  0.00  0.00    -0.388 OA
ATOM     29  H   UNL     1      -2.352   3.288  27.103  0.00  0.00    +0.210 HD
ENDBRANCH  10   3
BRANCH   9   6
ATOM      6  N   UNL     1      -4.329   2.119  25.461  0.00  0.00    -0.303 NA
ATOM     27  H   UNL     1      -5.039   2.773  25.793  0.00  0.00    +0.123 HD
BRANCH   6  14
ATOM     14  C   UNL     1      -4.965   1.124  24.607  0.00  0.00    +0.137 C 
BRANCH  14  15
ATOM      8  N   UNL     1      -3.688  -0.468  25.931  0.00  0.00    -0.259 NA
ATOM     15  C   UNL     1      -4.339  -0.237  24.769  0.00  0.00    +0.055 A 
ATOM     17  C   UNL     1      -4.456  -1.164  23.747  0.00  0.00    +0.024 A 
ATOM     23  C   UNL     1      -3.867  -2.410  23.929  0.00  0.00    +0.003 A 
ATOM     24  C   UNL     1      -3.128  -1.691  26.072  0.00  0.00    +0.111 A 
ATOM     25  C   UNL     1      -3.189  -2.688  25.110  0.00  0.00    +0.020 A 
ENDBRANCH  14  15
ENDBRANCH   6  14
ENDBRANCH   9   6
BRANCH  11  13
ATOM     13  C   UNL     1       0.337   2.497  24.130  0.00  0.00    +0.140 C 
BRANCH  13   7
ATOM      7  N   UNL     1       0.261   1.090  24.568  0.00  0.00    -0.187 NA
ATOM     28  H   UNL     1       0.458   0.920  25.562  0.00  0.00    +0.148 HD
BRANCH   7   1
ATOM      1  S   UNL     1       0.560  -0.165  23.458  0.00  0.00    +0.058 S 
ATOM      4  O   UNL     1       0.068   0.224  22.150  0.00  0.00    -0.153 OA
ATOM      5  O   UNL     1       0.148  -1.425  24.047  0.00  0.00    -0.153 OA
BRANCH   1  16
ATOM     16  C   UNL     1       2.326  -0.178  23.395  0.00  0.00    +0.105 A 
ATOM     18  C   UNL     1       3.015   0.933  22.907  0.00  0.00    +0.029 A 
ATOM     19  C   UNL     1       3.031  -1.301  23.829  0.00  0.00    +0.029 A 
ATOM     20  C   UNL     1       4.408   0.921  22.854  0.00  0.00    +0.005 A 
ATOM     21  C   UNL     1       4.425  -1.312  23.776  0.00  0.00    +0.005 A 
ATOM     22  C   UNL     1       5.113  -0.202  23.288  0.00  0.00    -0.050 A 
ATOM     26  C   UNL     1       6.604  -0.214  23.232  0.00  0.00    +0.044 C 
ENDBRANCH   1  16
ENDBRANCH   7   1
ENDBRANCH  13   7
ENDBRANCH  11  13
TORSDOF 8
ENDMDL
MODEL 6
REMARK VINA RESULT:      -3.1     14.966     17.647
REMARK  Name = 75536705
REMARK  9 active torsions:
REMARK  status: ('A' for Active; 'I' for Inactive)
REMARK    1  A    between atoms: S_1  and  N_7
REMARK    2  A    between atoms: S_1  and  C_16
REMARK    3  A    between atoms: O_3  and  C_10
REMARK    4  A    between atoms: N_6  and  C_9
REMARK    5  A    between atoms: N_6  and  C_14
REMARK    6  A    between atoms: N_7  and  C_13
REMARK    7  A    between atoms: C_11  and  C_13
REMARK    8  A    between atoms: C_14  and  C_15
REMARK    9  A    between atoms: C_22  and  C_26
REMARK                            x       y       z     vdW  Elec       q    Type
REMARK                         _______ _______ _______ _____ _____    ______ ____
ROOT
ATOM      2  O   UNL     1      -2.184 -10.321  14.046  0.00  0.00    -0.371 OA
ATOM      9  C   UNL     1      -4.104 -10.697  15.392  0.00  0.00    +0.111 C 
ATOM     10  C   UNL     1      -4.543 -10.154  14.046  0.00  0.00    +0.164 C 
ATOM     11  C   UNL     1      -3.326 -10.477  13.189  0.00  0.00    +0.164 C 
ATOM     12  C   UNL     1      -2.636 -10.304  15.412  0.00  0.00    +0.181 C 
ENDROOT
BRANCH  10   3
ATOM      3  O   UNL     1      -5.713 -10.781  13.559  0.00  0.00    -0.388 OA
ATOM     29  H   UNL     1      -5.602 -11.744  13.644  0.00  0.00    +0.210 HD
ENDBRANCH  10   3
BRANCH   9   6
ATOM      6  N   UNL     1      -4.851 -10.149  16.514  0.00  0.00    -0.303 NA
ATOM     27  H   UNL     1      -4.231  -9.565  17.075  0.00  0.00    +0.123 HD
BRANCH   6  14
ATOM     14  C   UNL     1      -5.971  -9.337  16.051  0.00  0.00    +0.137 C 
BRANCH  14  15
ATOM      8  N   UNL     1      -7.177 -10.106  18.019  0.00  0.00    -0.259 NA
ATOM     15  C   UNL     1      -7.261  -9.726  16.725  0.00  0.00    +0.055 A 
ATOM     17  C   UNL     1      -8.443  -9.678  16.005  0.00  0.00    +0.024 A 
ATOM     23  C   UNL     1      -9.616 -10.043  16.657  0.00  0.00    +0.003 A 
ATOM     24  C   UNL     1      -8.338 -10.453  18.620  0.00  0.00    +0.111 A 
ATOM     25  C   UNL     1      -9.572 -10.438  17.989  0.00  0.00    +0.020 A 
ENDBRANCH  14  15
ENDBRANCH   6  14
ENDBRANCH   9   6
BRANCH  11  13
ATOM     13  C   UNL     1      -3.187  -9.572  11.977  0.00  0.00    +0.140 C 
BRANCH  13   7
ATOM      7  N   UNL     1      -4.515  -9.346  11.374  0.00  0.00    -0.187 NA
ATOM     28  H   UNL     1      -5.319  -9.499  11.994  0.00  0.00    +0.148 HD
BRANCH   7   1
ATOM      1  S   UNL     1      -4.734  -9.549   9.699  0.00  0.00    +0.058 S 
ATOM      4  O   UNL     1      -4.069 -10.765   9.271  0.00  0.00    -0.153 OA
ATOM      5  O   UNL     1      -4.456  -8.292   9.030  0.00  0.00    -0.153 OA
BRANCH   1  16
ATOM     16  C   UNL     1      -6.478  -9.815   9.592  0.00  0.00    +0.105 A 
ATOM     18  C   UNL     1      -7.046 -10.245   8.393  0.00  0.00    +0.029 A 
ATOM     19  C   UNL     1      -7.288  -9.592  10.706  0.00  0.00    +0.029 A 
ATOM     20  C   UNL     1      -8.422 -10.452   8.307  0.00  0.00    +0.005 A 
ATOM     21  C   UNL     1      -8.665  -9.799  10.620  0.00  0.00    +0.005 A 
ATOM     22  C   UNL     1      -9.232 -10.229   9.421  0.00  0.00    -0.050 A 
ATOM     26  C   UNL     1     -10.704 -10.451   9.329  0.00  0.00    +0.044 C 
ENDBRANCH   1  16
ENDBRANCH   7   1
ENDBRANCH  13   7
ENDBRANCH  11  13
TORSDOF 8
ENDMDL
MODEL 7
REMARK VINA RESULT:      -2.9      2.277      3.613
REMARK  Name = 75536705
REMARK  9 active torsions:
REMARK  status: ('A' for Active; 'I' for Inactive)
REMARK    1  A    between atoms: S_1  and  N_7
REMARK    2  A    between atoms: S_1  and  C_16
REMARK    3  A    between atoms: O_3  and  C_10
REMARK    4  A    between atoms: N_6  and  C_9
REMARK    5  A    between atoms: N_6  and  C_14
REMARK    6  A    between atoms: N_7  and  C_13
REMARK    7  A    between atoms: C_11  and  C_13
REMARK    8  A    between atoms: C_14  and  C_15
REMARK    9  A    between atoms: C_22  and  C_26
REMARK                            x       y       z     vdW  Elec       q    Type
REMARK                         _______ _______ _______ _____ _____    ______ ____
ROOT
ATOM      2  O   UNL     1      -0.797   2.925  26.449  0.00  0.00    -0.371 OA
ATOM      9  C   UNL     1       0.144   1.902  24.524  0.00  0.00    +0.111 C 
ATOM     10  C   UNL     1      -0.593   3.160  24.105  0.00  0.00    +0.164 C 
ATOM     11  C   UNL     1      -0.649   3.920  25.423  0.00  0.00    +0.164 C 
ATOM     12  C   UNL     1      -0.459   1.642  25.893  0.00  0.00    +0.181 C 
ENDROOT
BRANCH  10   3
ATOM      3  O   UNL     1       0.092   3.888  23.104  0.00  0.00    -0.388 OA
ATOM     29  H   UNL     1      -0.355   4.745  22.989  0.00  0.00    +0.210 HD
ENDBRANCH  10   3
BRANCH   9   6
ATOM      6  N   UNL     1      -0.034   0.788  23.605  0.00  0.00    -0.303 NA
ATOM     27  H   UNL     1       0.520   0.956  22.765  0.00  0.00    +0.123 HD
BRANCH   6  14
ATOM     14  C   UNL     1       0.396  -0.465  24.212  0.00  0.00    +0.137 C 
BRANCH  14  15
ATOM      8  N   UNL     1      -1.135  -2.350  24.064  0.00  0.00    -0.259 NA
ATOM     15  C   UNL     1      -0.767  -1.252  24.759  0.00  0.00    +0.055 A 
ATOM     17  C   UNL     1      -1.389  -0.823  25.920  0.00  0.00    +0.024 A 
ATOM     23  C   UNL     1      -2.458  -1.572  26.400  0.00  0.00    +0.003 A 
ATOM     24  C   UNL     1      -2.178  -3.053  24.560  0.00  0.00    +0.111 A 
ATOM     25  C   UNL     1      -2.867  -2.709  25.713  0.00  0.00    +0.020 A 
ENDBRANCH  14  15
ENDBRANCH   6  14
ENDBRANCH   9   6
BRANCH  11  13
ATOM     13  C   UNL     1      -1.798   4.910  25.497  0.00  0.00    +0.140 C 
BRANCH  13   7
ATOM      7  N   UNL     1      -3.006   4.229  26.001  0.00  0.00    -0.187 NA
ATOM     28  H   UNL     1      -2.845   3.487  26.693  0.00  0.00    +0.148 HD
BRANCH   7   1
ATOM      1  S   UNL     1      -4.401   4.140  25.030  0.00  0.00    +0.058 S 
ATOM      4  O   UNL     1      -4.185   4.892  23.808  0.00  0.00    -0.153 OA
ATOM      5  O   UNL     1      -5.566   4.404  25.852  0.00  0.00    -0.153 OA
BRANCH   1  16
ATOM     16  C   UNL     1      -4.442   2.423  24.613  0.00  0.00    +0.105 A 
ATOM     18  C   UNL     1      -5.368   1.579  25.225  0.00  0.00    +0.029 A 
ATOM     19  C   UNL     1      -3.547   1.911  23.673  0.00  0.00    +0.029 A 
ATOM     20  C   UNL     1      -5.399   0.223  24.898  0.00  0.00    +0.005 A 
ATOM     21  C   UNL     1      -3.578   0.556  23.346  0.00  0.00    +0.005 A 
ATOM     22  C   UNL     1      -4.504  -0.288  23.958  0.00  0.00    -0.050 A 
ATOM     26  C   UNL     1      -4.537  -1.738  23.608  0.00  0.00    +0.044 C 
ENDBRANCH   1  16
ENDBRANCH   7   1
ENDBRANCH  13   7
ENDBRANCH  11  13
TORSDOF 8
ENDMDL
MODEL 8
REMARK VINA RESULT:      -2.8      2.454      6.976
REMARK  Name = 75536705
REMARK  9 active torsions:
REMARK  status: ('A' for Active; 'I' for Inactive)
REMARK    1  A    between atoms: S_1  and  N_7
REMARK    2  A    between atoms: S_1  and  C_16
REMARK    3  A    between atoms: O_3  and  C_10
REMARK    4  A    between atoms: N_6  and  C_9
REMARK    5  A    between atoms: N_6  and  C_14
REMARK    6  A    between atoms: N_7  and  C_13
REMARK    7  A    between atoms: C_11  and  C_13
REMARK    8  A    between atoms: C_14  and  C_15
REMARK    9  A    between atoms: C_22  and  C_26
REMARK                            x       y       z     vdW  Elec       q    Type
REMARK                         _______ _______ _______ _____ _____    ______ ____
ROOT
ATOM      2  O   UNL     1      -1.441  -0.795  25.828  0.00  0.00    -0.371 OA
ATOM      9  C   UNL     1      -3.733  -0.346  25.397  0.00  0.00    +0.111 C 
ATOM     10  C   UNL     1      -3.163  -1.158  24.249  0.00  0.00    +0.164 C 
ATOM     11  C   UNL     1      -1.940  -1.779  24.908  0.00  0.00    +0.164 C 
ATOM     12  C   UNL     1      -2.467   0.191  26.043  0.00  0.00    +0.181 C 
ENDROOT
BRANCH  10   3
ATOM      3  O   UNL     1      -4.064  -2.141  23.775  0.00  0.00    -0.388 OA
ATOM     29  H   UNL     1      -4.633  -2.416  24.515  0.00  0.00    +0.210 HD
ENDBRANCH  10   3
BRANCH   9   6
ATOM      6  N   UNL     1      -4.642   0.707  24.972  0.00  0.00    -0.303 NA
ATOM     27  H   UNL     1      -4.858   1.304  25.771  0.00  0.00    +0.123 HD
BRANCH   6  14
ATOM     14  C   UNL     1      -4.045   1.523  23.922  0.00  0.00    +0.137 C 
BRANCH  14  15
ATOM      8  N   UNL     1      -2.038   2.898  23.962  0.00  0.00    -0.259 NA
ATOM     15  C   UNL     1      -3.264   2.681  24.487  0.00  0.00    +0.055 A 
ATOM     17  C   UNL     1      -3.824   3.450  25.493  0.00  0.00    +0.024 A 
ATOM     23  C   UNL     1      -3.078   4.512  25.992  0.00  0.00    +0.003 A 
ATOM     24  C   UNL     1      -1.342   3.938  24.472  0.00  0.00    +0.111 A 
ATOM     25  C   UNL     1      -1.812   4.768  25.477  0.00  0.00    +0.020 A 
ENDBRANCH  14  15
ENDBRANCH   6  14
ENDBRANCH   9   6
BRANCH  11  13
ATOM     13  C   UNL     1      -0.851  -2.156  23.918  0.00  0.00    +0.140 C 
BRANCH  13   7
ATOM      7  N   UNL     1       0.357  -1.350  24.181  0.00  0.00    -0.187 NA
ATOM     28  H   UNL     1       0.632  -1.267  25.168  0.00  0.00    +0.148 HD
BRANCH   7   1
ATOM      1  S   UNL     1       0.799  -0.105  23.110  0.00  0.00    +0.058 S 
ATOM      4  O   UNL     1       0.344   1.168  23.638  0.00  0.00    -0.153 OA
ATOM      5  O   UNL     1       0.452  -0.499  21.758  0.00  0.00    -0.153 OA
BRANCH   1  16
ATOM     16  C   UNL     1       2.563  -0.141  23.221  0.00  0.00    +0.105 A 
ATOM     18  C   UNL     1       3.309   0.971  22.830  0.00  0.00    +0.029 A 
ATOM     19  C   UNL     1       3.209  -1.282  23.698  0.00  0.00    +0.029 A 
ATOM     20  C   UNL     1       4.700   0.942  22.914  0.00  0.00    +0.005 A 
ATOM     21  C   UNL     1       4.601  -1.310  23.783  0.00  0.00    +0.005 A 
ATOM     22  C   UNL     1       5.347  -0.199  23.391  0.00  0.00    -0.050 A 
ATOM     26  C   UNL     1       6.835  -0.230  23.481  0.00  0.00    +0.044 C 
ENDBRANCH   1  16
ENDBRANCH   7   1
ENDBRANCH  13   7
ENDBRANCH  11  13
TORSDOF 8
ENDMDL
MODEL 9
REMARK VINA RESULT:      -2.4      1.646      2.097
REMARK  Name = 75536705
REMARK  9 active torsions:
REMARK  status: ('A' for Active; 'I' for Inactive)
REMARK    1  A    between atoms: S_1  and  N_7
REMARK    2  A    between atoms: S_1  and  C_16
REMARK    3  A    between atoms: O_3  and  C_10
REMARK    4  A    between atoms: N_6  and  C_9
REMARK    5  A    between atoms: N_6  and  C_14
REMARK    6  A    between atoms: N_7  and  C_13
REMARK    7  A    between atoms: C_11  and  C_13
REMARK    8  A    between atoms: C_14  and  C_15
REMARK    9  A    between atoms: C_22  and  C_26
REMARK                            x       y       z     vdW  Elec       q    Type
REMARK                         _______ _______ _______ _____ _____    ______ ____
ROOT
ATOM      2  O   UNL     1      -2.481   3.113  26.815  0.00  0.00    -0.371 OA
ATOM      9  C   UNL     1      -0.762   3.454  25.212  0.00  0.00    +0.111 C 
ATOM     10  C   UNL     1      -2.008   4.196  24.766  0.00  0.00    +0.164 C 
ATOM     11  C   UNL     1      -2.764   4.316  26.082  0.00  0.00    +0.164 C 
ATOM     12  C   UNL     1      -1.339   2.472  26.217  0.00  0.00    +0.181 C 
ENDROOT
BRANCH  10   3
ATOM      3  O   UNL     1      -1.719   5.462  24.205  0.00  0.00    -0.388 OA
ATOM     29  H   UNL     1      -1.387   5.326  23.301  0.00  0.00    +0.210 HD
ENDBRANCH  10   3
BRANCH   9   6
ATOM      6  N   UNL     1      -0.052   2.798  24.124  0.00  0.00    -0.303 NA
ATOM     27  H   UNL     1       0.649   3.438  23.750  0.00  0.00    +0.123 HD
BRANCH   6  14
ATOM     14  C   UNL     1       0.614   1.587  24.588  0.00  0.00    +0.137 C 
BRANCH  14  15
ATOM      8  N   UNL     1       0.904   0.135  22.657  0.00  0.00    -0.259 NA
ATOM     15  C   UNL     1       1.495   0.989  23.522  0.00  0.00    +0.055 A 
ATOM     17  C   UNL     1       2.836   1.334  23.478  0.00  0.00    +0.024 A 
ATOM     23  C   UNL     1       3.621   0.766  22.481  0.00  0.00    +0.003 A 
ATOM     24  C   UNL     1       1.699  -0.398  21.702  0.00  0.00    +0.111 A 
ATOM     25  C   UNL     1       3.049  -0.117  21.571  0.00  0.00    +0.020 A 
ENDBRANCH  14  15
ENDBRANCH   6  14
ENDBRANCH   9   6
BRANCH  11  13
ATOM     13  C   UNL     1      -4.264   4.467  25.901  0.00  0.00    +0.140 C 
BRANCH  13   7
ATOM      7  N   UNL     1      -4.907   3.141  25.978  0.00  0.00    -0.187 NA
ATOM     28  H   UNL     1      -4.720   2.603  26.834  0.00  0.00    +0.148 HD
BRANCH   7   1
ATOM      1  S   UNL     1      -5.279   2.291  24.553  0.00  0.00    +0.058 S 
ATOM      4  O   UNL     1      -4.877   3.079  23.404  0.00  0.00    -0.153 OA
ATOM      5  O   UNL     1      -6.633   1.778  24.648  0.00  0.00    -0.153 OA
BRANCH   1  16
ATOM     16  C   UNL     1      -4.193   0.901  24.667  0.00  0.00    +0.105 A 
ATOM     18  C   UNL     1      -3.157   0.748  23.745  0.00  0.00    +0.029 A 
ATOM     19  C   UNL     1      -4.372  -0.044  25.677  0.00  0.00    +0.029 A 
ATOM     20  C   UNL     1      -2.302  -0.350  23.832  0.00  0.00    +0.005 A 
ATOM     21  C   UNL     1      -3.516  -1.142  25.765  0.00  0.00    +0.005 A 
ATOM     22  C   UNL     1      -2.482  -1.295  24.843  0.00  0.00    -0.050 A 
ATOM     26  C   UNL     1      -1.567  -2.470  24.937  0.00  0.00    +0.044 C 
ENDBRANCH   1  16
ENDBRANCH   7   1
ENDBRANCH  13   7
ENDBRANCH  11  13
TORSDOF 8
ENDMDL
MODEL 10
REMARK VINA RESULT:      -2.4     14.248     17.086
REMARK  Name = 75536705
REMARK  9 active torsions:
REMARK  status: ('A' for Active; 'I' for Inactive)
REMARK    1  A    between atoms: S_1  and  N_7
REMARK    2  A    between atoms: S_1  and  C_16
REMARK    3  A    between atoms: O_3  and  C_10
REMARK    4  A    between atoms: N_6  and  C_9
REMARK    5  A    between atoms: N_6  and  C_14
REMARK    6  A    between atoms: N_7  and  C_13
REMARK    7  A    between atoms: C_11  and  C_13
REMARK    8  A    between atoms: C_14  and  C_15
REMARK    9  A    between atoms: C_22  and  C_26
REMARK                            x       y       z     vdW  Elec       q    Type
REMARK                         _______ _______ _______ _____ _____    ______ ____
ROOT
ATOM      2  O   UNL     1      -3.079 -10.295  15.735  0.00  0.00    -0.371 OA
ATOM      9  C   UNL     1      -5.152 -10.599  16.853  0.00  0.00    +0.111 C 
ATOM     10  C   UNL     1      -5.419 -10.129  15.436  0.00  0.00    +0.164 C 
ATOM     11  C   UNL     1      -4.109 -10.496  14.753  0.00  0.00    +0.164 C 
ATOM     12  C   UNL     1      -3.696 -10.205  17.032  0.00  0.00    +0.181 C 
ENDROOT
BRANCH  10   3
ATOM      3  O   UNL     1      -6.525 -10.781  14.843  0.00  0.00    -0.388 OA
ATOM     29  H   UNL     1      -7.333 -10.299  15.091  0.00  0.00    +0.210 HD
ENDBRANCH  10   3
BRANCH   9   6
ATOM      6  N   UNL     1      -6.028  -9.993  17.844  0.00  0.00    -0.303 NA
ATOM     27  H   UNL     1      -6.248  -9.039  17.556  0.00  0.00    +0.123 HD
BRANCH   6  14
ATOM     14  C   UNL     1      -7.270 -10.745  17.976  0.00  0.00    +0.137 C 
BRANCH  14  15
ATOM      8  N   UNL     1      -8.363  -8.618  17.528  0.00  0.00    -0.259 NA
ATOM     15  C   UNL     1      -8.454  -9.965  17.466  0.00  0.00    +0.055 A 
ATOM     17  C   UNL     1      -9.552 -10.646  16.970  0.00  0.00    +0.024 A 
ATOM     23  C   UNL     1     -10.628  -9.897  16.506  0.00  0.00    +0.003 A 
ATOM     24  C   UNL     1      -9.428  -7.922  17.069  0.00  0.00    +0.111 A 
ATOM     25  C   UNL     1     -10.572  -8.508  16.552  0.00  0.00    +0.020 A 
ENDBRANCH  14  15
ENDBRANCH   6  14
ENDBRANCH   9   6
BRANCH  11  13
ATOM     13  C   UNL     1      -3.817  -9.656  13.522  0.00  0.00    +0.140 C 
BRANCH  13   7
ATOM      7  N   UNL     1      -3.847 -10.513  12.321  0.00  0.00    -0.187 NA
ATOM     28  H   UNL     1      -3.281 -11.369  12.369  0.00  0.00    +0.148 HD
BRANCH   7   1
ATOM      1  S   UNL     1      -4.147  -9.827  10.793  0.00  0.00    +0.058 S 
ATOM      4  O   UNL     1      -3.791 -10.781   9.760  0.00  0.00    -0.153 OA
ATOM      5  O   UNL     1      -3.604  -8.482  10.764  0.00  0.00    -0.153 OA
BRANCH   1  16
ATOM     16  C   UNL     1      -5.908  -9.672  10.806  0.00  0.00    +0.105 A 
ATOM     18  C   UNL     1      -6.669 -10.440  11.687  0.00  0.00    +0.029 A 
ATOM     19  C   UNL     1      -6.537  -8.783   9.934  0.00  0.00    +0.029 A 
ATOM     20  C   UNL     1      -8.059 -10.321  11.696  0.00  0.00    +0.005 A 
ATOM     21  C   UNL     1      -7.927  -8.663   9.943  0.00  0.00    +0.005 A 
ATOM     22  C   UNL     1      -8.687  -9.431  10.823  0.00  0.00    -0.050 A 
ATOM     26  C   UNL     1     -10.173  -9.303  10.833  0.00  0.00    +0.044 C 
ENDBRANCH   1  16
ENDBRANCH   7   1
ENDBRANCH  13   7
ENDBRANCH  11  13
TORSDOF 8
ENDMDL
