MODEL 1
REMARK VINA RESULT:       9.1      0.000      0.000
REMARK  Name = 7164746
REMARK  6 active torsions:
REMARK  status: ('A' for Active; 'I' for Inactive)
REMARK    1  A    between atoms: O_4  and  C_29
REMARK    2  A    between atoms: O_4  and  C_35
REMARK    3  A    between atoms: N_7  and  C_21
REMARK    4  A    between atoms: N_8  and  C_19
REMARK    5  A    between atoms: C_22  and  C_25
REMARK    6  A    between atoms: C_25  and  C_28
REMARK                            x       y       z     vdW  Elec       q    Type
REMARK                         _______ _______ _______ _____ _____    ______ ____
ROOT
ATOM      1  O   UNL     1      -1.810   1.453  22.238  0.00  0.00    -0.266 OA
ATOM      2  O   UNL     1      -2.371   4.947  25.885  0.00  0.00    -0.252 OA
ATOM      5  N   UNL     1      -4.201   3.545  26.052  0.00  0.00    -0.284 N 
ATOM      6  N   UNL     1      -3.534   1.434  23.815  0.00  0.00    -0.310 N 
ATOM      7  N   UNL     1      -2.341   3.251  27.469  0.00  0.00    -0.269 N 
ATOM      9  C   UNL     1      -5.368   3.222  23.881  0.00  0.00    +0.027 C 
ATOM     10  C   UNL     1      -5.358   1.412  25.554  0.00  0.00    +0.054 C 
ATOM     11  C   UNL     1      -6.218   2.120  24.506  0.00  0.00    +0.018 C 
ATOM     12  C   UNL     1      -4.899   4.223  24.956  0.00  0.00    +0.114 C 
ATOM     13  C   UNL     1      -4.188   2.570  23.148  0.00  0.00    +0.130 C 
ATOM     14  C   UNL     1      -4.954   2.425  26.642  0.00  0.00    +0.119 C 
ATOM     15  C   UNL     1      -4.117   0.810  24.924  0.00  0.00    +0.027 A 
ATOM     16  C   UNL     1      -3.557  -0.292  25.451  0.00  0.00    +0.024 A 
ATOM     17  C   UNL     1      -2.349   0.949  23.225  0.00  0.00    +0.273 A 
ATOM     18  C   UNL     1      -2.923   3.995  26.443  0.00  0.00    +0.306 C 
ATOM     19  C   UNL     1      -1.744  -0.265  23.858  0.00  0.00    +0.099 A 
ATOM     20  C   UNL     1      -2.346  -0.837  24.906  0.00  0.00    +0.030 A 
ATOM     36  H   UNL     1      -2.949   2.799  28.141  0.00  0.00    +0.156 HD
ENDROOT
BRANCH   7  21
ATOM     21  C   UNL     1      -0.959   3.030  27.692  0.00  0.00    +0.035 A 
ATOM     23  C   UNL     1      -0.463   2.979  28.995  0.00  0.00    +0.027 A 
ATOM     24  C   UNL     1      -0.095   2.865  26.610  0.00  0.00    +0.027 A 
ATOM     26  C   UNL     1       0.897   2.762  29.216  0.00  0.00    +0.047 A 
ATOM     27  C   UNL     1       1.266   2.648  26.831  0.00  0.00    +0.047 A 
ATOM     29  C   UNL     1       1.762   2.597  28.134  0.00  0.00    +0.120 A 
BRANCH  29   4
ATOM      4  O   UNL     1       3.088   2.386  28.350  0.00  0.00    -0.495 OA
ATOM     35  C   UNL     1       3.791   3.380  29.095  0.00  0.00    +0.277 C 
ENDBRANCH  29   4
ENDBRANCH   7  21
BRANCH  19   8
ATOM      3  O   UNL     1       0.797   1.052  23.825  0.00  0.00    -0.275 OA
ATOM      8  N   UNL     1      -0.587  -0.754  23.326  0.00  0.00    -0.281 N 
ATOM     22  C   UNL     1       0.620  -0.064  23.342  0.00  0.00    +0.222 C 
ATOM     37  H   UNL     1      -0.678  -1.551  22.701  0.00  0.00    +0.155 HD
BRANCH  22  25
ATOM     25  C   UNL     1       1.721  -0.867  22.675  0.00  0.00    +0.131 C 
BRANCH  25  28
ATOM     28  C   UNL     1       3.106  -0.440  23.088  0.00  0.00    -0.039 A 
ATOM     30  C   UNL     1       3.564   0.839  22.771  0.00  0.00    +0.004 A 
ATOM     31  C   UNL     1       3.929  -1.323  23.788  0.00  0.00    +0.004 A 
ATOM     32  C   UNL     1       4.846   1.234  23.152  0.00  0.00    +0.000 A 
ATOM     33  C   UNL     1       5.209  -0.927  24.170  0.00  0.00    +0.000 A 
ATOM     34  C   UNL     1       5.669   0.352  23.853  0.00  0.00    +0.000 A 
ENDBRANCH  25  28
ENDBRANCH  22  25
ENDBRANCH  19   8
TORSDOF 5
ENDMDL
MODEL 2
REMARK VINA RESULT:      11.4      2.435      3.861
REMARK  Name = 7164746
REMARK  6 active torsions:
REMARK  status: ('A' for Active; 'I' for Inactive)
REMARK    1  A    between atoms: O_4  and  C_29
REMARK    2  A    between atoms: O_4  and  C_35
REMARK    3  A    between atoms: N_7  and  C_21
REMARK    4  A    between atoms: N_8  and  C_19
REMARK    5  A    between atoms: C_22  and  C_25
REMARK    6  A    between atoms: C_25  and  C_28
REMARK                            x       y       z     vdW  Elec       q    Type
REMARK                         _______ _______ _______ _____ _____    ______ ____
ROOT
ATOM      1  O   UNL     1      -0.527  -1.184  22.081  0.00  0.00    -0.266 OA
ATOM      2  O   UNL     1      -4.743   1.237  23.560  0.00  0.00    -0.252 OA
ATOM      5  N   UNL     1      -4.504  -0.565  24.986  0.00  0.00    -0.284 N 
ATOM      6  N   UNL     1      -1.791  -1.780  23.954  0.00  0.00    -0.310 N 
ATOM      7  N   UNL     1      -3.777   1.579  25.642  0.00  0.00    -0.269 N 
ATOM      9  C   UNL     1      -4.171  -2.712  23.779  0.00  0.00    +0.027 C 
ATOM     10  C   UNL     1      -3.146  -2.375  25.995  0.00  0.00    +0.054 C 
ATOM     11  C   UNL     1      -3.843  -3.401  25.100  0.00  0.00    +0.018 C 
ATOM     12  C   UNL     1      -5.086  -1.493  24.013  0.00  0.00    +0.114 C 
ATOM     13  C   UNL     1      -2.854  -2.321  23.094  0.00  0.00    +0.130 C 
ATOM     14  C   UNL     1      -4.105  -1.198  26.255  0.00  0.00    +0.119 C 
ATOM     15  C   UNL     1      -1.871  -1.866  25.348  0.00  0.00    +0.027 A 
ATOM     16  C   UNL     1      -0.840  -1.464  26.111  0.00  0.00    +0.024 A 
ATOM     17  C   UNL     1      -0.651  -1.263  23.305  0.00  0.00    +0.273 A 
ATOM     18  C   UNL     1      -4.378   0.800  24.654  0.00  0.00    +0.306 C 
ATOM     19  C   UNL     1       0.464  -0.802  24.191  0.00  0.00    +0.099 A 
ATOM     20  C   UNL     1       0.349  -0.921  25.518  0.00  0.00    +0.030 A 
ATOM     36  H   UNL     1      -3.887   1.298  26.609  0.00  0.00    +0.156 HD
ENDROOT
BRANCH   7  21
ATOM     21  C   UNL     1      -2.996   2.747  25.459  0.00  0.00    +0.035 A 
ATOM     23  C   UNL     1      -1.605   2.671  25.512  0.00  0.00    +0.027 A 
ATOM     24  C   UNL     1      -3.620   3.973  25.225  0.00  0.00    +0.027 A 
ATOM     26  C   UNL     1      -0.836   3.820  25.332  0.00  0.00    +0.047 A 
ATOM     27  C   UNL     1      -2.850   5.123  25.045  0.00  0.00    +0.047 A 
ATOM     29  C   UNL     1      -1.458   5.047  25.099  0.00  0.00    +0.120 A 
BRANCH  29   4
ATOM      4  O   UNL     1      -0.707   6.168  24.924  0.00  0.00    -0.495 OA
ATOM     35  C   UNL     1       0.387   6.080  24.013  0.00  0.00    +0.277 C 
ENDBRANCH  29   4
ENDBRANCH   7  21
BRANCH  19   8
ATOM      3  O   UNL     1       1.047   1.977  23.834  0.00  0.00    -0.275 OA
ATOM      8  N   UNL     1       1.576  -0.279  23.600  0.00  0.00    -0.281 N 
ATOM     22  C   UNL     1       1.803   1.085  23.456  0.00  0.00    +0.222 C 
ATOM     37  H   UNL     1       2.140  -0.922  23.049  0.00  0.00    +0.155 HD
BRANCH  22  25
ATOM     25  C   UNL     1       3.125   1.353  22.760  0.00  0.00    +0.131 C 
BRANCH  25  28
ATOM     28  C   UNL     1       4.241   0.460  23.235  0.00  0.00    -0.039 A 
ATOM     30  C   UNL     1       5.505   0.996  23.481  0.00  0.00    +0.004 A 
ATOM     31  C   UNL     1       4.011  -0.902  23.430  0.00  0.00    +0.004 A 
ATOM     32  C   UNL     1       6.539   0.170  23.920  0.00  0.00    +0.000 A 
ATOM     33  C   UNL     1       5.044  -1.728  23.870  0.00  0.00    +0.000 A 
ATOM     34  C   UNL     1       6.309  -1.192  24.116  0.00  0.00    +0.000 A 
ENDBRANCH  25  28
ENDBRANCH  22  25
ENDBRANCH  19   8
TORSDOF 5
ENDMDL
MODEL 3
REMARK VINA RESULT:      11.8      2.312      4.961
REMARK  Name = 7164746
REMARK  6 active torsions:
REMARK  status: ('A' for Active; 'I' for Inactive)
REMARK    1  A    between atoms: O_4  and  C_29
REMARK    2  A    between atoms: O_4  and  C_35
REMARK    3  A    between atoms: N_7  and  C_21
REMARK    4  A    between atoms: N_8  and  C_19
REMARK    5  A    between atoms: C_22  and  C_25
REMARK    6  A    between atoms: C_25  and  C_28
REMARK                            x       y       z     vdW  Elec       q    Type
REMARK                         _______ _______ _______ _____ _____    ______ ____
ROOT
ATOM      1  O   UNL     1       0.350   1.896  26.130  0.00  0.00    -0.266 OA
ATOM      2  O   UNL     1      -4.648   1.312  26.841  0.00  0.00    -0.252 OA
ATOM      5  N   UNL     1      -4.411   3.059  25.347  0.00  0.00    -0.284 N 
ATOM      6  N   UNL     1      -1.286   3.107  24.983  0.00  0.00    -0.310 N 
ATOM      7  N   UNL     1      -4.887   0.884  24.572  0.00  0.00    -0.269 N 
ATOM      9  C   UNL     1      -2.823   4.798  26.141  0.00  0.00    +0.027 C 
ATOM     10  C   UNL     1      -3.071   4.369  23.727  0.00  0.00    +0.054 C 
ATOM     11  C   UNL     1      -2.877   5.468  24.772  0.00  0.00    +0.018 C 
ATOM     12  C   UNL     1      -4.124   4.018  26.417  0.00  0.00    +0.114 C 
ATOM     13  C   UNL     1      -1.587   3.890  26.190  0.00  0.00    +0.130 C 
ATOM     14  C   UNL     1      -4.405   3.647  23.996  0.00  0.00    +0.119 C 
ATOM     15  C   UNL     1      -1.928   3.371  23.768  0.00  0.00    +0.027 A 
ATOM     16  C   UNL     1      -1.561   2.717  22.652  0.00  0.00    +0.024 A 
ATOM     17  C   UNL     1      -0.256   2.150  25.088  0.00  0.00    +0.273 A 
ATOM     18  C   UNL     1      -4.664   1.710  25.673  0.00  0.00    +0.306 C 
ATOM     19  C   UNL     1       0.104   1.425  23.828  0.00  0.00    +0.099 A 
ATOM     20  C   UNL     1      -0.525   1.724  22.687  0.00  0.00    +0.030 A 
ATOM     36  H   UNL     1      -5.296   1.292  23.740  0.00  0.00    +0.156 HD
ENDROOT
BRANCH   7  21
ATOM     21  C   UNL     1      -4.595  -0.498  24.462  0.00  0.00    +0.035 A 
ATOM     23  C   UNL     1      -3.755  -1.108  25.394  0.00  0.00    +0.027 A 
ATOM     24  C   UNL     1      -5.146  -1.247  23.423  0.00  0.00    +0.027 A 
ATOM     26  C   UNL     1      -3.467  -2.468  25.286  0.00  0.00    +0.047 A 
ATOM     27  C   UNL     1      -4.856  -2.608  23.314  0.00  0.00    +0.047 A 
ATOM     29  C   UNL     1      -4.017  -3.218  24.246  0.00  0.00    +0.120 A 
BRANCH  29   4
ATOM      4  O   UNL     1      -3.734  -4.545  24.141  0.00  0.00    -0.495 OA
ATOM     35  C   UNL     1      -3.120  -4.985  22.930  0.00  0.00    +0.277 C 
ENDBRANCH  29   4
ENDBRANCH   7  21
BRANCH  19   8
ATOM      3  O   UNL     1       0.857  -0.384  21.742  0.00  0.00    -0.275 OA
ATOM      8  N   UNL     1       1.083   0.478  23.894  0.00  0.00    -0.281 N 
ATOM     22  C   UNL     1       1.404  -0.374  22.842  0.00  0.00    +0.222 C 
ATOM     37  H   UNL     1       1.427   0.247  24.823  0.00  0.00    +0.155 HD
BRANCH  22  25
ATOM     25  C   UNL     1       2.534  -1.313  23.220  0.00  0.00    +0.131 C 
BRANCH  25  28
ATOM     28  C   UNL     1       3.849  -0.610  23.431  0.00  0.00    -0.039 A 
ATOM     30  C   UNL     1       4.014   0.705  22.996  0.00  0.00    +0.004 A 
ATOM     31  C   UNL     1       4.902  -1.273  24.061  0.00  0.00    +0.004 A 
ATOM     32  C   UNL     1       5.232   1.356  23.190  0.00  0.00    +0.000 A 
ATOM     33  C   UNL     1       6.119  -0.622  24.256  0.00  0.00    +0.000 A 
ATOM     34  C   UNL     1       6.285   0.693  23.822  0.00  0.00    +0.000 A 
ENDBRANCH  25  28
ENDBRANCH  22  25
ENDBRANCH  19   8
TORSDOF 5
ENDMDL
