MODEL 1
REMARK VINA RESULT:       7.2      0.000      0.000
REMARK  Name = 51137779
REMARK  6 active torsions:
REMARK  status: ('A' for Active; 'I' for Inactive)
REMARK    1  A    between atoms: N_7  and  C_21
REMARK    2  A    between atoms: N_7  and  C_26
REMARK    3  A    between atoms: N_7  and  C_27
REMARK    4  A    between atoms: C_8  and  C_12
REMARK    5  A    between atoms: C_13  and  C_14
REMARK    6  A    between atoms: C_15  and  C_16
REMARK                            x       y       z     vdW  Elec       q    Type
REMARK                         _______ _______ _______ _____ _____    ______ ____
ROOT
ATOM      1  O   UNL     1      -0.861  -0.217  23.428  0.00  0.00    -0.420 OA
ATOM      4  N   UNL     1      -1.915  -1.842  24.548  0.00  0.00    -0.112 NA
ATOM      5  N   UNL     1      -0.554  -2.041  24.686  0.00  0.00    -0.107 NA
ATOM     12  C   UNL     1      -2.047  -0.768  23.807  0.00  0.00    +0.222 A 
ATOM     15  C   UNL     1       0.021  -1.070  24.017  0.00  0.00    +0.248 A 
ENDROOT
BRANCH  12   8
ATOM      2  O   UNL     1      -4.554   2.814  26.761  0.00  0.00    -0.270 OA
ATOM      3  N   UNL     1      -4.038   1.608  24.845  0.00  0.00    -0.297 N 
ATOM      8  C   UNL     1      -3.310  -0.074  23.326  0.00  0.00    +0.095 C 
ATOM      9  C   UNL     1      -4.552  -0.567  24.087  0.00  0.00    +0.033 C 
ATOM     10  C   UNL     1      -3.387   1.443  23.544  0.00  0.00    +0.121 C 
ATOM     11  C   UNL     1      -4.632   0.357  25.293  0.00  0.00    +0.109 C 
ATOM     13  C   UNL     1      -4.055   2.743  25.640  0.00  0.00    +0.248 C 
BRANCH  13  14
ATOM      6  N   UNL     1      -3.500   5.845  23.602  0.00  0.00    -0.263 NA
ATOM     14  C   UNL     1      -3.414   3.955  25.106  0.00  0.00    +0.055 A 
ATOM     17  C   UNL     1      -2.168   4.367  25.566  0.00  0.00    +0.016 A 
ATOM     18  C   UNL     1      -4.033   4.723  24.133  0.00  0.00    +0.123 A 
ATOM     22  C   UNL     1      -1.588   5.518  25.045  0.00  0.00    +0.020 A 
ATOM     25  C   UNL     1      -2.288   6.215  24.073  0.00  0.00    +0.111 A 
ENDBRANCH  13  14
ENDBRANCH  12   8
BRANCH  15  16
ATOM     16  C   UNL     1       1.410  -0.774  23.814  0.00  0.00    +0.039 A 
ATOM     19  C   UNL     1       2.380  -1.722  24.137  0.00  0.00    +0.015 A 
ATOM     20  C   UNL     1       1.790   0.464  23.294  0.00  0.00    +0.015 A 
ATOM     21  C   UNL     1       4.110  -0.196  23.419  0.00  0.00    +0.029 A 
ATOM     23  C   UNL     1       3.730  -1.433  23.940  0.00  0.00    +0.024 A 
ATOM     24  C   UNL     1       3.141   0.752  23.096  0.00  0.00    +0.024 A 
BRANCH  21   7
ATOM      7  N   UNL     1       5.476   0.094  23.221  0.00  0.00    -0.336 N 
ATOM     26  C   UNL     1       6.241  -0.625  22.221  0.00  0.00    +0.129 C 
ATOM     27  C   UNL     1       6.135   1.110  24.018  0.00  0.00    +0.129 C 
ENDBRANCH  21   7
ENDBRANCH  15  16
TORSDOF 4
ENDMDL
MODEL 2
REMARK VINA RESULT:       7.7      2.101      3.790
REMARK  Name = 51137779
REMARK  6 active torsions:
REMARK  status: ('A' for Active; 'I' for Inactive)
REMARK    1  A    between atoms: N_7  and  C_21
REMARK    2  A    between atoms: N_7  and  C_26
REMARK    3  A    between atoms: N_7  and  C_27
REMARK    4  A    between atoms: C_8  and  C_12
REMARK    5  A    between atoms: C_13  and  C_14
REMARK    6  A    between atoms: C_15  and  C_16
REMARK                            x       y       z     vdW  Elec       q    Type
REMARK                         _______ _______ _______ _____ _____    ______ ____
ROOT
ATOM      1  O   UNL     1       1.578   1.713  24.552  0.00  0.00    -0.420 OA
ATOM      4  N   UNL     1      -0.375   0.999  23.727  0.00  0.00    -0.112 NA
ATOM      5  N   UNL     1       0.633   0.253  23.146  0.00  0.00    -0.107 NA
ATOM     12  C   UNL     1       0.222   1.837  24.541  0.00  0.00    +0.222 A 
ATOM     15  C   UNL     1       1.755   0.704  23.656  0.00  0.00    +0.248 A 
ENDROOT
BRANCH  12   8
ATOM      2  O   UNL     1      -4.212   4.399  23.270  0.00  0.00    -0.270 OA
ATOM      3  N   UNL     1      -2.470   3.689  24.631  0.00  0.00    -0.297 N 
ATOM      8  C   UNL     1      -0.377   2.900  25.446  0.00  0.00    +0.095 C 
ATOM      9  C   UNL     1      -0.204   4.309  24.855  0.00  0.00    +0.033 C 
ATOM     10  C   UNL     1      -1.893   2.835  25.672  0.00  0.00    +0.121 C 
ATOM     11  C   UNL     1      -1.443   4.499  23.992  0.00  0.00    +0.109 C 
ATOM     13  C   UNL     1      -3.787   3.716  24.199  0.00  0.00    +0.248 C 
BRANCH  13  14
ATOM      6  N   UNL     1      -6.441   2.599  26.606  0.00  0.00    -0.263 NA
ATOM     14  C   UNL     1      -4.748   2.850  24.898  0.00  0.00    +0.055 A 
ATOM     17  C   UNL     1      -4.894   1.512  24.547  0.00  0.00    +0.016 A 
ATOM     18  C   UNL     1      -5.539   3.340  25.925  0.00  0.00    +0.123 A 
ATOM     22  C   UNL     1      -5.812   0.717  25.224  0.00  0.00    +0.020 A 
ATOM     25  C   UNL     1      -6.555   1.304  26.237  0.00  0.00    +0.111 A 
ENDBRANCH  13  14
ENDBRANCH  12   8
BRANCH  15  16
ATOM     16  C   UNL     1       3.112   0.305  23.420  0.00  0.00    +0.039 A 
ATOM     19  C   UNL     1       3.994   1.177  22.782  0.00  0.00    +0.015 A 
ATOM     20  C   UNL     1       3.550  -0.955  23.828  0.00  0.00    +0.015 A 
ATOM     21  C   UNL     1       5.752  -0.471  22.962  0.00  0.00    +0.029 A 
ATOM     23  C   UNL     1       5.314   0.789  22.553  0.00  0.00    +0.024 A 
ATOM     24  C   UNL     1       4.870  -1.343  23.599  0.00  0.00    +0.024 A 
BRANCH  21   7
ATOM      7  N   UNL     1       7.086  -0.862  22.728  0.00  0.00    -0.336 N 
ATOM     26  C   UNL     1       8.184  -0.090  23.277  0.00  0.00    +0.129 C 
ATOM     27  C   UNL     1       7.380  -2.036  21.931  0.00  0.00    +0.129 C 
ENDBRANCH  21   7
ENDBRANCH  15  16
TORSDOF 4
ENDMDL
