MODEL 1
REMARK VINA RESULT:      -3.9      0.000      0.000
REMARK  Name = 75536748
REMARK  5 active torsions:
REMARK  status: ('A' for Active; 'I' for Inactive)
REMARK    1  A    between atoms: O_2  and  C_10
REMARK    2  A    between atoms: N_5  and  C_9
REMARK    3  A    between atoms: N_5  and  C_11
REMARK    4  A    between atoms: N_7  and  C_16
REMARK    5  A    between atoms: C_12  and  C_16
REMARK                            x       y       z     vdW  Elec       q    Type
REMARK                         _______ _______ _______ _____ _____    ______ ____
ROOT
ATOM      1  O   UNL     1      -4.010 -10.213  11.694  0.00  0.00    -0.371 OA
ATOM      9  C   UNL     1      -5.854  -9.834  10.246  0.00  0.00    +0.111 C 
ATOM     10  C   UNL     1      -6.373 -10.175  11.629  0.00  0.00    +0.164 C 
ATOM     12  C   UNL     1      -5.155  -9.859  12.487  0.00  0.00    +0.165 C 
ATOM     13  C   UNL     1      -4.427 -10.352  10.325  0.00  0.00    +0.181 C 
ENDROOT
BRANCH  10   2
ATOM      2  O   UNL     1      -7.494  -9.395  12.000  0.00  0.00    -0.388 OA
ATOM     26  H   UNL     1      -8.135  -9.974  12.445  0.00  0.00    +0.210 HD
ENDBRANCH  10   2
BRANCH   9   5
ATOM      5  N   UNL     1      -6.618 -10.443   9.169  0.00  0.00    -0.306 NA
ATOM     24  H   UNL     1      -7.209 -11.188   9.537  0.00  0.00    +0.123 HD
BRANCH   5  11
ATOM      6  N   UNL     1      -9.324  -7.207   8.612  0.00  0.00    -0.316 NA
ATOM     11  C   UNL     1      -7.443  -9.451   8.483  0.00  0.00    +0.056 C 
ATOM     14  C   UNL     1      -8.918  -9.643   8.851  0.00  0.00    +0.034 C 
ATOM     15  C   UNL     1      -6.993  -8.027   8.832  0.00  0.00    +0.034 C 
ATOM     17  C   UNL     1      -9.782  -8.546   8.227  0.00  0.00    +0.082 C 
ATOM     18  C   UNL     1      -7.932  -6.993   8.209  0.00  0.00    +0.082 C 
ATOM     25  H   UNL     1      -9.916  -6.508   8.163  0.00  0.00    +0.122 HD
ENDBRANCH   5  11
ENDBRANCH   9   5
BRANCH  12  16
ATOM     16  C   UNL     1      -5.128 -10.625  13.798  0.00  0.00    +0.140 C 
BRANCH  16   7
ATOM      3  O   UNL     1     -10.563  -9.476  17.013  0.00  0.00    -0.377 OA
ATOM      4  O   UNL     1      -5.681  -9.310  16.224  0.00  0.00    -0.253 OA
ATOM      7  N   UNL     1      -6.412 -10.585  14.461  0.00  0.00    -0.297 N 
ATOM      8  N   UNL     1      -7.904  -9.969  16.188  0.00  0.00    -0.281 N 
ATOM     19  C   UNL     1      -6.602  -9.911  15.662  0.00  0.00    +0.302 C 
ATOM     20  C   UNL     1      -9.014 -10.781  15.667  0.00  0.00    +0.137 C 
ATOM     21  C   UNL     1      -8.194  -9.293  17.454  0.00  0.00    +0.137 C 
ATOM     22  C   UNL     1     -10.323  -9.999  15.706  0.00  0.00    +0.179 C 
ATOM     23  C   UNL     1      -9.528  -8.566  17.392  0.00  0.00    +0.179 C 
ATOM     27  H   UNL     1      -7.159 -11.091  14.010  0.00  0.00    +0.150 HD
ENDBRANCH  16   7
ENDBRANCH  12  16
TORSDOF 5
ENDMDL
MODEL 2
REMARK VINA RESULT:      -3.9      2.549      3.898
REMARK  Name = 75536748
REMARK  5 active torsions:
REMARK  status: ('A' for Active; 'I' for Inactive)
REMARK    1  A    between atoms: O_2  and  C_10
REMARK    2  A    between atoms: N_5  and  C_9
REMARK    3  A    between atoms: N_5  and  C_11
REMARK    4  A    between atoms: N_7  and  C_16
REMARK    5  A    between atoms: C_12  and  C_16
REMARK                            x       y       z     vdW  Elec       q    Type
REMARK                         _______ _______ _______ _____ _____    ______ ____
ROOT
ATOM      1  O   UNL     1      -2.057 -10.577  16.049  0.00  0.00    -0.371 OA
ATOM      9  C   UNL     1      -2.805 -10.161  13.832  0.00  0.00    +0.111 C 
ATOM     10  C   UNL     1      -4.009 -10.372  14.730  0.00  0.00    +0.164 C 
ATOM     12  C   UNL     1      -3.408 -10.091  16.100  0.00  0.00    +0.165 C 
ATOM     13  C   UNL     1      -1.695 -10.774  14.671  0.00  0.00    +0.181 C 
ENDROOT
BRANCH  10   2
ATOM      2  O   UNL     1      -5.075  -9.491  14.431  0.00  0.00    -0.388 OA
ATOM     26  H   UNL     1      -4.969  -9.183  13.515  0.00  0.00    +0.210 HD
ENDBRANCH  10   2
BRANCH   9   5
ATOM      5  N   UNL     1      -2.935 -10.781  12.524  0.00  0.00    -0.306 NA
ATOM     24  H   UNL     1      -3.353 -11.706  12.616  0.00  0.00    +0.123 HD
BRANCH   5  11
ATOM      6  N   UNL     1      -4.773  -9.409   8.941  0.00  0.00    -0.316 NA
ATOM     11  C   UNL     1      -3.746  -9.958  11.630  0.00  0.00    +0.056 C 
ATOM     14  C   UNL     1      -2.870  -9.348  10.532  0.00  0.00    +0.034 C 
ATOM     15  C   UNL     1      -4.880 -10.779  11.006  0.00  0.00    +0.034 C 
ATOM     17  C   UNL     1      -3.721  -8.572   9.525  0.00  0.00    +0.082 C 
ATOM     18  C   UNL     1      -5.653  -9.947   9.981  0.00  0.00    +0.082 C 
ATOM     25  H   UNL     1      -5.324  -8.850   8.289  0.00  0.00    +0.122 HD
ENDBRANCH   5  11
ENDBRANCH   9   5
BRANCH  12  16
ATOM     16  C   UNL     1      -4.155 -10.769  17.235  0.00  0.00    +0.140 C 
BRANCH  16   7
ATOM      3  O   UNL     1     -10.511  -9.885  17.167  0.00  0.00    -0.377 OA
ATOM      4  O   UNL     1      -6.091 -10.603  19.271  0.00  0.00    -0.253 OA
ATOM      7  N   UNL     1      -5.586 -10.715  17.035  0.00  0.00    -0.297 N 
ATOM      8  N   UNL     1      -7.837 -10.597  17.744  0.00  0.00    -0.281 N 
ATOM     19  C   UNL     1      -6.478 -10.634  18.098  0.00  0.00    +0.302 C 
ATOM     20  C   UNL     1      -8.387 -10.780  16.393  0.00  0.00    +0.137 C 
ATOM     21  C   UNL     1      -8.848 -10.517  18.801  0.00  0.00    +0.137 C 
ATOM     22  C   UNL     1      -9.528  -9.802  16.134  0.00  0.00    +0.179 C 
ATOM     23  C   UNL     1      -9.948  -9.535  18.432  0.00  0.00    +0.179 C 
ATOM     27  H   UNL     1      -5.901 -10.759  16.078  0.00  0.00    +0.150 HD
ENDBRANCH  16   7
ENDBRANCH  12  16
TORSDOF 5
ENDMDL
MODEL 3
REMARK VINA RESULT:      -3.8      1.703      2.069
REMARK  Name = 75536748
REMARK  5 active torsions:
REMARK  status: ('A' for Active; 'I' for Inactive)
REMARK    1  A    between atoms: O_2  and  C_10
REMARK    2  A    between atoms: N_5  and  C_9
REMARK    3  A    between atoms: N_5  and  C_11
REMARK    4  A    between atoms: N_7  and  C_16
REMARK    5  A    between atoms: C_12  and  C_16
REMARK                            x       y       z     vdW  Elec       q    Type
REMARK                         _______ _______ _______ _____ _____    ______ ____
ROOT
ATOM      1  O   UNL     1      -3.674  -9.033  10.699  0.00  0.00    -0.371 OA
ATOM      9  C   UNL     1      -5.777  -8.910   9.600  0.00  0.00    +0.111 C 
ATOM     10  C   UNL     1      -5.911  -9.790  10.828  0.00  0.00    +0.164 C 
ATOM     12  C   UNL     1      -4.710  -9.337  11.647  0.00  0.00    +0.165 C 
ATOM     13  C   UNL     1      -4.270  -8.906   9.396  0.00  0.00    +0.181 C 
ENDROOT
BRANCH  10   2
ATOM      2  O   UNL     1      -7.128  -9.584  11.518  0.00  0.00    -0.388 OA
ATOM     26  H   UNL     1      -7.357 -10.404  11.986  0.00  0.00    +0.210 HD
ENDBRANCH  10   2
BRANCH   9   5
ATOM      5  N   UNL     1      -6.504  -9.407   8.443  0.00  0.00    -0.306 NA
ATOM     24  H   UNL     1      -6.828 -10.358   8.615  0.00  0.00    +0.123 HD
BRANCH   5  11
ATOM      6  N   UNL     1     -10.013  -7.070   9.014  0.00  0.00    -0.316 NA
ATOM     11  C   UNL     1      -7.642  -8.546   8.128  0.00  0.00    +0.056 C 
ATOM     14  C   UNL     1      -8.954  -9.251   8.487  0.00  0.00    +0.034 C 
ATOM     15  C   UNL     1      -7.541  -7.208   8.869  0.00  0.00    +0.034 C 
ATOM     17  C   UNL     1     -10.149  -8.322   8.264  0.00  0.00    +0.082 C 
ATOM     18  C   UNL     1      -8.791  -6.360   8.631  0.00  0.00    +0.082 C 
ATOM     25  H   UNL     1     -10.821  -6.476   8.825  0.00  0.00    +0.122 HD
ENDBRANCH   5  11
ENDBRANCH   9   5
BRANCH  12  16
ATOM     16  C   UNL     1      -4.218 -10.389  12.625  0.00  0.00    +0.140 C 
BRANCH  16   7
ATOM      3  O   UNL     1      -7.108 -10.084  18.347  0.00  0.00    -0.377 OA
ATOM      4  O   UNL     1      -3.284 -10.679  15.264  0.00  0.00    -0.253 OA
ATOM      7  N   UNL     1      -5.044 -10.439  13.811  0.00  0.00    -0.297 N 
ATOM      8  N   UNL     1      -5.433 -10.623  16.135  0.00  0.00    -0.281 N 
ATOM     19  C   UNL     1      -4.502 -10.584  15.082  0.00  0.00    +0.302 C 
ATOM     20  C   UNL     1      -6.896 -10.669  15.997  0.00  0.00    +0.137 C 
ATOM     21  C   UNL     1      -4.952 -10.781  17.509  0.00  0.00    +0.137 C 
ATOM     22  C   UNL     1      -7.567  -9.773  17.032  0.00  0.00    +0.179 C 
ATOM     23  C   UNL     1      -5.701  -9.861  18.459  0.00  0.00    +0.179 C 
ATOM     27  H   UNL     1      -6.039 -10.379  13.659  0.00  0.00    +0.150 HD
ENDBRANCH  16   7
ENDBRANCH  12  16
TORSDOF 5
ENDMDL
MODEL 4
REMARK VINA RESULT:      -3.4     15.087     17.987
REMARK  Name = 75536748
REMARK  5 active torsions:
REMARK  status: ('A' for Active; 'I' for Inactive)
REMARK    1  A    between atoms: O_2  and  C_10
REMARK    2  A    between atoms: N_5  and  C_9
REMARK    3  A    between atoms: N_5  and  C_11
REMARK    4  A    between atoms: N_7  and  C_16
REMARK    5  A    between atoms: C_12  and  C_16
REMARK                            x       y       z     vdW  Elec       q    Type
REMARK                         _______ _______ _______ _____ _____    ______ ____
ROOT
ATOM      1  O   UNL     1      -5.747   3.225  25.789  0.00  0.00    -0.371 OA
ATOM      9  C   UNL     1      -3.917   4.054  24.520  0.00  0.00    +0.111 C 
ATOM     10  C   UNL     1      -4.085   2.572  24.239  0.00  0.00    +0.164 C 
ATOM     12  C   UNL     1      -5.529   2.353  24.668  0.00  0.00    +0.165 C 
ATOM     13  C   UNL     1      -4.692   4.201  25.820  0.00  0.00    +0.181 C 
ENDROOT
BRANCH  10   2
ATOM      2  O   UNL     1      -3.885   2.249  22.876  0.00  0.00    -0.388 OA
ATOM     26  H   UNL     1      -4.123   3.024  22.341  0.00  0.00    +0.210 HD
ENDBRANCH  10   2
BRANCH   9   5
ATOM      5  N   UNL     1      -2.530   4.473  24.636  0.00  0.00    -0.306 NA
ATOM     24  H   UNL     1      -2.439   5.182  25.363  0.00  0.00    +0.123 HD
BRANCH   5  11
ATOM      6  N   UNL     1       0.976   2.309  25.698  0.00  0.00    -0.316 NA
ATOM     11  C   UNL     1      -1.662   3.338  24.941  0.00  0.00    +0.056 C 
ATOM     14  C   UNL     1      -0.492   3.286  23.953  0.00  0.00    +0.034 C 
ATOM     15  C   UNL     1      -1.135   3.420  26.378  0.00  0.00    +0.034 C 
ATOM     17  C   UNL     1       0.485   2.169  24.324  0.00  0.00    +0.082 C 
ATOM     18  C   UNL     1      -0.134   2.298  26.655  0.00  0.00    +0.082 C 
ATOM     25  H   UNL     1       1.609   1.538  25.909  0.00  0.00    +0.122 HD
ENDBRANCH   5  11
ENDBRANCH   9   5
BRANCH  12  16
ATOM     16  C   UNL     1      -5.826   0.918  25.069  0.00  0.00    +0.140 C 
BRANCH  16   7
ATOM      3  O   UNL     1      -0.384  -2.475  25.324  0.00  0.00    -0.377 OA
ATOM      4  O   UNL     1      -4.934  -1.382  23.716  0.00  0.00    -0.253 OA
ATOM      7  N   UNL     1      -4.612   0.187  25.359  0.00  0.00    -0.297 N 
ATOM      8  N   UNL     1      -3.041  -1.550  25.045  0.00  0.00    -0.281 N 
ATOM     19  C   UNL     1      -4.243  -0.943  24.641  0.00  0.00    +0.302 C 
ATOM     20  C   UNL     1      -2.240  -1.186  26.223  0.00  0.00    +0.137 C 
ATOM     21  C   UNL     1      -2.577  -2.752  24.348  0.00  0.00    +0.137 C 
ATOM     22  C   UNL     1      -0.750  -1.219  25.898  0.00  0.00    +0.179 C 
ATOM     23  C   UNL     1      -1.079  -2.692  24.094  0.00  0.00    +0.179 C 
ATOM     27  H   UNL     1      -4.058   0.536  26.126  0.00  0.00    +0.150 HD
ENDBRANCH  16   7
ENDBRANCH  12  16
TORSDOF 5
ENDMDL
MODEL 5
REMARK VINA RESULT:      -2.8     15.066     17.829
REMARK  Name = 75536748
REMARK  5 active torsions:
REMARK  status: ('A' for Active; 'I' for Inactive)
REMARK    1  A    between atoms: O_2  and  C_10
REMARK    2  A    between atoms: N_5  and  C_9
REMARK    3  A    between atoms: N_5  and  C_11
REMARK    4  A    between atoms: N_7  and  C_16
REMARK    5  A    between atoms: C_12  and  C_16
REMARK                            x       y       z     vdW  Elec       q    Type
REMARK                         _______ _______ _______ _____ _____    ______ ____
ROOT
ATOM      1  O   UNL     1       0.083   3.924  23.736  0.00  0.00    -0.371 OA
ATOM      9  C   UNL     1      -1.330   4.365  25.594  0.00  0.00    +0.111 C 
ATOM     10  C   UNL     1      -0.959   2.894  25.593  0.00  0.00    +0.164 C 
ATOM     12  C   UNL     1       0.296   2.908  24.730  0.00  0.00    +0.165 C 
ATOM     13  C   UNL     1      -1.010   4.757  24.160  0.00  0.00    +0.181 C 
ENDROOT
BRANCH  10   2
ATOM      2  O   UNL     1      -0.702   2.395  26.891  0.00  0.00    -0.388 OA
ATOM     26  H   UNL     1      -1.028   3.042  27.537  0.00  0.00    +0.210 HD
ENDBRANCH  10   2
BRANCH   9   5
ATOM      5  N   UNL     1      -2.716   4.618  25.954  0.00  0.00    -0.306 NA
ATOM     24  H   UNL     1      -3.066   5.431  25.449  0.00  0.00    +0.123 HD
BRANCH   5  11
ATOM      6  N   UNL     1      -6.128   2.356  24.794  0.00  0.00    -0.316 NA
ATOM     11  C   UNL     1      -3.555   3.457  25.662  0.00  0.00    +0.056 C 
ATOM     14  C   UNL     1      -4.788   3.453  26.571  0.00  0.00    +0.034 C 
ATOM     15  C   UNL     1      -3.984   3.446  24.190  0.00  0.00    +0.034 C 
ATOM     17  C   UNL     1      -5.730   2.305  26.205  0.00  0.00    +0.082 C 
ATOM     18  C   UNL     1      -4.957   2.299  23.916  0.00  0.00    +0.082 C 
ATOM     25  H   UNL     1      -6.742   1.567  24.590  0.00  0.00    +0.122 HD
ENDBRANCH   5  11
ENDBRANCH   9   5
BRANCH  12  16
ATOM     16  C   UNL     1       0.575   1.578  24.054  0.00  0.00    +0.140 C 
BRANCH  16   7
ATOM      3  O   UNL     1      -4.436  -2.422  24.343  0.00  0.00    -0.377 OA
ATOM      4  O   UNL     1       0.336  -1.155  24.678  0.00  0.00    -0.253 OA
ATOM      7  N   UNL     1      -0.628   0.786  23.924  0.00  0.00    -0.297 N 
ATOM      8  N   UNL     1      -1.902  -1.199  24.068  0.00  0.00    -0.281 N 
ATOM     19  C   UNL     1      -0.663  -0.563  24.255  0.00  0.00    +0.302 C 
ATOM     20  C   UNL     1      -3.090  -0.612  23.432  0.00  0.00    +0.137 C 
ATOM     21  C   UNL     1      -2.028  -2.624  24.385  0.00  0.00    +0.137 C 
ATOM     22  C   UNL     1      -4.357  -1.005  24.185  0.00  0.00    +0.179 C 
ATOM     23  C   UNL     1      -3.333  -2.907  25.112  0.00  0.00    +0.179 C 
ATOM     27  H   UNL     1      -1.437   1.267  23.562  0.00  0.00    +0.150 HD
ENDBRANCH  16   7
ENDBRANCH  12  16
TORSDOF 5
ENDMDL
MODEL 6
REMARK VINA RESULT:      -2.1     14.817     17.383
REMARK  Name = 75536748
REMARK  5 active torsions:
REMARK  status: ('A' for Active; 'I' for Inactive)
REMARK    1  A    between atoms: O_2  and  C_10
REMARK    2  A    between atoms: N_5  and  C_9
REMARK    3  A    between atoms: N_5  and  C_11
REMARK    4  A    between atoms: N_7  and  C_16
REMARK    5  A    between atoms: C_12  and  C_16
REMARK                            x       y       z     vdW  Elec       q    Type
REMARK                         _______ _______ _______ _____ _____    ______ ____
ROOT
ATOM      1  O   UNL     1      -3.469  -2.642  23.586  0.00  0.00    -0.371 OA
ATOM      9  C   UNL     1      -1.681  -2.372  25.127  0.00  0.00    +0.111 C 
ATOM     10  C   UNL     1      -2.681  -1.250  25.328  0.00  0.00    +0.164 C 
ATOM     12  C   UNL     1      -3.929  -1.850  24.694  0.00  0.00    +0.165 C 
ATOM     13  C   UNL     1      -2.056  -2.864  23.738  0.00  0.00    +0.181 C 
ENDROOT
BRANCH  10   2
ATOM      2  O   UNL     1      -2.882  -0.935  26.692  0.00  0.00    -0.388 OA
ATOM     26  H   UNL     1      -2.022  -0.965  27.142  0.00  0.00    +0.210 HD
ENDBRANCH  10   2
BRANCH   9   5
ATOM      5  N   UNL     1      -0.295  -1.943  25.220  0.00  0.00    -0.306 NA
ATOM     24  H   UNL     1       0.327  -2.723  25.011  0.00  0.00    +0.123 HD
BRANCH   5  11
ATOM      6  N   UNL     1       1.607   1.481  23.558  0.00  0.00    -0.316 NA
ATOM     11  C   UNL     1      -0.025  -0.836  24.306  0.00  0.00    +0.056 C 
ATOM     14  C   UNL     1      -0.116   0.500  25.050  0.00  0.00    +0.034 C 
ATOM     15  C   UNL     1       1.356  -0.985  23.656  0.00  0.00    +0.034 C 
ATOM     17  C   UNL     1       0.270   1.662  24.133  0.00  0.00    +0.082 C 
ATOM     18  C   UNL     1       1.685   0.234  22.793  0.00  0.00    +0.082 C 
ATOM     25  H   UNL     1       1.817   2.267  22.943  0.00  0.00    +0.122 HD
ENDBRANCH   5  11
ENDBRANCH   9   5
BRANCH  12  16
ATOM     16  C   UNL     1      -4.916  -0.806  24.204  0.00  0.00    +0.140 C 
BRANCH  16   7
ATOM      3  O   UNL     1      -2.539   5.039  25.375  0.00  0.00    -0.377 OA
ATOM      4  O   UNL     1      -5.720   1.286  25.905  0.00  0.00    -0.253 OA
ATOM      7  N   UNL     1      -4.344   0.521  24.236  0.00  0.00    -0.297 N 
ATOM      8  N   UNL     1      -4.149   2.743  25.017  0.00  0.00    -0.281 N 
ATOM     19  C   UNL     1      -4.800   1.501  25.109  0.00  0.00    +0.302 C 
ATOM     20  C   UNL     1      -3.156   3.128  24.003  0.00  0.00    +0.137 C 
ATOM     21  C   UNL     1      -4.570   3.837  25.896  0.00  0.00    +0.137 C 
ATOM     22  C   UNL     1      -2.024   3.934  24.632  0.00  0.00    +0.179 C 
ATOM     23  C   UNL     1      -3.367   4.586  26.448  0.00  0.00    +0.179 C 
ATOM     27  H   UNL     1      -3.605   0.700  23.573  0.00  0.00    +0.150 HD
ENDBRANCH  16   7
ENDBRANCH  12  16
TORSDOF 5
ENDMDL
MODEL 7
REMARK VINA RESULT:      -1.8     15.160     17.653
REMARK  Name = 75536748
REMARK  5 active torsions:
REMARK  status: ('A' for Active; 'I' for Inactive)
REMARK    1  A    between atoms: O_2  and  C_10
REMARK    2  A    between atoms: N_5  and  C_9
REMARK    3  A    between atoms: N_5  and  C_11
REMARK    4  A    between atoms: N_7  and  C_16
REMARK    5  A    between atoms: C_12  and  C_16
REMARK                            x       y       z     vdW  Elec       q    Type
REMARK                         _______ _______ _______ _____ _____    ______ ____
ROOT
ATOM      1  O   UNL     1      -2.364  -2.602  25.458  0.00  0.00    -0.371 OA
ATOM      9  C   UNL     1      -3.914  -1.420  24.100  0.00  0.00    +0.111 C 
ATOM     10  C   UNL     1      -2.591  -0.679  24.100  0.00  0.00    +0.164 C 
ATOM     12  C   UNL     1      -1.635  -1.785  24.528  0.00  0.00    +0.165 C 
ATOM     13  C   UNL     1      -3.765  -2.302  25.329  0.00  0.00    +0.181 C 
ENDROOT
BRANCH  10   2
ATOM      2  O   UNL     1      -2.257  -0.157  22.828  0.00  0.00    -0.388 OA
ATOM     26  H   UNL     1      -1.296  -0.234  22.709  0.00  0.00    +0.210 HD
ENDBRANCH  10   2
BRANCH   9   5
ATOM      5  N   UNL     1      -5.073  -0.545  24.169  0.00  0.00    -0.306 NA
ATOM     24  H   UNL     1      -5.829  -1.005  24.675  0.00  0.00    +0.123 HD
BRANCH   5  11
ATOM      6  N   UNL     1      -5.251   3.581  25.188  0.00  0.00    -0.316 NA
ATOM     11  C   UNL     1      -4.739   0.720  24.819  0.00  0.00    +0.056 C 
ATOM     14  C   UNL     1      -4.332   1.762  23.773  0.00  0.00    +0.034 C 
ATOM     15  C   UNL     1      -5.919   1.238  25.650  0.00  0.00    +0.034 C 
ATOM     17  C   UNL     1      -4.085   3.123  24.428  0.00  0.00    +0.082 C 
ATOM     18  C   UNL     1      -5.609   2.618  26.232  0.00  0.00    +0.082 C 
ATOM     25  H   UNL     1      -5.038   4.481  25.620  0.00  0.00    +0.122 HD
ENDBRANCH   5  11
ENDBRANCH   9   5
BRANCH  12  16
ATOM     16  C   UNL     1      -0.369  -1.264  25.185  0.00  0.00    +0.140 C 
BRANCH  16   7
ATOM      3  O   UNL     1      -0.915   5.130  25.261  0.00  0.00    -0.377 OA
ATOM      4  O   UNL     1       0.492   0.756  23.425  0.00  0.00    -0.253 OA
ATOM      7  N   UNL     1      -0.447   0.158  25.432  0.00  0.00    -0.297 N 
ATOM      8  N   UNL     1      -0.133   2.438  24.894  0.00  0.00    -0.281 N 
ATOM     19  C   UNL     1       0.002   1.094  24.508  0.00  0.00    +0.302 C 
ATOM     20  C   UNL     1      -0.561   2.922  26.215  0.00  0.00    +0.137 C 
ATOM     21  C   UNL     1       0.321   3.493  23.984  0.00  0.00    +0.137 C 
ATOM     22  C   UNL     1      -1.499   4.116  26.079  0.00  0.00    +0.179 C 
ATOM     23  C   UNL     1      -0.675   4.641  23.940  0.00  0.00    +0.179 C 
ATOM     27  H   UNL     1      -0.830   0.432  26.324  0.00  0.00    +0.150 HD
ENDBRANCH  16   7
ENDBRANCH  12  16
TORSDOF 5
ENDMDL
MODEL 8
REMARK VINA RESULT:      -1.7     14.941     17.223
REMARK  Name = 75536748
REMARK  5 active torsions:
REMARK  status: ('A' for Active; 'I' for Inactive)
REMARK    1  A    between atoms: O_2  and  C_10
REMARK    2  A    between atoms: N_5  and  C_9
REMARK    3  A    between atoms: N_5  and  C_11
REMARK    4  A    between atoms: N_7  and  C_16
REMARK    5  A    between atoms: C_12  and  C_16
REMARK                            x       y       z     vdW  Elec       q    Type
REMARK                         _______ _______ _______ _____ _____    ______ ____
ROOT
ATOM      1  O   UNL     1      -0.256   1.510  25.819  0.00  0.00    -0.371 OA
ATOM      9  C   UNL     1       0.191  -0.451  24.554  0.00  0.00    +0.111 C 
ATOM     10  C   UNL     1       0.157   0.744  23.620  0.00  0.00    +0.164 C 
ATOM     12  C   UNL     1       0.397   1.888  24.596  0.00  0.00    +0.165 C 
ATOM     13  C   UNL     1      -0.533   0.100  25.772  0.00  0.00    +0.181 C 
ENDROOT
BRANCH  10   2
ATOM      2  O   UNL     1       1.156   0.685  22.620  0.00  0.00    -0.388 OA
ATOM     26  H   UNL     1       0.737   0.418  21.785  0.00  0.00    +0.210 HD
ENDBRANCH  10   2
BRANCH   9   5
ATOM      5  N   UNL     1      -0.443  -1.639  24.007  0.00  0.00    -0.306 NA
ATOM     24  H   UNL     1       0.085  -2.470  24.271  0.00  0.00    +0.123 HD
BRANCH   5  11
ATOM      6  N   UNL     1      -4.644  -2.303  23.897  0.00  0.00    -0.316 NA
ATOM     11  C   UNL     1      -1.822  -1.760  24.473  0.00  0.00    +0.056 C 
ATOM     14  C   UNL     1      -2.717  -0.747  23.752  0.00  0.00    +0.034 C 
ATOM     15  C   UNL     1      -2.353  -3.182  24.255  0.00  0.00    +0.034 C 
ATOM     17  C   UNL     1      -4.182  -0.934  24.149  0.00  0.00    +0.082 C 
ATOM     18  C   UNL     1      -3.832  -3.274  24.633  0.00  0.00    +0.082 C 
ATOM     25  H   UNL     1      -5.618  -2.388  24.189  0.00  0.00    +0.122 HD
ENDBRANCH   5  11
ENDBRANCH   9   5
BRANCH  12  16
ATOM     16  C   UNL     1      -0.151   3.218  24.110  0.00  0.00    +0.140 C 
BRANCH  16   7
ATOM      3  O   UNL     1      -6.329   3.172  25.849  0.00  0.00    -0.377 OA
ATOM      4  O   UNL     1      -2.467   2.133  22.935  0.00  0.00    -0.253 OA
ATOM      7  N   UNL     1      -1.507   3.430  24.567  0.00  0.00    -0.297 N 
ATOM      8  N   UNL     1      -3.853   3.162  24.484  0.00  0.00    -0.281 N 
ATOM     19  C   UNL     1      -2.599   2.857  23.928  0.00  0.00    +0.302 C 
ATOM     20  C   UNL     1      -4.111   4.128  25.563  0.00  0.00    +0.137 C 
ATOM     21  C   UNL     1      -5.062   2.606  23.871  0.00  0.00    +0.137 C 
ATOM     22  C   UNL     1      -5.149   3.585  26.540  0.00  0.00    +0.179 C 
ATOM     23  C   UNL     1      -6.036   2.117  24.931  0.00  0.00    +0.179 C 
ATOM     27  H   UNL     1      -1.614   4.036  25.366  0.00  0.00    +0.150 HD
ENDBRANCH  16   7
ENDBRANCH  12  16
TORSDOF 5
ENDMDL
MODEL 9
REMARK VINA RESULT:      -1.7     15.351     17.744
REMARK  Name = 75536748
REMARK  5 active torsions:
REMARK  status: ('A' for Active; 'I' for Inactive)
REMARK    1  A    between atoms: O_2  and  C_10
REMARK    2  A    between atoms: N_5  and  C_9
REMARK    3  A    between atoms: N_5  and  C_11
REMARK    4  A    between atoms: N_7  and  C_16
REMARK    5  A    between atoms: C_12  and  C_16
REMARK                            x       y       z     vdW  Elec       q    Type
REMARK                         _______ _______ _______ _____ _____    ______ ____
ROOT
ATOM      1  O   UNL     1      -0.462  -1.202  22.987  0.00  0.00    -0.371 OA
ATOM      9  C   UNL     1       0.560   0.183  24.624  0.00  0.00    +0.111 C 
ATOM     10  C   UNL     1      -0.841  -0.173  25.082  0.00  0.00    +0.164 C 
ATOM     12  C   UNL     1      -1.116  -1.417  24.248  0.00  0.00    +0.165 C 
ATOM     13  C   UNL     1       0.477  -0.123  23.137  0.00  0.00    +0.181 C 
ENDROOT
BRANCH  10   2
ATOM      2  O   UNL     1      -0.911  -0.442  26.469  0.00  0.00    -0.388 OA
ATOM     26  H   UNL     1      -1.312   0.325  26.909  0.00  0.00    +0.210 HD
ENDBRANCH  10   2
BRANCH   9   5
ATOM      5  N   UNL     1       0.932   1.561  24.898  0.00  0.00    -0.306 NA
ATOM     24  H   UNL     1       1.666   1.860  24.257  0.00  0.00    +0.123 HD
BRANCH   5  11
ATOM      6  N   UNL     1      -1.487   5.032  25.342  0.00  0.00    -0.316 NA
ATOM     11  C   UNL     1      -0.220   2.451  24.778  0.00  0.00    +0.056 C 
ATOM     14  C   UNL     1      -0.761   2.808  26.166  0.00  0.00    +0.034 C 
ATOM     15  C   UNL     1       0.147   3.726  24.011  0.00  0.00    +0.034 C 
ATOM     17  C   UNL     1      -1.900   3.824  26.062  0.00  0.00    +0.082 C 
ATOM     18  C   UNL     1      -1.027   4.706  23.991  0.00  0.00    +0.082 C 
ATOM     25  H   UNL     1      -2.278   5.674  25.282  0.00  0.00    +0.122 HD
ENDBRANCH   5  11
ENDBRANCH   9   5
BRANCH  12  16
ATOM     16  C   UNL     1      -2.596  -1.674  24.022  0.00  0.00    +0.140 C 
BRANCH  16   7
ATOM      3  O   UNL     1      -5.741   3.787  25.239  0.00  0.00    -0.377 OA
ATOM      4  O   UNL     1      -4.213  -0.828  26.163  0.00  0.00    -0.253 OA
ATOM      7  N   UNL     1      -3.360  -0.447  24.068  0.00  0.00    -0.297 N 
ATOM      8  N   UNL     1      -4.827   1.118  25.060  0.00  0.00    -0.281 N 
ATOM     19  C   UNL     1      -4.137  -0.102  25.167  0.00  0.00    +0.302 C 
ATOM     20  C   UNL     1      -4.912   1.963  23.860  0.00  0.00    +0.137 C 
ATOM     21  C   UNL     1      -5.676   1.558  26.170  0.00  0.00    +0.137 C 
ATOM     22  C   UNL     1      -4.796   3.439  24.227  0.00  0.00    +0.179 C 
ATOM     23  C   UNL     1      -5.499   3.044  26.435  0.00  0.00    +0.179 C 
ATOM     27  H   UNL     1      -3.311   0.136  23.245  0.00  0.00    +0.150 HD
ENDBRANCH  16   7
ENDBRANCH  12  16
TORSDOF 5
ENDMDL
MODEL 10
REMARK VINA RESULT:      -1.4     14.852     17.359
REMARK  Name = 75536748
REMARK  5 active torsions:
REMARK  status: ('A' for Active; 'I' for Inactive)
REMARK    1  A    between atoms: O_2  and  C_10
REMARK    2  A    between atoms: N_5  and  C_9
REMARK    3  A    between atoms: N_5  and  C_11
REMARK    4  A    between atoms: N_7  and  C_16
REMARK    5  A    between atoms: C_12  and  C_16
REMARK                            x       y       z     vdW  Elec       q    Type
REMARK                         _______ _______ _______ _____ _____    ______ ____
ROOT
ATOM      1  O   UNL     1      -2.553  -2.735  23.534  0.00  0.00    -0.371 OA
ATOM      9  C   UNL     1      -1.142  -1.923  25.265  0.00  0.00    +0.111 C 
ATOM     10  C   UNL     1      -2.535  -1.354  25.454  0.00  0.00    +0.164 C 
ATOM     12  C   UNL     1      -3.369  -2.342  24.650  0.00  0.00    +0.165 C 
ATOM     13  C   UNL     1      -1.192  -2.361  23.810  0.00  0.00    +0.181 C 
ENDROOT
BRANCH  10   2
ATOM      2  O   UNL     1      -2.930  -1.313  26.812  0.00  0.00    -0.388 OA
ATOM     26  H   UNL     1      -2.599  -2.115  27.250  0.00  0.00    +0.210 HD
ENDBRANCH  10   2
BRANCH   9   5
ATOM      5  N   UNL     1      -0.080  -0.969  25.533  0.00  0.00    -0.306 NA
ATOM     24  H   UNL     1       0.749  -1.206  24.989  0.00  0.00    +0.123 HD
BRANCH   5  11
ATOM      6  N   UNL     1       0.126   3.246  24.989  0.00  0.00    -0.316 NA
ATOM     11  C   UNL     1      -0.504   0.393  25.217  0.00  0.00    +0.056 C 
ATOM     14  C   UNL     1      -0.350   1.295  26.446  0.00  0.00    +0.034 C 
ATOM     15  C   UNL     1       0.300   0.961  24.041  0.00  0.00    +0.034 C 
ATOM     17  C   UNL     1      -0.688   2.747  26.102  0.00  0.00    +0.082 C 
ATOM     18  C   UNL     1      -0.063   2.425  23.791  0.00  0.00    +0.082 C 
ATOM     25  H   UNL     1      -0.142   4.209  24.783  0.00  0.00    +0.122 HD
ENDBRANCH   5  11
ENDBRANCH   9   5
BRANCH  12  16
ATOM     16  C   UNL     1      -4.678  -1.757  24.149  0.00  0.00    +0.140 C 
BRANCH  16   7
ATOM      3  O   UNL     1      -5.320   4.534  25.243  0.00  0.00    -0.377 OA
ATOM      4  O   UNL     1      -3.252   0.500  23.259  0.00  0.00    -0.253 OA
ATOM      7  N   UNL     1      -4.867  -0.403  24.617  0.00  0.00    -0.297 N 
ATOM      8  N   UNL     1      -4.412   1.916  24.684  0.00  0.00    -0.281 N 
ATOM     19  C   UNL     1      -4.119   0.660  24.125  0.00  0.00    +0.302 C 
ATOM     20  C   UNL     1      -5.314   2.171  25.817  0.00  0.00    +0.137 C 
ATOM     21  C   UNL     1      -3.667   3.092  24.229  0.00  0.00    +0.137 C 
ATOM     22  C   UNL     1      -6.152   3.421  25.572  0.00  0.00    +0.179 C 
ATOM     23  C   UNL     1      -4.592   4.284  24.039  0.00  0.00    +0.179 C 
ATOM     27  H   UNL     1      -5.562  -0.277  25.338  0.00  0.00    +0.150 HD
ENDBRANCH  16   7
ENDBRANCH  12  16
TORSDOF 5
ENDMDL
