MODEL 1
REMARK VINA RESULT:      -1.0      0.000      0.000
REMARK  Name = 40533457
REMARK  2 active torsions:
REMARK  status: ('A' for Active; 'I' for Inactive)
REMARK    1  A    between atoms: C_13  and  C_14
REMARK    2  A    between atoms: C_22  and  C_24
REMARK                            x       y       z     vdW  Elec       q    Type
REMARK                         _______ _______ _______ _____ _____    ______ ____
ROOT
ATOM      1  O   UNL     1      -5.492   0.493  26.137  0.00  0.00    -0.275 OA
ATOM      2  O   UNL     1      -1.612   4.033  27.153  0.00  0.00    -0.267 OA
ATOM      3  N   UNL     1      -4.380   1.079  24.184  0.00  0.00    -0.300 N 
ATOM      4  N   UNL     1      -2.033   3.049  25.081  0.00  0.00    -0.311 N 
ATOM      6  C   UNL     1      -4.161   3.526  23.737  0.00  0.00    +0.027 C 
ATOM      7  C   UNL     1      -2.477   1.968  22.850  0.00  0.00    +0.054 C 
ATOM      8  C   UNL     1      -3.295   3.215  22.522  0.00  0.00    +0.018 C 
ATOM      9  C   UNL     1      -5.099   2.348  24.046  0.00  0.00    +0.113 C 
ATOM     10  C   UNL     1      -3.427   0.781  23.104  0.00  0.00    +0.117 C 
ATOM     11  C   UNL     1      -3.248   3.862  24.922  0.00  0.00    +0.130 C 
ATOM     12  C   UNL     1      -1.599   2.194  24.066  0.00  0.00    +0.027 A 
ATOM     14  C   UNL     1      -4.689   0.223  25.242  0.00  0.00    +0.219 C 
ATOM     19  C   UNL     1      -0.425   1.553  24.180  0.00  0.00    +0.022 A 
ATOM     20  C   UNL     1      -1.279   3.261  26.253  0.00  0.00    +0.259 A 
ATOM     22  C   UNL     1       0.014   2.501  26.369  0.00  0.00    +0.048 A 
ATOM     23  C   UNL     1       0.388   1.708  25.353  0.00  0.00    +0.015 A 
ENDROOT
BRANCH  22  24
ATOM      5  N   UNL     1       2.987   3.205  28.552  0.00  0.00    -0.263 NA
ATOM     24  C   UNL     1       0.858   2.612  27.571  0.00  0.00    +0.005 A 
ATOM     25  C   UNL     1       0.374   2.251  28.824  0.00  0.00    +0.011 A 
ATOM     26  C   UNL     1       2.160   3.079  27.490  0.00  0.00    +0.119 A 
ATOM     27  C   UNL     1       1.195   2.366  29.940  0.00  0.00    +0.020 A 
ATOM     28  C   UNL     1       2.481   2.843  29.753  0.00  0.00    +0.111 A 
ENDBRANCH  22  24
BRANCH  14  13
ATOM     13  C   UNL     1      -3.976  -1.094  25.269  0.00  0.00    +0.075 C 
ATOM     15  C   UNL     1      -2.482  -0.854  25.493  0.00  0.00    +0.013 C 
ATOM     16  C   UNL     1      -4.233  -1.852  23.966  0.00  0.00    +0.013 C 
ATOM     17  C   UNL     1      -1.689  -2.156  25.433  0.00  0.00    +0.001 C 
ATOM     18  C   UNL     1      -3.440  -3.155  23.911  0.00  0.00    +0.001 C 
ATOM     21  C   UNL     1      -1.948  -2.915  24.135  0.00  0.00    +0.000 C 
ENDBRANCH  14  13
TORSDOF 2
ENDMDL
MODEL 2
REMARK VINA RESULT:      -0.0     16.789     20.122
REMARK  Name = 40533457
REMARK  2 active torsions:
REMARK  status: ('A' for Active; 'I' for Inactive)
REMARK    1  A    between atoms: C_13  and  C_14
REMARK    2  A    between atoms: C_22  and  C_24
REMARK                            x       y       z     vdW  Elec       q    Type
REMARK                         _______ _______ _______ _____ _____    ______ ____
ROOT
ATOM      1  O   UNL     1      14.024  -8.510  32.873  0.00  0.00    -0.275 OA
ATOM      2  O   UNL     1      17.159  -9.190  28.591  0.00  0.00    -0.267 OA
ATOM      3  N   UNL     1      14.826  -6.469  32.108  0.00  0.00    -0.300 N 
ATOM      4  N   UNL     1      16.513  -7.132  29.479  0.00  0.00    -0.311 N 
ATOM      6  C   UNL     1      17.297  -6.315  31.776  0.00  0.00    +0.027 C 
ATOM      7  C   UNL     1      15.795  -4.912  30.426  0.00  0.00    +0.054 C 
ATOM      8  C   UNL     1      17.120  -4.922  31.185  0.00  0.00    +0.018 C 
ATOM      9  C   UNL     1      16.139  -6.647  32.732  0.00  0.00    +0.113 C 
ATOM     10  C   UNL     1      14.637  -5.191  31.404  0.00  0.00    +0.117 C 
ATOM     11  C   UNL     1      17.405  -7.328  30.630  0.00  0.00    +0.130 C 
ATOM     12  C   UNL     1      15.792  -5.947  29.317  0.00  0.00    +0.027 A 
ATOM     14  C   UNL     1      13.844  -7.444  32.279  0.00  0.00    +0.219 C 
ATOM     19  C   UNL     1      15.078  -5.739  28.200  0.00  0.00    +0.022 A 
ATOM     20  C   UNL     1      16.510  -8.148  28.501  0.00  0.00    +0.259 A 
ATOM     22  C   UNL     1      15.671  -7.902  27.276  0.00  0.00    +0.048 A 
ATOM     23  C   UNL     1      15.015  -6.736  27.169  0.00  0.00    +0.015 A 
ENDROOT
BRANCH  22  24
ATOM      5  N   UNL     1      16.626 -10.205  24.469  0.00  0.00    -0.263 NA
ATOM     24  C   UNL     1      15.559  -8.915  26.213  0.00  0.00    +0.005 A 
ATOM     25  C   UNL     1      14.343  -9.530  25.934  0.00  0.00    +0.011 A 
ATOM     26  C   UNL     1      16.661  -9.284  25.458  0.00  0.00    +0.119 A 
ATOM     27  C   UNL     1      14.268 -10.483  24.924  0.00  0.00    +0.020 A 
ATOM     28  C   UNL     1      15.427 -10.781  24.227  0.00  0.00    +0.111 A 
ENDBRANCH  22  24
BRANCH  14  13
ATOM     13  C   UNL     1      12.499  -7.154  31.685  0.00  0.00    +0.075 C 
ATOM     15  C   UNL     1      11.769  -6.138  32.566  0.00  0.00    +0.013 C 
ATOM     16  C   UNL     1      11.702  -8.451  31.544  0.00  0.00    +0.013 C 
ATOM     17  C   UNL     1      10.352  -5.877  32.062  0.00  0.00    +0.001 C 
ATOM     18  C   UNL     1      10.286  -8.185  31.039  0.00  0.00    +0.001 C 
ATOM     21  C   UNL     1       9.557  -7.171  31.918  0.00  0.00    +0.000 C 
ENDBRANCH  14  13
TORSDOF 2
ENDMDL
