MODEL 1
REMARK VINA RESULT:       3.5      0.000      0.000
REMARK  Name = 11882114
REMARK  12 active torsions:
REMARK  status: ('A' for Active; 'I' for Inactive)
REMARK    1  A    between atoms: N_6  and  C_11
REMARK    2  A    between atoms: N_7  and  C_15
REMARK    3  A    between atoms: N_8  and  C_26
REMARK    4  A    between atoms: C_12  and  C_17
REMARK    5  A    between atoms: C_16  and  C_20
REMARK    6  A    between atoms: C_20  and  C_21
REMARK    7  A    between atoms: C_21  and  C_27
REMARK    8  A    between atoms: C_21  and  C_28
REMARK    9  A    between atoms: C_21  and  C_29
REMARK   10  A    between atoms: C_26  and  C_30
REMARK   11  A    between atoms: C_26  and  C_31
REMARK   12  A    between atoms: C_30  and  C_32
REMARK                            x       y       z     vdW  Elec       q    Type
REMARK                         _______ _______ _______ _____ _____    ______ ____
ROOT
ATOM      1  O   UNL     1       1.041   3.343  26.836  0.00  0.00    -0.276 OA
ATOM      5  N   UNL     1      -0.137   1.434  26.264  0.00  0.00    -0.288 N 
ATOM     11  C   UNL     1      -0.428   0.241  24.235  0.00  0.00    +0.105 C 
ATOM     12  C   UNL     1      -0.022   1.596  24.818  0.00  0.00    +0.182 C 
ATOM     13  C   UNL     1      -1.380  -0.329  25.290  0.00  0.00    +0.043 C 
ATOM     14  C   UNL     1      -0.815   0.187  26.607  0.00  0.00    +0.110 C 
ATOM     16  C   UNL     1       0.475   2.297  27.160  0.00  0.00    +0.217 C 
ENDROOT
BRANCH  11   6
ATOM      3  O   UNL     1       1.954   0.867  22.751  0.00  0.00    -0.253 OA
ATOM      6  N   UNL     1       0.724  -0.610  24.051  0.00  0.00    -0.294 N 
ATOM      7  N   UNL     1       2.805  -1.224  23.293  0.00  0.00    -0.297 N 
ATOM     25  C   UNL     1       1.839  -0.221  23.313  0.00  0.00    +0.300 C 
ATOM     40  H   UNL     1       0.693  -1.556  24.418  0.00  0.00    +0.151 HD
ATOM     41  H   UNL     1       2.578  -2.112  23.730  0.00  0.00    +0.151 HD
BRANCH   7  15
ATOM     15  C   UNL     1       4.067  -1.092  22.600  0.00  0.00    +0.074 C 
ATOM     18  C   UNL     1       5.224  -1.621  23.457  0.00  0.00    +0.022 C 
ATOM     19  C   UNL     1       4.312   0.358  22.171  0.00  0.00    +0.022 C 
ATOM     22  C   UNL     1       5.543  -0.703  24.637  0.00  0.00    +0.002 C 
ATOM     23  C   UNL     1       4.633   1.271  23.352  0.00  0.00    +0.002 C 
ATOM     24  C   UNL     1       5.793   0.732  24.183  0.00  0.00    +0.000 C 
ENDBRANCH   7  15
ENDBRANCH  11   6
BRANCH  12  17
ATOM      2  O   UNL     1      -1.231   2.936  23.256  0.00  0.00    -0.274 OA
ATOM      8  N   UNL     1      -1.529   3.314  25.533  0.00  0.00    -0.302 N 
ATOM     17  C   UNL     1      -0.990   2.673  24.431  0.00  0.00    +0.236 C 
ATOM     42  H   UNL     1      -1.332   2.945  26.458  0.00  0.00    +0.150 HD
BRANCH   8  26
ATOM     26  C   UNL     1      -2.472   4.404  25.431  0.00  0.00    +0.163 C 
BRANCH  26  31
ATOM      4  O   UNL     1      -2.187   6.747  24.851  0.00  0.00    -0.274 OA
ATOM      9  N   UNL     1      -0.361   5.358  24.743  0.00  0.00    -0.328 N 
ATOM     31  C   UNL     1      -1.694   5.627  24.968  0.00  0.00    +0.231 C 
ATOM     44  H   UNL     1       0.275   6.091  24.442  0.00  0.00    +0.145 HD
ATOM     45  H   UNL     1       0.037   4.432  24.864  0.00  0.00    +0.145 HD
ENDBRANCH  26  31
BRANCH  26  30
ATOM     30  C   UNL     1      -3.614   4.094  24.454  0.00  0.00    +0.069 C 
BRANCH  30  32
ATOM     10  N   UNL     1      -5.959   1.658  25.897  0.00  0.00    -0.360 N 
ATOM     32  C   UNL     1      -4.441   2.911  24.871  0.00  0.00    -0.020 A 
ATOM     33  C   UNL     1      -4.319   1.579  24.387  0.00  0.00    +0.003 A 
ATOM     34  C   UNL     1      -5.458   2.929  25.798  0.00  0.00    +0.087 A 
ATOM     35  C   UNL     1      -5.283   0.813  25.047  0.00  0.00    +0.047 A 
ATOM     36  C   UNL     1      -3.478   0.948  23.448  0.00  0.00    +0.010 A 
ATOM     37  C   UNL     1      -5.449  -0.557  24.812  0.00  0.00    +0.026 A 
ATOM     38  C   UNL     1      -3.633  -0.421  23.204  0.00  0.00    +0.001 A 
ATOM     39  C   UNL     1      -4.604  -1.160  23.878  0.00  0.00    +0.002 A 
ATOM     43  H   UNL     1      -6.717   1.381  26.505  0.00  0.00    +0.165 HD
ENDBRANCH  30  32
ENDBRANCH  26  30
ENDBRANCH   8  26
ENDBRANCH  12  17
BRANCH  16  20
ATOM     20  C   UNL     1       0.408   1.885  28.609  0.00  0.00    +0.102 C 
BRANCH  20  21
ATOM     21  C   UNL     1       1.515   2.529  29.464  0.00  0.00    -0.029 C 
ATOM     27  C   UNL     1       0.845   3.508  30.445  0.00  0.00    +0.011 C 
ATOM     28  C   UNL     1       2.277   1.467  30.275  0.00  0.00    +0.011 C 
ATOM     29  C   UNL     1       2.507   3.312  28.589  0.00  0.00    +0.011 C 
ENDBRANCH  20  21
ENDBRANCH  16  20
TORSDOF 9
ENDMDL
MODEL 2
REMARK VINA RESULT:       3.8      2.086      3.825
REMARK  Name = 11882114
REMARK  12 active torsions:
REMARK  status: ('A' for Active; 'I' for Inactive)
REMARK    1  A    between atoms: N_6  and  C_11
REMARK    2  A    between atoms: N_7  and  C_15
REMARK    3  A    between atoms: N_8  and  C_26
REMARK    4  A    between atoms: C_12  and  C_17
REMARK    5  A    between atoms: C_16  and  C_20
REMARK    6  A    between atoms: C_20  and  C_21
REMARK    7  A    between atoms: C_21  and  C_27
REMARK    8  A    between atoms: C_21  and  C_28
REMARK    9  A    between atoms: C_21  and  C_29
REMARK   10  A    between atoms: C_26  and  C_30
REMARK   11  A    between atoms: C_26  and  C_31
REMARK   12  A    between atoms: C_30  and  C_32
REMARK                            x       y       z     vdW  Elec       q    Type
REMARK                         _______ _______ _______ _____ _____    ______ ____
ROOT
ATOM      1  O   UNL     1      -2.057  -0.457  26.964  0.00  0.00    -0.276 OA
ATOM      5  N   UNL     1      -1.671   0.484  24.884  0.00  0.00    -0.288 N 
ATOM     11  C   UNL     1       0.228   1.476  23.868  0.00  0.00    +0.105 C 
ATOM     12  C   UNL     1      -0.388   1.095  25.215  0.00  0.00    +0.182 C 
ATOM     13  C   UNL     1      -0.992   1.697  22.969  0.00  0.00    +0.043 C 
ATOM     14  C   UNL     1      -2.008   0.682  23.478  0.00  0.00    +0.110 C 
ATOM     16  C   UNL     1      -2.369  -0.310  25.781  0.00  0.00    +0.217 C 
ENDROOT
BRANCH  11   6
ATOM      3  O   UNL     1       3.032   1.643  23.256  0.00  0.00    -0.253 OA
ATOM      6  N   UNL     1       1.067   0.415  23.364  0.00  0.00    -0.294 N 
ATOM      7  N   UNL     1       2.996  -0.590  22.621  0.00  0.00    -0.297 N 
ATOM     25  C   UNL     1       2.422   0.586  23.095  0.00  0.00    +0.300 C 
ATOM     40  H   UNL     1       0.637  -0.476  23.132  0.00  0.00    +0.151 HD
ATOM     41  H   UNL     1       2.386  -1.384  22.457  0.00  0.00    +0.151 HD
BRANCH   7  15
ATOM     15  C   UNL     1       4.392  -0.700  22.261  0.00  0.00    +0.074 C 
ATOM     18  C   UNL     1       5.052  -1.886  22.973  0.00  0.00    +0.022 C 
ATOM     19  C   UNL     1       5.140   0.605  22.547  0.00  0.00    +0.022 C 
ATOM     22  C   UNL     1       5.247  -1.635  24.468  0.00  0.00    +0.002 C 
ATOM     23  C   UNL     1       5.335   0.852  24.042  0.00  0.00    +0.002 C 
ATOM     24  C   UNL     1       6.003  -0.336  24.727  0.00  0.00    +0.000 C 
ENDBRANCH   7  15
ENDBRANCH  11   6
BRANCH  12  17
ATOM      2  O   UNL     1      -0.568   2.310  27.263  0.00  0.00    -0.274 OA
ATOM      8  N   UNL     1      -1.140   3.369  25.271  0.00  0.00    -0.302 N 
ATOM     17  C   UNL     1      -0.694   2.309  26.041  0.00  0.00    +0.236 C 
ATOM     42  H   UNL     1      -1.110   3.284  24.260  0.00  0.00    +0.150 HD
BRANCH   8  26
ATOM     26  C   UNL     1      -1.523   4.646  25.829  0.00  0.00    +0.163 C 
BRANCH  26  31
ATOM      4  O   UNL     1      -1.536   6.852  24.811  0.00  0.00    -0.274 OA
ATOM      9  N   UNL     1      -0.037   5.295  24.037  0.00  0.00    -0.328 N 
ATOM     31  C   UNL     1      -1.068   5.717  24.848  0.00  0.00    +0.231 C 
ATOM     44  H   UNL     1       0.370   5.917  23.345  0.00  0.00    +0.145 HD
ATOM     45  H   UNL     1       0.355   4.360  24.093  0.00  0.00    +0.145 HD
ENDBRANCH  26  31
BRANCH  26  30
ATOM     30  C   UNL     1      -3.035   4.745  26.068  0.00  0.00    +0.069 C 
BRANCH  30  32
ATOM     10  N   UNL     1      -4.610   2.854  23.338  0.00  0.00    -0.360 N 
ATOM     32  C   UNL     1      -3.835   3.854  25.161  0.00  0.00    -0.020 A 
ATOM     33  C   UNL     1      -4.859   2.947  25.553  0.00  0.00    +0.003 A 
ATOM     34  C   UNL     1      -3.705   3.775  23.794  0.00  0.00    +0.087 A 
ATOM     35  C   UNL     1      -5.328   2.332  24.390  0.00  0.00    +0.047 A 
ATOM     36  C   UNL     1      -5.433   2.588  26.788  0.00  0.00    +0.010 A 
ATOM     37  C   UNL     1      -6.346   1.372  24.401  0.00  0.00    +0.026 A 
ATOM     38  C   UNL     1      -6.453   1.629  26.815  0.00  0.00    +0.001 A 
ATOM     39  C   UNL     1      -6.901   1.033  25.638  0.00  0.00    +0.002 A 
ATOM     43  H   UNL     1      -4.733   2.594  22.369  0.00  0.00    +0.165 HD
ENDBRANCH  30  32
ENDBRANCH  26  30
ENDBRANCH   8  26
ENDBRANCH  12  17
BRANCH  16  20
ATOM     20  C   UNL     1      -3.583  -1.010  25.222  0.00  0.00    +0.102 C 
BRANCH  20  21
ATOM     21  C   UNL     1      -3.263  -2.414  24.674  0.00  0.00    -0.029 C 
ATOM     27  C   UNL     1      -4.275  -2.725  23.556  0.00  0.00    +0.011 C 
ATOM     28  C   UNL     1      -1.845  -2.467  24.082  0.00  0.00    +0.011 C 
ATOM     29  C   UNL     1      -3.400  -3.482  25.772  0.00  0.00    +0.011 C 
ENDBRANCH  20  21
ENDBRANCH  16  20
TORSDOF 9
ENDMDL
MODEL 3
REMARK VINA RESULT:       5.4      1.555      2.179
REMARK  Name = 11882114
REMARK  12 active torsions:
REMARK  status: ('A' for Active; 'I' for Inactive)
REMARK    1  A    between atoms: N_6  and  C_11
REMARK    2  A    between atoms: N_7  and  C_15
REMARK    3  A    between atoms: N_8  and  C_26
REMARK    4  A    between atoms: C_12  and  C_17
REMARK    5  A    between atoms: C_16  and  C_20
REMARK    6  A    between atoms: C_20  and  C_21
REMARK    7  A    between atoms: C_21  and  C_27
REMARK    8  A    between atoms: C_21  and  C_28
REMARK    9  A    between atoms: C_21  and  C_29
REMARK   10  A    between atoms: C_26  and  C_30
REMARK   11  A    between atoms: C_26  and  C_31
REMARK   12  A    between atoms: C_30  and  C_32
REMARK                            x       y       z     vdW  Elec       q    Type
REMARK                         _______ _______ _______ _____ _____    ______ ____
ROOT
ATOM      1  O   UNL     1       0.794   3.474  26.679  0.00  0.00    -0.276 OA
ATOM      5  N   UNL     1      -0.090   1.481  25.900  0.00  0.00    -0.288 N 
ATOM     11  C   UNL     1      -0.282   0.514  23.743  0.00  0.00    +0.105 C 
ATOM     12  C   UNL     1      -0.070   1.835  24.484  0.00  0.00    +0.182 C 
ATOM     13  C   UNL     1      -1.079  -0.330  24.741  0.00  0.00    +0.043 C 
ATOM     14  C   UNL     1      -0.543   0.108  26.098  0.00  0.00    +0.110 C 
ATOM     16  C   UNL     1       0.418   2.318  26.882  0.00  0.00    +0.217 C 
ENDROOT
BRANCH  11   6
ATOM      3  O   UNL     1       2.204   1.852  23.203  0.00  0.00    -0.253 OA
ATOM      6  N   UNL     1       0.981  -0.107  23.421  0.00  0.00    -0.294 N 
ATOM      7  N   UNL     1       3.214  -0.214  22.889  0.00  0.00    -0.297 N 
ATOM     25  C   UNL     1       2.140   0.624  23.174  0.00  0.00    +0.300 C 
ATOM     40  H   UNL     1       1.011  -1.115  23.304  0.00  0.00    +0.151 HD
ATOM     41  H   UNL     1       3.035  -1.211  22.820  0.00  0.00    +0.151 HD
BRANCH   7  15
ATOM     15  C   UNL     1       4.543   0.274  22.593  0.00  0.00    +0.074 C 
ATOM     18  C   UNL     1       5.517  -0.886  22.357  0.00  0.00    +0.022 C 
ATOM     19  C   UNL     1       5.047   1.206  23.699  0.00  0.00    +0.022 C 
ATOM     22  C   UNL     1       5.858  -1.633  23.645  0.00  0.00    +0.002 C 
ATOM     23  C   UNL     1       5.388   0.455  24.985  0.00  0.00    +0.002 C 
ATOM     24  C   UNL     1       6.367  -0.687  24.728  0.00  0.00    +0.000 C 
ENDBRANCH   7  15
ENDBRANCH  11   6
BRANCH  12  17
ATOM      2  O   UNL     1      -1.159   3.957  24.600  0.00  0.00    -0.274 OA
ATOM      8  N   UNL     1      -2.303   2.153  23.678  0.00  0.00    -0.302 N 
ATOM     17  C   UNL     1      -1.216   2.778  24.264  0.00  0.00    +0.236 C 
ATOM     42  H   UNL     1      -2.200   1.197  23.352  0.00  0.00    +0.150 HD
BRANCH   8  26
ATOM     26  C   UNL     1      -3.542   2.836  23.380  0.00  0.00    +0.163 C 
BRANCH  26  31
ATOM      4  O   UNL     1      -4.325   3.865  21.323  0.00  0.00    -0.274 OA
ATOM      9  N   UNL     1      -2.648   2.302  21.200  0.00  0.00    -0.328 N 
ATOM     31  C   UNL     1      -3.579   3.060  21.876  0.00  0.00    +0.231 C 
ATOM     44  H   UNL     1      -2.557   2.366  20.190  0.00  0.00    +0.145 HD
ATOM     45  H   UNL     1      -2.021   1.657  21.672  0.00  0.00    +0.145 HD
ENDBRANCH  26  31
BRANCH  26  30
ATOM     30  C   UNL     1      -4.769   2.035  23.834  0.00  0.00    +0.069 C 
BRANCH  30  32
ATOM     10  N   UNL     1      -3.973  -0.235  26.614  0.00  0.00    -0.360 N 
ATOM     32  C   UNL     1      -4.426   0.908  24.765  0.00  0.00    -0.020 A 
ATOM     33  C   UNL     1      -4.182  -0.447  24.403  0.00  0.00    +0.003 A 
ATOM     34  C   UNL     1      -4.290   1.007  26.131  0.00  0.00    +0.087 A 
ATOM     35  C   UNL     1      -3.901  -1.142  25.581  0.00  0.00    +0.047 A 
ATOM     36  C   UNL     1      -4.174  -1.151  23.182  0.00  0.00    +0.010 A 
ATOM     37  C   UNL     1      -3.612  -2.511  25.599  0.00  0.00    +0.026 A 
ATOM     38  C   UNL     1      -3.886  -2.520  23.185  0.00  0.00    +0.001 A 
ATOM     39  C   UNL     1      -3.609  -3.187  24.376  0.00  0.00    +0.002 A 
ATOM     43  H   UNL     1      -3.816  -0.454  27.588  0.00  0.00    +0.165 HD
ENDBRANCH  30  32
ENDBRANCH  26  30
ENDBRANCH   8  26
ENDBRANCH  12  17
BRANCH  16  20
ATOM     20  C   UNL     1       0.487   1.727  28.268  0.00  0.00    +0.102 C 
BRANCH  20  21
ATOM     21  C   UNL     1       1.438   2.500  29.200  0.00  0.00    -0.029 C 
ATOM     27  C   UNL     1       2.203   1.471  30.052  0.00  0.00    +0.011 C 
ATOM     28  C   UNL     1       2.456   3.323  28.393  0.00  0.00    +0.011 C 
ATOM     29  C   UNL     1       0.657   3.432  30.141  0.00  0.00    +0.011 C 
ENDBRANCH  20  21
ENDBRANCH  16  20
TORSDOF 9
ENDMDL
MODEL 4
REMARK VINA RESULT:       5.5      1.207      1.770
REMARK  Name = 11882114
REMARK  12 active torsions:
REMARK  status: ('A' for Active; 'I' for Inactive)
REMARK    1  A    between atoms: N_6  and  C_11
REMARK    2  A    between atoms: N_7  and  C_15
REMARK    3  A    between atoms: N_8  and  C_26
REMARK    4  A    between atoms: C_12  and  C_17
REMARK    5  A    between atoms: C_16  and  C_20
REMARK    6  A    between atoms: C_20  and  C_21
REMARK    7  A    between atoms: C_21  and  C_27
REMARK    8  A    between atoms: C_21  and  C_28
REMARK    9  A    between atoms: C_21  and  C_29
REMARK   10  A    between atoms: C_26  and  C_30
REMARK   11  A    between atoms: C_26  and  C_31
REMARK   12  A    between atoms: C_30  and  C_32
REMARK                            x       y       z     vdW  Elec       q    Type
REMARK                         _______ _______ _______ _____ _____    ______ ____
ROOT
ATOM      1  O   UNL     1       0.839   3.393  26.829  0.00  0.00    -0.276 OA
ATOM      5  N   UNL     1      -0.012   1.385  26.052  0.00  0.00    -0.288 N 
ATOM     11  C   UNL     1      -0.290   0.458  23.886  0.00  0.00    +0.105 C 
ATOM     12  C   UNL     1      -0.085   1.770  24.646  0.00  0.00    +0.182 C 
ATOM     13  C   UNL     1      -0.998  -0.437  24.907  0.00  0.00    +0.043 C 
ATOM     14  C   UNL     1      -0.403  -0.008  26.242  0.00  0.00    +0.110 C 
ATOM     16  C   UNL     1       0.519   2.218  27.024  0.00  0.00    +0.217 C 
ENDROOT
BRANCH  11   6
ATOM      3  O   UNL     1       2.143   1.893  23.351  0.00  0.00    -0.253 OA
ATOM      6  N   UNL     1       0.976  -0.107  23.481  0.00  0.00    -0.294 N 
ATOM      7  N   UNL     1       3.190  -0.121  22.866  0.00  0.00    -0.297 N 
ATOM     25  C   UNL     1       2.107   0.668  23.243  0.00  0.00    +0.300 C 
ATOM     40  H   UNL     1       1.026  -1.105  23.297  0.00  0.00    +0.151 HD
ATOM     41  H   UNL     1       3.032  -1.116  22.738  0.00  0.00    +0.151 HD
BRANCH   7  15
ATOM     15  C   UNL     1       4.495   0.420  22.557  0.00  0.00    +0.074 C 
ATOM     18  C   UNL     1       5.488  -0.696  22.213  0.00  0.00    +0.022 C 
ATOM     19  C   UNL     1       5.016   1.292  23.704  0.00  0.00    +0.022 C 
ATOM     22  C   UNL     1       5.893  -1.515  23.438  0.00  0.00    +0.002 C 
ATOM     23  C   UNL     1       5.421   0.470  24.926  0.00  0.00    +0.002 C 
ATOM     24  C   UNL     1       6.417  -0.627  24.562  0.00  0.00    +0.000 C 
ENDBRANCH   7  15
ENDBRANCH  11   6
BRANCH  12  17
ATOM      2  O   UNL     1      -1.540   3.244  23.457  0.00  0.00    -0.274 OA
ATOM      8  N   UNL     1      -1.984   2.784  25.695  0.00  0.00    -0.302 N 
ATOM     17  C   UNL     1      -1.275   2.673  24.512  0.00  0.00    +0.236 C 
ATOM     42  H   UNL     1      -1.729   2.187  26.475  0.00  0.00    +0.150 HD
BRANCH   8  26
ATOM     26  C   UNL     1      -3.161   3.612  25.837  0.00  0.00    +0.163 C 
BRANCH  26  31
ATOM      4  O   UNL     1      -3.796   5.086  24.012  0.00  0.00    -0.274 OA
ATOM      9  N   UNL     1      -1.865   5.539  25.170  0.00  0.00    -0.328 N 
ATOM     31  C   UNL     1      -2.992   4.795  24.895  0.00  0.00    +0.231 C 
ATOM     44  H   UNL     1      -1.641   6.365  24.624  0.00  0.00    +0.145 HD
ATOM     45  H   UNL     1      -1.221   5.299  25.917  0.00  0.00    +0.145 HD
ENDBRANCH  26  31
BRANCH  26  30
ATOM     30  C   UNL     1      -4.450   2.847  25.512  0.00  0.00    +0.069 C 
BRANCH  30  32
ATOM     10  N   UNL     1      -3.947   0.448  22.772  0.00  0.00    -0.360 N 
ATOM     32  C   UNL     1      -4.226   1.673  24.602  0.00  0.00    -0.020 A 
ATOM     33  C   UNL     1      -4.044   0.318  24.997  0.00  0.00    +0.003 A 
ATOM     34  C   UNL     1      -4.162   1.721  23.228  0.00  0.00    +0.087 A 
ATOM     35  C   UNL     1      -3.871  -0.429  23.829  0.00  0.00    +0.047 A 
ATOM     36  C   UNL     1      -4.009  -0.347  26.238  0.00  0.00    +0.010 A 
ATOM     37  C   UNL     1      -3.664  -1.813  23.843  0.00  0.00    +0.026 A 
ATOM     38  C   UNL     1      -3.803  -1.731  26.267  0.00  0.00    +0.001 A 
ATOM     39  C   UNL     1      -3.634  -2.451  25.086  0.00  0.00    +0.002 A 
ATOM     43  H   UNL     1      -3.858   0.189  21.799  0.00  0.00    +0.165 HD
ENDBRANCH  30  32
ENDBRANCH  26  30
ENDBRANCH   8  26
ENDBRANCH  12  17
BRANCH  16  20
ATOM     20  C   UNL     1       0.686   1.601  28.390  0.00  0.00    +0.102 C 
BRANCH  20  21
ATOM     21  C   UNL     1       1.553   2.458  29.331  0.00  0.00    -0.029 C 
ATOM     27  C   UNL     1       2.325   1.505  30.261  0.00  0.00    +0.011 C 
ATOM     28  C   UNL     1       2.567   3.298  28.537  0.00  0.00    +0.011 C 
ATOM     29  C   UNL     1       0.683   3.388  30.193  0.00  0.00    +0.011 C 
ENDBRANCH  20  21
ENDBRANCH  16  20
TORSDOF 9
ENDMDL
MODEL 5
REMARK VINA RESULT:       7.2      2.665      5.294
REMARK  Name = 11882114
REMARK  12 active torsions:
REMARK  status: ('A' for Active; 'I' for Inactive)
REMARK    1  A    between atoms: N_6  and  C_11
REMARK    2  A    between atoms: N_7  and  C_15
REMARK    3  A    between atoms: N_8  and  C_26
REMARK    4  A    between atoms: C_12  and  C_17
REMARK    5  A    between atoms: C_16  and  C_20
REMARK    6  A    between atoms: C_20  and  C_21
REMARK    7  A    between atoms: C_21  and  C_27
REMARK    8  A    between atoms: C_21  and  C_28
REMARK    9  A    between atoms: C_21  and  C_29
REMARK   10  A    between atoms: C_26  and  C_30
REMARK   11  A    between atoms: C_26  and  C_31
REMARK   12  A    between atoms: C_30  and  C_32
REMARK                            x       y       z     vdW  Elec       q    Type
REMARK                         _______ _______ _______ _____ _____    ______ ____
ROOT
ATOM      1  O   UNL     1      -2.391   0.844  21.601  0.00  0.00    -0.276 OA
ATOM      5  N   UNL     1      -1.510   2.126  23.316  0.00  0.00    -0.288 N 
ATOM     11  C   UNL     1       0.075   1.696  25.028  0.00  0.00    +0.105 C 
ATOM     12  C   UNL     1      -0.879   1.025  24.037  0.00  0.00    +0.182 C 
ATOM     13  C   UNL     1      -0.577   3.058  25.281  0.00  0.00    +0.043 C 
ATOM     14  C   UNL     1      -1.217   3.410  23.945  0.00  0.00    +0.110 C 
ATOM     16  C   UNL     1      -2.160   1.945  22.105  0.00  0.00    +0.217 C 
ENDROOT
BRANCH  11   6
ATOM      3  O   UNL     1       1.463  -0.215  23.389  0.00  0.00    -0.253 OA
ATOM      6  N   UNL     1       1.393   1.842  24.458  0.00  0.00    -0.294 N 
ATOM      7  N   UNL     1       3.257   1.251  23.250  0.00  0.00    -0.297 N 
ATOM     25  C   UNL     1       1.989   0.860  23.672  0.00  0.00    +0.300 C 
ATOM     40  H   UNL     1       1.936   2.667  24.694  0.00  0.00    +0.151 HD
ATOM     41  H   UNL     1       3.625   2.129  23.601  0.00  0.00    +0.151 HD
BRANCH   7  15
ATOM     15  C   UNL     1       4.105   0.424  22.420  0.00  0.00    +0.074 C 
ATOM     18  C   UNL     1       3.723  -1.055  22.542  0.00  0.00    +0.022 C 
ATOM     19  C   UNL     1       5.584   0.644  22.752  0.00  0.00    +0.022 C 
ATOM     22  C   UNL     1       4.118  -1.651  23.892  0.00  0.00    +0.002 C 
ATOM     23  C   UNL     1       5.976   0.046  24.101  0.00  0.00    +0.002 C 
ATOM     24  C   UNL     1       5.597  -1.429  24.195  0.00  0.00    +0.000 C 
ENDBRANCH   7  15
ENDBRANCH  11   6
BRANCH  12  17
ATOM      2  O   UNL     1      -1.903   0.004  25.936  0.00  0.00    -0.274 OA
ATOM      8  N   UNL     1      -3.029  -0.019  23.899  0.00  0.00    -0.302 N 
ATOM     17  C   UNL     1      -1.979   0.292  24.745  0.00  0.00    +0.236 C 
ATOM     42  H   UNL     1      -3.026   0.358  22.957  0.00  0.00    +0.150 HD
BRANCH   8  26
ATOM     26  C   UNL     1      -4.203  -0.744  24.331  0.00  0.00    +0.163 C 
BRANCH  26  31
ATOM      4  O   UNL     1      -3.824  -3.008  23.533  0.00  0.00    -0.274 OA
ATOM      9  N   UNL     1      -3.363  -2.526  25.730  0.00  0.00    -0.328 N 
ATOM     31  C   UNL     1      -3.803  -2.206  24.464  0.00  0.00    +0.231 C 
ATOM     44  H   UNL     1      -3.053  -3.467  25.952  0.00  0.00    +0.145 HD
ATOM     45  H   UNL     1      -3.331  -1.847  26.485  0.00  0.00    +0.145 HD
ENDBRANCH  26  31
BRANCH  26  30
ATOM     30  C   UNL     1      -4.755  -0.215  25.661  0.00  0.00    +0.069 C 
BRANCH  30  32
ATOM     10  N   UNL     1      -6.977   2.665  25.126  0.00  0.00    -0.360 N 
ATOM     32  C   UNL     1      -5.438   1.116  25.529  0.00  0.00    -0.020 A 
ATOM     33  C   UNL     1      -4.869   2.391  25.805  0.00  0.00    +0.003 A 
ATOM     34  C   UNL     1      -6.734   1.316  25.113  0.00  0.00    +0.087 A 
ATOM     35  C   UNL     1      -5.856   3.344  25.545  0.00  0.00    +0.047 A 
ATOM     36  C   UNL     1      -3.607   2.827  26.254  0.00  0.00    +0.010 A 
ATOM     37  C   UNL     1      -5.642   4.718  25.712  0.00  0.00    +0.026 A 
ATOM     38  C   UNL     1      -3.378   4.197  26.426  0.00  0.00    +0.001 A 
ATOM     39  C   UNL     1      -4.382   5.126  26.158  0.00  0.00    +0.002 A 
ATOM     43  H   UNL     1      -7.852   3.097  24.866  0.00  0.00    +0.165 HD
ENDBRANCH  30  32
ENDBRANCH  26  30
ENDBRANCH   8  26
ENDBRANCH  12  17
BRANCH  16  20
ATOM     20  C   UNL     1      -2.597   3.209  21.406  0.00  0.00    +0.102 C 
BRANCH  20  21
ATOM     21  C   UNL     1      -3.978   3.702  21.874  0.00  0.00    -0.029 C 
ATOM     27  C   UNL     1      -4.807   4.041  20.622  0.00  0.00    +0.011 C 
ATOM     28  C   UNL     1      -4.715   2.613  22.671  0.00  0.00    +0.011 C 
ATOM     29  C   UNL     1      -3.852   4.969  22.737  0.00  0.00    +0.011 C 
ENDBRANCH  20  21
ENDBRANCH  16  20
TORSDOF 9
ENDMDL
MODEL 6
REMARK VINA RESULT:       7.3      2.197      4.148
REMARK  Name = 11882114
REMARK  12 active torsions:
REMARK  status: ('A' for Active; 'I' for Inactive)
REMARK    1  A    between atoms: N_6  and  C_11
REMARK    2  A    between atoms: N_7  and  C_15
REMARK    3  A    between atoms: N_8  and  C_26
REMARK    4  A    between atoms: C_12  and  C_17
REMARK    5  A    between atoms: C_16  and  C_20
REMARK    6  A    between atoms: C_20  and  C_21
REMARK    7  A    between atoms: C_21  and  C_27
REMARK    8  A    between atoms: C_21  and  C_28
REMARK    9  A    between atoms: C_21  and  C_29
REMARK   10  A    between atoms: C_26  and  C_30
REMARK   11  A    between atoms: C_26  and  C_31
REMARK   12  A    between atoms: C_30  and  C_32
REMARK                            x       y       z     vdW  Elec       q    Type
REMARK                         _______ _______ _______ _____ _____    ______ ____
ROOT
ATOM      1  O   UNL     1      -0.673   2.765  22.904  0.00  0.00    -0.276 OA
ATOM      5  N   UNL     1      -0.623   1.320  24.712  0.00  0.00    -0.288 N 
ATOM     11  C   UNL     1      -0.397  -1.032  24.917  0.00  0.00    +0.105 C 
ATOM     12  C   UNL     1      -0.766   0.088  23.943  0.00  0.00    +0.182 C 
ATOM     13  C   UNL     1      -0.749  -0.444  26.286  0.00  0.00    +0.043 C 
ATOM     14  C   UNL     1      -0.443   1.041  26.134  0.00  0.00    +0.110 C 
ATOM     16  C   UNL     1      -0.515   2.564  24.110  0.00  0.00    +0.217 C 
ENDROOT
BRANCH  11   6
ATOM      3  O   UNL     1       1.379  -0.393  22.749  0.00  0.00    -0.253 OA
ATOM      6  N   UNL     1       1.008  -1.352  24.828  0.00  0.00    -0.294 N 
ATOM      7  N   UNL     1       3.109  -1.427  23.900  0.00  0.00    -0.297 N 
ATOM     25  C   UNL     1       1.795  -1.001  23.735  0.00  0.00    +0.300 C 
ATOM     40  H   UNL     1       1.426  -1.916  25.562  0.00  0.00    +0.151 HD
ATOM     41  H   UNL     1       3.329  -1.983  24.720  0.00  0.00    +0.151 HD
BRANCH   7  15
ATOM     15  C   UNL     1       4.146  -1.196  22.918  0.00  0.00    +0.074 C 
ATOM     18  C   UNL     1       5.539  -1.315  23.549  0.00  0.00    +0.022 C 
ATOM     19  C   UNL     1       3.963   0.160  22.231  0.00  0.00    +0.022 C 
ATOM     22  C   UNL     1       5.865  -0.140  24.469  0.00  0.00    +0.002 C 
ATOM     23  C   UNL     1       4.292   1.333  23.153  0.00  0.00    +0.002 C 
ATOM     24  C   UNL     1       5.685   1.198  23.759  0.00  0.00    +0.000 C 
ENDBRANCH   7  15
ENDBRANCH  11   6
BRANCH  12  17
ATOM      2  O   UNL     1      -2.612   0.504  22.486  0.00  0.00    -0.274 OA
ATOM      8  N   UNL     1      -2.981  -0.657  24.470  0.00  0.00    -0.302 N 
ATOM     17  C   UNL     1      -2.207   0.006  23.533  0.00  0.00    +0.236 C 
ATOM     42  H   UNL     1      -2.519  -1.113  25.250  0.00  0.00    +0.150 HD
BRANCH   8  26
ATOM     26  C   UNL     1      -4.406  -0.851  24.323  0.00  0.00    +0.163 C 
BRANCH  26  31
ATOM      4  O   UNL     1      -5.546  -2.623  23.113  0.00  0.00    -0.274 OA
ATOM      9  N   UNL     1      -3.619  -3.135  24.253  0.00  0.00    -0.328 N 
ATOM     31  C   UNL     1      -4.615  -2.278  23.837  0.00  0.00    +0.231 C 
ATOM     44  H   UNL     1      -3.630  -4.115  23.987  0.00  0.00    +0.145 HD
ATOM     45  H   UNL     1      -2.843  -2.830  24.833  0.00  0.00    +0.145 HD
ENDBRANCH  26  31
BRANCH  26  30
ATOM     30  C   UNL     1      -5.162  -0.615  25.637  0.00  0.00    +0.069 C 
BRANCH  30  32
ATOM     10  N   UNL     1      -6.399   2.668  26.736  0.00  0.00    -0.360 N 
ATOM     32  C   UNL     1      -5.527   0.825  25.857  0.00  0.00    -0.020 A 
ATOM     33  C   UNL     1      -5.145   1.929  25.045  0.00  0.00    +0.003 A 
ATOM     34  C   UNL     1      -6.297   1.310  26.889  0.00  0.00    +0.087 A 
ATOM     35  C   UNL     1      -5.705   3.073  25.618  0.00  0.00    +0.047 A 
ATOM     36  C   UNL     1      -4.374   2.067  23.873  0.00  0.00    +0.010 A 
ATOM     37  C   UNL     1      -5.532   4.352  25.077  0.00  0.00    +0.026 A 
ATOM     38  C   UNL     1      -4.192   3.340  23.320  0.00  0.00    +0.001 A 
ATOM     39  C   UNL     1      -4.764   4.463  23.915  0.00  0.00    +0.002 A 
ATOM     43  H   UNL     1      -6.909   3.283  27.354  0.00  0.00    +0.165 HD
ENDBRANCH  30  32
ENDBRANCH  26  30
ENDBRANCH   8  26
ENDBRANCH  12  17
BRANCH  16  20
ATOM     20  C   UNL     1      -0.191   3.709  25.037  0.00  0.00    +0.102 C 
BRANCH  20  21
ATOM     21  C   UNL     1      -1.297   4.780  25.072  0.00  0.00    -0.029 C 
ATOM     27  C   UNL     1      -2.081   4.691  23.749  0.00  0.00    +0.011 C 
ATOM     28  C   UNL     1      -2.270   4.534  26.237  0.00  0.00    +0.011 C 
ATOM     29  C   UNL     1      -0.699   6.192  25.195  0.00  0.00    +0.011 C 
ENDBRANCH  20  21
ENDBRANCH  16  20
TORSDOF 9
ENDMDL
