MODEL 1
REMARK VINA RESULT:      10.2      0.000      0.000
REMARK  Name = 11941516
REMARK  10 active torsions:
REMARK  status: ('A' for Active; 'I' for Inactive)
REMARK    1  A    between atoms: O_4  and  C_22
REMARK    2  A    between atoms: O_4  and  C_27
REMARK    3  A    between atoms: O_5  and  C_29
REMARK    4  A    between atoms: O_7  and  C_34
REMARK    5  A    between atoms: O_7  and  C_35
REMARK    6  A    between atoms: N_9  and  C_11
REMARK    7  A    between atoms: C_19  and  C_22
REMARK    8  A    between atoms: C_23  and  C_25
REMARK    9  A    between atoms: C_26  and  C_28
REMARK   10  A    between atoms: C_27  and  C_29
REMARK                            x       y       z     vdW  Elec       q    Type
REMARK                         _______ _______ _______ _____ _____    ______ ____
ROOT
ATOM      1  O   UNL     1      -6.175   0.488  25.493  0.00  0.00    -0.273 OA
ATOM      2  O   UNL     1      -2.402   1.565  21.976  0.00  0.00    -0.270 OA
ATOM      8  N   UNL     1      -3.886   2.011  23.675  0.00  0.00    -0.284 N 
ATOM     10  N   UNL     1      -4.161  -0.520  25.150  0.00  0.00    -0.283 N 
ATOM     11  C   UNL     1      -5.234   3.135  25.259  0.00  0.00    +0.104 C 
ATOM     12  C   UNL     1      -4.295   1.937  25.066  0.00  0.00    +0.183 C 
ATOM     13  C   UNL     1      -5.800   3.376  23.858  0.00  0.00    +0.043 C 
ATOM     14  C   UNL     1      -4.636   3.023  22.945  0.00  0.00    +0.111 C 
ATOM     15  C   UNL     1      -4.976   0.590  25.220  0.00  0.00    +0.240 C 
ATOM     16  C   UNL     1      -2.813   1.350  23.116  0.00  0.00    +0.249 C 
ATOM     17  C   UNL     1      -2.135   0.305  23.926  0.00  0.00    +0.059 A 
ATOM     18  C   UNL     1      -2.800  -0.590  24.782  0.00  0.00    +0.046 A 
ATOM     20  C   UNL     1      -0.764   0.124  23.667  0.00  0.00    +0.022 A 
ATOM     21  C   UNL     1      -2.088  -1.684  25.303  0.00  0.00    +0.024 A 
ATOM     23  C   UNL     1      -0.064  -0.940  24.232  0.00  0.00    -0.024 A 
ATOM     24  C   UNL     1      -0.729  -1.853  25.041  0.00  0.00    +0.010 A 
ATOM     37  H   UNL     1      -4.574  -1.387  25.487  0.00  0.00    +0.155 HD
ENDROOT
BRANCH  11   9
ATOM      3  O   UNL     1      -2.611   3.173  26.489  0.00  0.00    -0.273 OA
ATOM      9  N   UNL     1      -4.508   4.289  25.736  0.00  0.00    -0.308 N 
ATOM     19  C   UNL     1      -3.250   4.207  26.314  0.00  0.00    +0.239 C 
ATOM     36  H   UNL     1      -4.921   5.207  25.594  0.00  0.00    +0.149 HD
BRANCH  19  22
ATOM     22  C   UNL     1      -2.730   5.570  26.717  0.00  0.00    +0.256 C 
BRANCH  22   4
ATOM      4  O   UNL     1      -1.832   6.068  25.748  0.00  0.00    -0.359 OA
BRANCH   4  27
ATOM     27  C   UNL     1      -1.865   5.301  24.549  0.00  0.00    +0.280 C 
BRANCH  27  29
ATOM      6  O   UNL     1       0.239   4.955  23.384  0.00  0.00    -0.248 OA
ATOM     29  C   UNL     1      -0.517   4.681  24.303  0.00  0.00    +0.331 C 
BRANCH  29   5
ATOM      5  O   UNL     1      -0.245   3.758  25.261  0.00  0.00    -0.479 OA
ATOM     38  H   UNL     1      -0.227   2.847  24.897  0.00  0.00    +0.295 HD
ENDBRANCH  29   5
ENDBRANCH  27  29
ENDBRANCH   4  27
ENDBRANCH  22   4
ENDBRANCH  19  22
ENDBRANCH  11   9
BRANCH  23  25
ATOM     25  C   UNL     1       1.354  -1.111  23.955  0.00  0.00    +0.008 C 
ATOM     26  C   UNL     1       2.215  -0.112  23.648  0.00  0.00    +0.008 C 
BRANCH  26  28
ATOM     28  C   UNL     1       3.656  -0.283  23.387  0.00  0.00    -0.025 A 
ATOM     30  C   UNL     1       4.344   0.665  22.631  0.00  0.00    +0.011 A 
ATOM     31  C   UNL     1       4.330  -1.393  23.897  0.00  0.00    +0.011 A 
ATOM     32  C   UNL     1       5.707   0.503  22.383  0.00  0.00    +0.046 A 
ATOM     33  C   UNL     1       5.693  -1.555  23.651  0.00  0.00    +0.046 A 
ATOM     34  C   UNL     1       6.382  -0.607  22.893  0.00  0.00    +0.120 A 
BRANCH  34   7
ATOM      7  O   UNL     1       7.712  -0.765  22.652  0.00  0.00    -0.495 OA
ATOM     35  C   UNL     1       8.606   0.096  23.356  0.00  0.00    +0.277 C 
ENDBRANCH  34   7
ENDBRANCH  26  28
ENDBRANCH  23  25
TORSDOF 9
ENDMDL
