MODEL 1
REMARK VINA RESULT:      -0.5      0.000      0.000
REMARK  Name = 71693122
REMARK  14 active torsions:
REMARK  status: ('A' for Active; 'I' for Inactive)
REMARK    1  A    between atoms: O_2  and  C_27
REMARK    2  A    between atoms: N_4  and  C_19
REMARK    3  A    between atoms: N_5  and  C_31
REMARK    4  A    between atoms: C_7  and  C_16
REMARK    5  A    between atoms: C_7  and  C_18
REMARK    6  A    between atoms: C_8  and  C_17
REMARK    7  A    between atoms: C_9  and  C_19
REMARK    8  A    between atoms: C_13  and  C_22
REMARK    9  A    between atoms: C_16  and  C_23
REMARK   10  A    between atoms: C_17  and  C_24
REMARK   11  A    between atoms: C_17  and  C_25
REMARK   12  A    between atoms: C_18  and  C_27
REMARK   13  A    between atoms: C_20  and  C_26
REMARK   14  A    between atoms: C_22  and  C_28
REMARK                            x       y       z     vdW  Elec       q    Type
REMARK                         _______ _______ _______ _____ _____    ______ ____
ROOT
ATOM      8  C   UNL     1      -2.679  -1.699  24.108  0.00  0.00    +0.000 C 
ATOM      9  C   UNL     1      -3.392  -0.635  24.980  0.00  0.00    +0.032 C 
ATOM     12  C   UNL     1      -1.306  -2.046  24.702  0.00  0.00    +0.012 C 
ATOM     13  C   UNL     1      -0.390  -0.813  24.813  0.00  0.00    +0.022 C 
ATOM     20  C   UNL     1      -1.111   0.370  25.424  0.00  0.00    -0.073 C 
ATOM     21  C   UNL     1      -2.452   0.426  25.503  0.00  0.00    -0.022 C 
ATOM     26  C   UNL     1      -0.253   1.470  25.986  0.00  0.00    +0.039 C 
ENDROOT
BRANCH   8  17
ATOM     17  C   UNL     1      -3.519  -2.971  23.964  0.00  0.00    -0.013 C 
ATOM     24  C   UNL     1      -3.596  -3.712  25.297  0.00  0.00    +0.007 C 
ATOM     25  C   UNL     1      -4.916  -2.633  23.453  0.00  0.00    +0.007 C 
ENDBRANCH   8  17
BRANCH   9  19
ATOM     19  C   UNL     1      -4.539   0.031  24.214  0.00  0.00    +0.112 C 
BRANCH  19   4
ATOM      1  O   UNL     1      -3.045   1.822  22.500  0.00  0.00    -0.276 OA
ATOM      4  N   UNL     1      -4.456   1.455  24.313  0.00  0.00    -0.315 N 
ATOM     23  C   UNL     1      -3.709   2.249  23.442  0.00  0.00    +0.214 C 
ATOM     36  H   UNL     1      -5.015   1.918  25.024  0.00  0.00    +0.149 HD
BRANCH  23  16
ATOM     16  C   UNL     1      -3.809   3.725  23.786  0.00  0.00    +0.103 C 
BRANCH  16   7
ATOM      7  C   UNL     1      -2.987   4.098  25.027  0.00  0.00    -0.011 C 
ATOM     10  C   UNL     1      -2.698   5.615  25.055  0.00  0.00    +0.008 C 
ATOM     11  C   UNL     1      -1.596   3.421  24.973  0.00  0.00    +0.008 C 
ATOM     14  C   UNL     1      -1.250   5.754  24.606  0.00  0.00    +0.001 C 
ATOM     15  C   UNL     1      -0.587   4.536  25.220  0.00  0.00    +0.001 C 
BRANCH   7  18
ATOM     18  C   UNL     1      -3.756   3.673  26.284  0.00  0.00    +0.127 C 
BRANCH  18  27
ATOM      3  O   UNL     1      -5.846   4.757  25.650  0.00  0.00    -0.251 OA
ATOM     27  C   UNL     1      -5.239   3.788  26.081  0.00  0.00    +0.305 C 
BRANCH  27   2
ATOM      2  O   UNL     1      -5.836   2.628  26.455  0.00  0.00    -0.481 OA
ATOM     37  H   UNL     1      -6.452   2.295  25.768  0.00  0.00    +0.295 HD
ENDBRANCH  27   2
ENDBRANCH  18  27
ENDBRANCH   7  18
ENDBRANCH  16   7
ENDBRANCH  23  16
ENDBRANCH  19   4
ENDBRANCH   9  19
BRANCH  13  22
ATOM     22  C   UNL     1       0.211  -0.447  23.452  0.00  0.00    +0.082 C 
BRANCH  22  28
ATOM      5  N   UNL     1       2.457   0.666  23.296  0.00  0.00    -0.331 N 
ATOM      6  N   UNL     1       2.466  -1.517  23.709  0.00  0.00    -0.232 NA
ATOM     28  C   UNL     1       1.712  -0.462  23.492  0.00  0.00    +0.111 A 
ATOM     29  C   UNL     1       3.779   0.318  23.394  0.00  0.00    +0.069 A 
ATOM     30  C   UNL     1       3.759  -1.050  23.652  0.00  0.00    +0.089 A 
ATOM     31  C   UNL     1       1.947   1.993  23.032  0.00  0.00    +0.150 C 
ATOM     32  C   UNL     1       4.957   1.058  23.283  0.00  0.00    +0.028 A 
ATOM     33  C   UNL     1       4.975  -1.736  23.812  0.00  0.00    +0.030 A 
ATOM     34  C   UNL     1       6.158   0.361  23.445  0.00  0.00    +0.002 A 
ATOM     35  C   UNL     1       6.169  -1.012  23.705  0.00  0.00    +0.002 A 
ENDBRANCH  22  28
ENDBRANCH  13  22
TORSDOF 10
ENDMDL
MODEL 2
REMARK VINA RESULT:      -0.1      1.014      2.203
REMARK  Name = 71693122
REMARK  14 active torsions:
REMARK  status: ('A' for Active; 'I' for Inactive)
REMARK    1  A    between atoms: O_2  and  C_27
REMARK    2  A    between atoms: N_4  and  C_19
REMARK    3  A    between atoms: N_5  and  C_31
REMARK    4  A    between atoms: C_7  and  C_16
REMARK    5  A    between atoms: C_7  and  C_18
REMARK    6  A    between atoms: C_8  and  C_17
REMARK    7  A    between atoms: C_9  and  C_19
REMARK    8  A    between atoms: C_13  and  C_22
REMARK    9  A    between atoms: C_16  and  C_23
REMARK   10  A    between atoms: C_17  and  C_24
REMARK   11  A    between atoms: C_17  and  C_25
REMARK   12  A    between atoms: C_18  and  C_27
REMARK   13  A    between atoms: C_20  and  C_26
REMARK   14  A    between atoms: C_22  and  C_28
REMARK                            x       y       z     vdW  Elec       q    Type
REMARK                         _______ _______ _______ _____ _____    ______ ____
ROOT
ATOM      8  C   UNL     1      -3.079  -1.953  24.418  0.00  0.00    +0.000 C 
ATOM      9  C   UNL     1      -3.582  -1.142  25.638  0.00  0.00    +0.032 C 
ATOM     12  C   UNL     1      -1.663  -2.491  24.681  0.00  0.00    +0.012 C 
ATOM     13  C   UNL     1      -0.655  -1.363  24.967  0.00  0.00    +0.022 C 
ATOM     20  C   UNL     1      -1.196  -0.366  25.971  0.00  0.00    -0.073 C 
ATOM     21  C   UNL     1      -2.505  -0.291  26.268  0.00  0.00    -0.022 C 
ATOM     26  C   UNL     1      -0.190   0.514  26.660  0.00  0.00    +0.039 C 
ENDROOT
BRANCH   8  17
ATOM     17  C   UNL     1      -4.020  -3.113  24.079  0.00  0.00    -0.013 C 
ATOM     24  C   UNL     1      -5.135  -2.639  23.151  0.00  0.00    +0.007 C 
ATOM     25  C   UNL     1      -3.242  -4.263  23.447  0.00  0.00    +0.007 C 
ENDBRANCH   8  17
BRANCH   9  19
ATOM     19  C   UNL     1      -4.775  -0.257  25.260  0.00  0.00    +0.112 C 
BRANCH  19   4
ATOM      1  O   UNL     1      -6.480   2.014  24.703  0.00  0.00    -0.276 OA
ATOM      4  N   UNL     1      -4.434   1.126  25.362  0.00  0.00    -0.315 N 
ATOM     23  C   UNL     1      -5.319   2.166  25.074  0.00  0.00    +0.214 C 
ATOM     36  H   UNL     1      -3.512   1.366  25.717  0.00  0.00    +0.149 HD
BRANCH  23  16
ATOM     16  C   UNL     1      -4.683   3.530  25.272  0.00  0.00    +0.103 C 
BRANCH  16   7
ATOM      7  C   UNL     1      -3.408   3.713  24.440  0.00  0.00    -0.011 C 
ATOM     10  C   UNL     1      -2.270   2.817  24.979  0.00  0.00    +0.008 C 
ATOM     11  C   UNL     1      -2.881   5.162  24.576  0.00  0.00    +0.008 C 
ATOM     14  C   UNL     1      -1.359   3.754  25.760  0.00  0.00    +0.001 C 
ATOM     15  C   UNL     1      -1.407   5.032  24.942  0.00  0.00    +0.001 C 
BRANCH   7  18
ATOM     18  C   UNL     1      -3.711   3.375  22.976  0.00  0.00    +0.127 C 
BRANCH  18  27
ATOM      3  O   UNL     1      -2.625   1.198  23.140  0.00  0.00    -0.251 OA
ATOM     27  C   UNL     1      -2.894   2.207  22.505  0.00  0.00    +0.305 C 
BRANCH  27   2
ATOM      2  O   UNL     1      -2.480   2.431  21.232  0.00  0.00    -0.481 OA
ATOM     37  H   UNL     1      -1.553   2.141  21.092  0.00  0.00    +0.295 HD
ENDBRANCH  27   2
ENDBRANCH  18  27
ENDBRANCH   7  18
ENDBRANCH  16   7
ENDBRANCH  23  16
ENDBRANCH  19   4
ENDBRANCH   9  19
BRANCH  13  22
ATOM     22  C   UNL     1      -0.227  -0.662  23.673  0.00  0.00    +0.082 C 
BRANCH  22  28
ATOM      5  N   UNL     1       1.869   0.696  23.403  0.00  0.00    -0.331 N 
ATOM      6  N   UNL     1       2.142  -1.490  23.697  0.00  0.00    -0.232 NA
ATOM     28  C   UNL     1       1.265  -0.515  23.595  0.00  0.00    +0.111 A 
ATOM     29  C   UNL     1       3.223   0.491  23.380  0.00  0.00    +0.069 A 
ATOM     30  C   UNL     1       3.369  -0.882  23.565  0.00  0.00    +0.089 A 
ATOM     31  C   UNL     1       1.201   1.969  23.250  0.00  0.00    +0.150 C 
ATOM     32  C   UNL     1       4.303   1.359  23.217  0.00  0.00    +0.028 A 
ATOM     33  C   UNL     1       4.659  -1.437  23.593  0.00  0.00    +0.030 A 
ATOM     34  C   UNL     1       5.580   0.791  23.247  0.00  0.00    +0.002 A 
ATOM     35  C   UNL     1       5.758  -0.582  23.433  0.00  0.00    +0.002 A 
ENDBRANCH  22  28
ENDBRANCH  13  22
TORSDOF 10
ENDMDL
MODEL 3
REMARK VINA RESULT:       0.2      1.823      5.069
REMARK  Name = 71693122
REMARK  14 active torsions:
REMARK  status: ('A' for Active; 'I' for Inactive)
REMARK    1  A    between atoms: O_2  and  C_27
REMARK    2  A    between atoms: N_4  and  C_19
REMARK    3  A    between atoms: N_5  and  C_31
REMARK    4  A    between atoms: C_7  and  C_16
REMARK    5  A    between atoms: C_7  and  C_18
REMARK    6  A    between atoms: C_8  and  C_17
REMARK    7  A    between atoms: C_9  and  C_19
REMARK    8  A    between atoms: C_13  and  C_22
REMARK    9  A    between atoms: C_16  and  C_23
REMARK   10  A    between atoms: C_17  and  C_24
REMARK   11  A    between atoms: C_17  and  C_25
REMARK   12  A    between atoms: C_18  and  C_27
REMARK   13  A    between atoms: C_20  and  C_26
REMARK   14  A    between atoms: C_22  and  C_28
REMARK                            x       y       z     vdW  Elec       q    Type
REMARK                         _______ _______ _______ _____ _____    ______ ____
ROOT
ATOM      8  C   UNL     1      -1.959   3.511  24.717  0.00  0.00    +0.000 C 
ATOM      9  C   UNL     1      -3.284   3.792  23.965  0.00  0.00    +0.032 C 
ATOM     12  C   UNL     1      -0.789   3.419  23.725  0.00  0.00    +0.012 C 
ATOM     13  C   UNL     1      -1.001   2.310  22.676  0.00  0.00    +0.022 C 
ATOM     20  C   UNL     1      -2.392   2.358  22.079  0.00  0.00    -0.073 C 
ATOM     21  C   UNL     1      -3.396   3.037  22.662  0.00  0.00    -0.022 C 
ATOM     26  C   UNL     1      -2.592   1.646  20.770  0.00  0.00    +0.039 C 
ENDROOT
BRANCH   8  17
ATOM     17  C   UNL     1      -1.663   4.584  25.769  0.00  0.00    -0.013 C 
ATOM     24  C   UNL     1      -1.570   5.960  25.114  0.00  0.00    +0.007 C 
ATOM     25  C   UNL     1      -2.733   4.574  26.856  0.00  0.00    +0.007 C 
ENDBRANCH   8  17
BRANCH   9  19
ATOM     19  C   UNL     1      -4.498   3.475  24.845  0.00  0.00    +0.112 C 
BRANCH  19   4
ATOM      1  O   UNL     1      -6.516   1.420  24.572  0.00  0.00    -0.276 OA
ATOM      4  N   UNL     1      -4.436   2.132  25.329  0.00  0.00    -0.315 N 
ATOM     23  C   UNL     1      -5.459   1.198  25.155  0.00  0.00    +0.214 C 
ATOM     36  H   UNL     1      -3.577   1.825  25.778  0.00  0.00    +0.149 HD
BRANCH  23  16
ATOM     16  C   UNL     1      -5.116  -0.146  25.773  0.00  0.00    +0.103 C 
BRANCH  16   7
ATOM      7  C   UNL     1      -3.853  -0.770  25.165  0.00  0.00    -0.011 C 
ATOM     10  C   UNL     1      -4.089  -1.155  23.688  0.00  0.00    +0.008 C 
ATOM     11  C   UNL     1      -3.512  -2.099  25.882  0.00  0.00    +0.008 C 
ATOM     14  C   UNL     1      -4.289  -2.665  23.697  0.00  0.00    +0.001 C 
ATOM     15  C   UNL     1      -3.325  -3.127  24.773  0.00  0.00    +0.001 C 
BRANCH   7  18
ATOM     18  C   UNL     1      -2.695   0.229  25.281  0.00  0.00    +0.127 C 
BRANCH  18  27
ATOM      3  O   UNL     1      -1.667  -1.300  26.878  0.00  0.00    -0.251 OA
ATOM     27  C   UNL     1      -1.654  -0.252  26.249  0.00  0.00    +0.305 C 
BRANCH  27   2
ATOM      2  O   UNL     1      -0.659   0.668  26.335  0.00  0.00    -0.481 OA
ATOM     37  H   UNL     1      -0.828   1.445  25.761  0.00  0.00    +0.295 HD
ENDBRANCH  27   2
ENDBRANCH  18  27
ENDBRANCH   7  18
ENDBRANCH  16   7
ENDBRANCH  23  16
ENDBRANCH  19   4
ENDBRANCH   9  19
BRANCH  13  22
ATOM     22  C   UNL     1      -0.704   0.928  23.267  0.00  0.00    +0.082 C 
BRANCH  22  28
ATOM      5  N   UNL     1       1.271  -0.574  23.657  0.00  0.00    -0.331 N 
ATOM      6  N   UNL     1       1.720   1.474  22.921  0.00  0.00    -0.232 NA
ATOM     28  C   UNL     1       0.769   0.637  23.271  0.00  0.00    +0.111 A 
ATOM     29  C   UNL     1       2.636  -0.517  23.548  0.00  0.00    +0.069 A 
ATOM     30  C   UNL     1       2.893   0.772  23.087  0.00  0.00    +0.089 A 
ATOM     31  C   UNL     1       0.503  -1.716  24.102  0.00  0.00    +0.150 C 
ATOM     32  C   UNL     1       3.640  -1.451  23.806  0.00  0.00    +0.028 A 
ATOM     33  C   UNL     1       4.222   1.168  22.863  0.00  0.00    +0.030 A 
ATOM     34  C   UNL     1       4.957  -1.041  23.578  0.00  0.00    +0.002 A 
ATOM     35  C   UNL     1       5.246   0.245  23.115  0.00  0.00    +0.002 A 
ENDBRANCH  22  28
ENDBRANCH  13  22
TORSDOF 10
ENDMDL
MODEL 4
REMARK VINA RESULT:       0.5      1.438      2.213
REMARK  Name = 71693122
REMARK  14 active torsions:
REMARK  status: ('A' for Active; 'I' for Inactive)
REMARK    1  A    between atoms: O_2  and  C_27
REMARK    2  A    between atoms: N_4  and  C_19
REMARK    3  A    between atoms: N_5  and  C_31
REMARK    4  A    between atoms: C_7  and  C_16
REMARK    5  A    between atoms: C_7  and  C_18
REMARK    6  A    between atoms: C_8  and  C_17
REMARK    7  A    between atoms: C_9  and  C_19
REMARK    8  A    between atoms: C_13  and  C_22
REMARK    9  A    between atoms: C_16  and  C_23
REMARK   10  A    between atoms: C_17  and  C_24
REMARK   11  A    between atoms: C_17  and  C_25
REMARK   12  A    between atoms: C_18  and  C_27
REMARK   13  A    between atoms: C_20  and  C_26
REMARK   14  A    between atoms: C_22  and  C_28
REMARK                            x       y       z     vdW  Elec       q    Type
REMARK                         _______ _______ _______ _____ _____    ______ ____
ROOT
ATOM      8  C   UNL     1      -3.037  -2.076  24.337  0.00  0.00    +0.000 C 
ATOM      9  C   UNL     1      -3.628  -1.282  25.528  0.00  0.00    +0.032 C 
ATOM     12  C   UNL     1      -1.605  -2.534  24.656  0.00  0.00    +0.012 C 
ATOM     13  C   UNL     1      -0.670  -1.350  24.966  0.00  0.00    +0.022 C 
ATOM     20  C   UNL     1      -1.301  -0.374  25.938  0.00  0.00    -0.073 C 
ATOM     21  C   UNL     1      -2.622  -0.367  26.187  0.00  0.00    -0.022 C 
ATOM     26  C   UNL     1      -0.370   0.566  26.653  0.00  0.00    +0.039 C 
ENDROOT
BRANCH   8  17
ATOM     17  C   UNL     1      -3.901  -3.288  23.977  0.00  0.00    -0.013 C 
ATOM     24  C   UNL     1      -5.121  -2.851  23.169  0.00  0.00    +0.007 C 
ATOM     25  C   UNL     1      -3.081  -4.316  23.204  0.00  0.00    +0.007 C 
ENDBRANCH   8  17
BRANCH   9  19
ATOM     19  C   UNL     1      -4.853  -0.467  25.098  0.00  0.00    +0.112 C 
BRANCH  19   4
ATOM      1  O   UNL     1      -6.760   1.677  24.727  0.00  0.00    -0.276 OA
ATOM      4  N   UNL     1      -4.647   0.926  25.342  0.00  0.00    -0.315 N 
ATOM     23  C   UNL     1      -5.624   1.901  25.136  0.00  0.00    +0.214 C 
ATOM     36  H   UNL     1      -3.757   1.215  25.739  0.00  0.00    +0.149 HD
BRANCH  23  16
ATOM     16  C   UNL     1      -5.125   3.292  25.481  0.00  0.00    +0.103 C 
BRANCH  16   7
ATOM      7  C   UNL     1      -3.741   3.587  24.887  0.00  0.00    -0.011 C 
ATOM     10  C   UNL     1      -3.871   4.368  23.560  0.00  0.00    +0.008 C 
ATOM     11  C   UNL     1      -3.026   2.267  24.511  0.00  0.00    +0.008 C 
ATOM     14  C   UNL     1      -3.627   3.339  22.465  0.00  0.00    +0.001 C 
ATOM     15  C   UNL     1      -2.561   2.446  23.072  0.00  0.00    +0.001 C 
BRANCH   7  18
ATOM     18  C   UNL     1      -2.919   4.387  25.904  0.00  0.00    +0.127 C 
BRANCH  18  27
ATOM      3  O   UNL     1      -0.603   3.775  25.452  0.00  0.00    -0.251 OA
ATOM     27  C   UNL     1      -1.511   4.592  25.427  0.00  0.00    +0.305 C 
BRANCH  27   2
ATOM      2  O   UNL     1      -1.378   5.855  24.945  0.00  0.00    -0.481 OA
ATOM     37  H   UNL     1      -2.240   6.317  24.886  0.00  0.00    +0.295 HD
ENDBRANCH  27   2
ENDBRANCH  18  27
ENDBRANCH   7  18
ENDBRANCH  16   7
ENDBRANCH  23  16
ENDBRANCH  19   4
ENDBRANCH   9  19
BRANCH  13  22
ATOM     22  C   UNL     1      -0.234  -0.639  23.680  0.00  0.00    +0.082 C 
BRANCH  22  28
ATOM      5  N   UNL     1       1.883   0.678  23.376  0.00  0.00    -0.331 N 
ATOM      6  N   UNL     1       2.121  -1.503  23.727  0.00  0.00    -0.232 NA
ATOM     28  C   UNL     1       1.261  -0.517  23.600  0.00  0.00    +0.111 A 
ATOM     29  C   UNL     1       3.234   0.451  23.360  0.00  0.00    +0.069 A 
ATOM     30  C   UNL     1       3.358  -0.918  23.580  0.00  0.00    +0.089 A 
ATOM     31  C   UNL     1       1.235   1.958  23.191  0.00  0.00    +0.150 C 
ATOM     32  C   UNL     1       4.327   1.299  23.175  0.00  0.00    +0.028 A 
ATOM     33  C   UNL     1       4.640  -1.492  23.624  0.00  0.00    +0.030 A 
ATOM     34  C   UNL     1       5.595   0.711  23.221  0.00  0.00    +0.002 A 
ATOM     35  C   UNL     1       5.752  -0.660  23.442  0.00  0.00    +0.002 A 
ENDBRANCH  22  28
ENDBRANCH  13  22
TORSDOF 10
ENDMDL
MODEL 5
REMARK VINA RESULT:       2.8      1.334      2.459
REMARK  Name = 71693122
REMARK  14 active torsions:
REMARK  status: ('A' for Active; 'I' for Inactive)
REMARK    1  A    between atoms: O_2  and  C_27
REMARK    2  A    between atoms: N_4  and  C_19
REMARK    3  A    between atoms: N_5  and  C_31
REMARK    4  A    between atoms: C_7  and  C_16
REMARK    5  A    between atoms: C_7  and  C_18
REMARK    6  A    between atoms: C_8  and  C_17
REMARK    7  A    between atoms: C_9  and  C_19
REMARK    8  A    between atoms: C_13  and  C_22
REMARK    9  A    between atoms: C_16  and  C_23
REMARK   10  A    between atoms: C_17  and  C_24
REMARK   11  A    between atoms: C_17  and  C_25
REMARK   12  A    between atoms: C_18  and  C_27
REMARK   13  A    between atoms: C_20  and  C_26
REMARK   14  A    between atoms: C_22  and  C_28
REMARK                            x       y       z     vdW  Elec       q    Type
REMARK                         _______ _______ _______ _____ _____    ______ ____
ROOT
ATOM      8  C   UNL     1      -2.737  -1.790  24.189  0.00  0.00    +0.000 C 
ATOM      9  C   UNL     1      -3.439  -0.847  25.198  0.00  0.00    +0.032 C 
ATOM     12  C   UNL     1      -1.307  -2.105  24.657  0.00  0.00    +0.012 C 
ATOM     13  C   UNL     1      -0.452  -0.834  24.815  0.00  0.00    +0.022 C 
ATOM     20  C   UNL     1      -1.189   0.249  25.574  0.00  0.00    -0.073 C 
ATOM     21  C   UNL     1      -2.522   0.220  25.747  0.00  0.00    -0.022 C 
ATOM     26  C   UNL     1      -0.352   1.346  26.172  0.00  0.00    +0.039 C 
ENDROOT
BRANCH   8  17
ATOM     17  C   UNL     1      -3.516  -3.093  23.991  0.00  0.00    -0.013 C 
ATOM     24  C   UNL     1      -3.632  -3.851  25.312  0.00  0.00    +0.007 C 
ATOM     25  C   UNL     1      -4.897  -2.805  23.411  0.00  0.00    +0.007 C 
ENDBRANCH   8  17
BRANCH   9  19
ATOM     19  C   UNL     1      -4.672  -0.187  24.572  0.00  0.00    +0.112 C 
BRANCH  19   4
ATOM      1  O   UNL     1      -3.008   1.193  22.649  0.00  0.00    -0.276 OA
ATOM      4  N   UNL     1      -4.484   1.223  24.446  0.00  0.00    -0.315 N 
ATOM     23  C   UNL     1      -3.659   1.812  23.486  0.00  0.00    +0.214 C 
ATOM     36  H   UNL     1      -5.023   1.833  25.054  0.00  0.00    +0.149 HD
BRANCH  23  16
ATOM     16  C   UNL     1      -3.654   3.327  23.588  0.00  0.00    +0.103 C 
BRANCH  16   7
ATOM      7  C   UNL     1      -3.956   3.824  25.008  0.00  0.00    -0.011 C 
ATOM     10  C   UNL     1      -4.961   2.886  25.714  0.00  0.00    +0.008 C 
ATOM     11  C   UNL     1      -4.656   5.204  24.957  0.00  0.00    +0.008 C 
ATOM     14  C   UNL     1      -6.296   3.616  25.657  0.00  0.00    +0.001 C 
ATOM     15  C   UNL     1      -5.895   5.069  25.834  0.00  0.00    +0.001 C 
BRANCH   7  18
ATOM     18  C   UNL     1      -2.645   3.902  25.800  0.00  0.00    +0.127 C 
BRANCH  18  27
ATOM      3  O   UNL     1      -1.645   5.989  25.035  0.00  0.00    -0.251 OA
ATOM     27  C   UNL     1      -1.637   4.769  25.105  0.00  0.00    +0.305 C 
BRANCH  27   2
ATOM      2  O   UNL     1      -0.680   3.986  24.544  0.00  0.00    -0.481 OA
ATOM     37  H   UNL     1      -0.058   4.507  23.993  0.00  0.00    +0.295 HD
ENDBRANCH  27   2
ENDBRANCH  18  27
ENDBRANCH   7  18
ENDBRANCH  16   7
ENDBRANCH  23  16
ENDBRANCH  19   4
ENDBRANCH   9  19
BRANCH  13  22
ATOM     22  C   UNL     1       0.029  -0.320  23.453  0.00  0.00    +0.082 C 
BRANCH  22  28
ATOM      5  N   UNL     1       2.327  -1.205  23.950  0.00  0.00    -0.331 N 
ATOM      6  N   UNL     1       2.230   0.706  22.820  0.00  0.00    -0.232 NA
ATOM     28  C   UNL     1       1.528  -0.247  23.392  0.00  0.00    +0.111 A 
ATOM     29  C   UNL     1       3.630  -0.849  23.723  0.00  0.00    +0.069 A 
ATOM     30  C   UNL     1       3.544   0.348  23.017  0.00  0.00    +0.089 A 
ATOM     31  C   UNL     1       1.880  -2.387  24.654  0.00  0.00    +0.150 C 
ATOM     32  C   UNL     1       4.842  -1.450  24.064  0.00  0.00    +0.028 A 
ATOM     33  C   UNL     1       4.725   0.996  22.619  0.00  0.00    +0.030 A 
ATOM     34  C   UNL     1       6.008  -0.792  23.661  0.00  0.00    +0.002 A 
ATOM     35  C   UNL     1       5.954   0.410  22.950  0.00  0.00    +0.002 A 
ENDBRANCH  22  28
ENDBRANCH  13  22
TORSDOF 10
ENDMDL
MODEL 6
REMARK VINA RESULT:       3.2      2.692      7.420
REMARK  Name = 71693122
REMARK  14 active torsions:
REMARK  status: ('A' for Active; 'I' for Inactive)
REMARK    1  A    between atoms: O_2  and  C_27
REMARK    2  A    between atoms: N_4  and  C_19
REMARK    3  A    between atoms: N_5  and  C_31
REMARK    4  A    between atoms: C_7  and  C_16
REMARK    5  A    between atoms: C_7  and  C_18
REMARK    6  A    between atoms: C_8  and  C_17
REMARK    7  A    between atoms: C_9  and  C_19
REMARK    8  A    between atoms: C_13  and  C_22
REMARK    9  A    between atoms: C_16  and  C_23
REMARK   10  A    between atoms: C_17  and  C_24
REMARK   11  A    between atoms: C_17  and  C_25
REMARK   12  A    between atoms: C_18  and  C_27
REMARK   13  A    between atoms: C_20  and  C_26
REMARK   14  A    between atoms: C_22  and  C_28
REMARK                            x       y       z     vdW  Elec       q    Type
REMARK                         _______ _______ _______ _____ _____    ______ ____
ROOT
ATOM      8  C   UNL     1      -2.582   2.337  23.940  0.00  0.00    +0.000 C 
ATOM      9  C   UNL     1      -1.393   2.955  24.717  0.00  0.00    +0.032 C 
ATOM     12  C   UNL     1      -3.736   3.345  23.834  0.00  0.00    +0.012 C 
ATOM     13  C   UNL     1      -4.240   3.800  25.217  0.00  0.00    +0.022 C 
ATOM     20  C   UNL     1      -3.097   4.174  26.138  0.00  0.00    -0.073 C 
ATOM     21  C   UNL     1      -1.830   3.799  25.891  0.00  0.00    -0.022 C 
ATOM     26  C   UNL     1      -3.438   5.028  27.327  0.00  0.00    +0.039 C 
ENDROOT
BRANCH   8  17
ATOM     17  C   UNL     1      -2.167   1.876  22.539  0.00  0.00    -0.013 C 
ATOM     24  C   UNL     1      -2.568   0.420  22.318  0.00  0.00    +0.007 C 
ATOM     25  C   UNL     1      -2.788   2.776  21.476  0.00  0.00    +0.007 C 
ENDBRANCH   8  17
BRANCH   9  19
ATOM     19  C   UNL     1      -0.423   1.871  25.200  0.00  0.00    +0.112 C 
BRANCH  19   4
ATOM      1  O   UNL     1       0.014  -0.935  24.644  0.00  0.00    -0.276 OA
ATOM      4  N   UNL     1       0.297   1.309  24.102  0.00  0.00    -0.315 N 
ATOM     23  C   UNL     1       0.463  -0.063  23.905  0.00  0.00    +0.214 C 
ATOM     36  H   UNL     1       0.662   1.942  23.396  0.00  0.00    +0.149 HD
BRANCH  23  16
ATOM     16  C   UNL     1       1.270  -0.368  22.656  0.00  0.00    +0.103 C 
BRANCH  16   7
ATOM      7  C   UNL     1       2.780  -0.206  22.875  0.00  0.00    -0.011 C 
ATOM     10  C   UNL     1       3.084   1.096  23.650  0.00  0.00    +0.008 C 
ATOM     11  C   UNL     1       3.506  -0.048  21.517  0.00  0.00    +0.008 C 
ATOM     14  C   UNL     1       3.583   2.078  22.600  0.00  0.00    +0.001 C 
ATOM     15  C   UNL     1       4.380   1.192  21.660  0.00  0.00    +0.001 C 
BRANCH   7  18
ATOM     18  C   UNL     1       3.309  -1.424  23.642  0.00  0.00    +0.127 C 
BRANCH  18  27
ATOM      3  O   UNL     1       5.278  -0.247  24.467  0.00  0.00    -0.251 OA
ATOM     27  C   UNL     1       4.754  -1.252  24.010  0.00  0.00    +0.305 C 
BRANCH  27   2
ATOM      2  O   UNL     1       5.424  -2.406  23.759  0.00  0.00    -0.481 OA
ATOM     37  H   UNL     1       5.273  -3.076  24.458  0.00  0.00    +0.295 HD
ENDBRANCH  27   2
ENDBRANCH  18  27
ENDBRANCH   7  18
ENDBRANCH  16   7
ENDBRANCH  23  16
ENDBRANCH  19   4
ENDBRANCH   9  19
BRANCH  13  22
ATOM     22  C   UNL     1      -5.135   2.733  25.857  0.00  0.00    +0.082 C 
BRANCH  22  28
ATOM      5  N   UNL     1      -5.311   0.534  24.655  0.00  0.00    -0.331 N 
ATOM      6  N   UNL     1      -3.584   0.767  26.034  0.00  0.00    -0.232 NA
ATOM     28  C   UNL     1      -4.653   1.347  25.534  0.00  0.00    +0.111 A 
ATOM     29  C   UNL     1      -4.623  -0.649  24.582  0.00  0.00    +0.069 A 
ATOM     30  C   UNL     1      -3.549  -0.480  25.452  0.00  0.00    +0.089 A 
ATOM     31  C   UNL     1      -6.519   0.859  23.930  0.00  0.00    +0.150 C 
ATOM     32  C   UNL     1      -4.840  -1.819  23.853  0.00  0.00    +0.028 A 
ATOM     33  C   UNL     1      -2.627  -1.527  25.616  0.00  0.00    +0.030 A 
ATOM     34  C   UNL     1      -3.913  -2.851  24.028  0.00  0.00    +0.002 A 
ATOM     35  C   UNL     1      -2.825  -2.710  24.893  0.00  0.00    +0.002 A 
ENDBRANCH  22  28
ENDBRANCH  13  22
TORSDOF 10
ENDMDL
MODEL 7
REMARK VINA RESULT:       3.4      2.618      7.059
REMARK  Name = 71693122
REMARK  14 active torsions:
REMARK  status: ('A' for Active; 'I' for Inactive)
REMARK    1  A    between atoms: O_2  and  C_27
REMARK    2  A    between atoms: N_4  and  C_19
REMARK    3  A    between atoms: N_5  and  C_31
REMARK    4  A    between atoms: C_7  and  C_16
REMARK    5  A    between atoms: C_7  and  C_18
REMARK    6  A    between atoms: C_8  and  C_17
REMARK    7  A    between atoms: C_9  and  C_19
REMARK    8  A    between atoms: C_13  and  C_22
REMARK    9  A    between atoms: C_16  and  C_23
REMARK   10  A    between atoms: C_17  and  C_24
REMARK   11  A    between atoms: C_17  and  C_25
REMARK   12  A    between atoms: C_18  and  C_27
REMARK   13  A    between atoms: C_20  and  C_26
REMARK   14  A    between atoms: C_22  and  C_28
REMARK                            x       y       z     vdW  Elec       q    Type
REMARK                         _______ _______ _______ _____ _____    ______ ____
ROOT
ATOM      8  C   UNL     1      -1.931  -0.759  25.250  0.00  0.00    +0.000 C 
ATOM      9  C   UNL     1      -1.836  -2.268  24.911  0.00  0.00    +0.032 C 
ATOM     12  C   UNL     1      -3.348  -0.406  25.729  0.00  0.00    +0.012 C 
ATOM     13  C   UNL     1      -4.419  -0.737  24.674  0.00  0.00    +0.022 C 
ATOM     20  C   UNL     1      -4.228  -2.123  24.093  0.00  0.00    -0.073 C 
ATOM     21  C   UNL     1      -3.072  -2.797  24.221  0.00  0.00    -0.022 C 
ATOM     26  C   UNL     1      -5.413  -2.736  23.400  0.00  0.00    +0.039 C 
ENDROOT
BRANCH   8  17
ATOM     17  C   UNL     1      -0.907  -0.351  26.313  0.00  0.00    -0.013 C 
ATOM     24  C   UNL     1      -0.812   1.170  26.404  0.00  0.00    +0.007 C 
ATOM     25  C   UNL     1      -1.275  -0.951  27.666  0.00  0.00    +0.007 C 
ENDBRANCH   8  17
BRANCH   9  19
ATOM     19  C   UNL     1      -0.604  -2.566  24.050  0.00  0.00    +0.112 C 
BRANCH  19   4
ATOM      1  O   UNL     1      -0.143  -0.315  22.290  0.00  0.00    -0.276 OA
ATOM      4  N   UNL     1       0.378  -1.539  24.198  0.00  0.00    -0.315 N 
ATOM     23  C   UNL     1       0.536  -0.482  23.299  0.00  0.00    +0.214 C 
ATOM     36  H   UNL     1       0.957  -1.548  25.033  0.00  0.00    +0.149 HD
BRANCH  23  16
ATOM     16  C   UNL     1       1.656   0.457  23.712  0.00  0.00    +0.103 C 
BRANCH  16   7
ATOM      7  C   UNL     1       3.014   0.048  23.127  0.00  0.00    -0.011 C 
ATOM     10  C   UNL     1       4.064   1.159  23.353  0.00  0.00    +0.008 C 
ATOM     11  C   UNL     1       2.913  -0.108  21.590  0.00  0.00    +0.008 C 
ATOM     14  C   UNL     1       4.199   1.859  22.007  0.00  0.00    +0.001 C 
ATOM     15  C   UNL     1       4.057   0.718  21.017  0.00  0.00    +0.001 C 
BRANCH   7  18
ATOM     18  C   UNL     1       3.468  -1.262  23.783  0.00  0.00    +0.127 C 
BRANCH  18  27
ATOM      3  O   UNL     1       5.565  -0.307  24.580  0.00  0.00    -0.251 OA
ATOM     27  C   UNL     1       4.936  -1.236  24.094  0.00  0.00    +0.305 C 
BRANCH  27   2
ATOM      2  O   UNL     1       5.491  -2.427  23.752  0.00  0.00    -0.481 OA
ATOM     37  H   UNL     1       6.464  -2.425  23.871  0.00  0.00    +0.295 HD
ENDBRANCH  27   2
ENDBRANCH  18  27
ENDBRANCH   7  18
ENDBRANCH  16   7
ENDBRANCH  23  16
ENDBRANCH  19   4
ENDBRANCH   9  19
BRANCH  13  22
ATOM     22  C   UNL     1      -4.450   0.323  23.567  0.00  0.00    +0.082 C 
BRANCH  22  28
ATOM      5  N   UNL     1      -3.985   2.511  24.708  0.00  0.00    -0.331 N 
ATOM      6  N   UNL     1      -2.336   1.672  23.476  0.00  0.00    -0.232 NA
ATOM     28  C   UNL     1      -3.567   1.491  23.901  0.00  0.00    +0.111 A 
ATOM     29  C   UNL     1      -2.956   3.411  24.814  0.00  0.00    +0.069 A 
ATOM     30  C   UNL     1      -1.938   2.865  24.035  0.00  0.00    +0.089 A 
ATOM     31  C   UNL     1      -5.280   2.626  25.342  0.00  0.00    +0.150 C 
ATOM     32  C   UNL     1      -2.830   4.619  25.500  0.00  0.00    +0.028 A 
ATOM     33  C   UNL     1      -0.717   3.550  23.925  0.00  0.00    +0.030 A 
ATOM     34  C   UNL     1      -1.608   5.288  25.380  0.00  0.00    +0.002 A 
ATOM     35  C   UNL     1      -0.568   4.765  24.607  0.00  0.00    +0.002 A 
ENDBRANCH  22  28
ENDBRANCH  13  22
TORSDOF 10
ENDMDL
