MODEL 1
REMARK VINA RESULT:      -2.1      0.000      0.000
REMARK  Name = 45783852
REMARK  14 active torsions:
REMARK  status: ('A' for Active; 'I' for Inactive)
REMARK    1  A    between atoms: O_2  and  C_21
REMARK    2  A    between atoms: O_2  and  C_28
REMARK    3  A    between atoms: O_4  and  C_24
REMARK    4  A    between atoms: O_6  and  C_31
REMARK    5  A    between atoms: O_6  and  C_32
REMARK    6  A    between atoms: N_8  and  C_22
REMARK    7  A    between atoms: C_10  and  C_21
REMARK    8  A    between atoms: C_11  and  C_14
REMARK    9  A    between atoms: C_11  and  C_18
REMARK   10  A    between atoms: C_11  and  C_19
REMARK   11  A    between atoms: C_11  and  C_20
REMARK   12  A    between atoms: C_14  and  C_17
REMARK   13  A    between atoms: C_18  and  C_24
REMARK   14  A    between atoms: C_22  and  C_25
REMARK                            x       y       z     vdW  Elec       q    Type
REMARK                         _______ _______ _______ _____ _____    ______ ____
ROOT
ATOM      1  O   UNL     1      -5.357   0.469  25.466  0.00  0.00    -0.276 OA
ATOM      7  N   UNL     1      -3.288   1.128  24.615  0.00  0.00    -0.282 N 
ATOM      8  N   UNL     1       0.321   1.590  23.714  0.00  0.00    -0.328 N 
ATOM      9  N   UNL     1       0.246   3.304  25.144  0.00  0.00    -0.240 NA
ATOM     10  C   UNL     1      -3.458   2.525  25.098  0.00  0.00    +0.191 C 
ATOM     12  C   UNL     1      -2.095   0.792  23.786  0.00  0.00    +0.163 C 
ATOM     13  C   UNL     1      -2.203   3.132  25.759  0.00  0.00    +0.091 C 
ATOM     15  C   UNL     1      -0.964   1.658  24.166  0.00  0.00    +0.059 A 
ATOM     16  C   UNL     1      -0.984   2.717  25.036  0.00  0.00    +0.066 A 
ATOM     17  C   UNL     1      -4.353   0.231  24.790  0.00  0.00    +0.217 C 
ATOM     23  C   UNL     1       1.011   2.603  24.333  0.00  0.00    +0.200 A 
ENDROOT
BRANCH  10  21
ATOM      3  O   UNL     1      -3.576   3.085  22.756  0.00  0.00    -0.249 OA
ATOM     21  C   UNL     1      -3.911   3.323  23.908  0.00  0.00    +0.328 C 
BRANCH  21   2
ATOM      2  O   UNL     1      -4.733   4.328  24.321  0.00  0.00    -0.467 OA
ATOM     28  C   UNL     1      -5.556   4.025  25.452  0.00  0.00    +0.280 C 
ENDBRANCH  21   2
ENDBRANCH  10  21
BRANCH  17  14
ATOM     14  C   UNL     1      -4.228  -1.105  24.097  0.00  0.00    +0.103 C 
BRANCH  14  11
ATOM     11  C   UNL     1      -3.240  -2.054  24.804  0.00  0.00    -0.017 C 
ATOM     19  C   UNL     1      -3.281  -1.821  26.330  0.00  0.00    +0.012 C 
ATOM     20  C   UNL     1      -3.710  -3.499  24.539  0.00  0.00    +0.012 C 
BRANCH  11  18
ATOM     18  C   UNL     1      -1.779  -1.869  24.329  0.00  0.00    +0.127 C 
BRANCH  18  24
ATOM      5  O   UNL     1       0.098  -2.687  25.621  0.00  0.00    -0.251 OA
ATOM     24  C   UNL     1      -0.753  -1.826  25.441  0.00  0.00    +0.305 C 
BRANCH  24   4
ATOM      4  O   UNL     1      -0.876  -0.728  26.228  0.00  0.00    -0.481 OA
ATOM     33  H   UNL     1      -1.209  -0.956  27.123  0.00  0.00    +0.295 HD
ENDBRANCH  24   4
ENDBRANCH  18  24
ENDBRANCH  11  18
ENDBRANCH  14  11
ENDBRANCH  17  14
BRANCH   8  22
ATOM     22  C   UNL     1       0.864   0.649  22.766  0.00  0.00    +0.158 C 
BRANCH  22  25
ATOM     25  C   UNL     1       2.300   0.280  23.045  0.00  0.00    -0.028 A 
ATOM     26  C   UNL     1       3.317   1.209  22.822  0.00  0.00    +0.009 A 
ATOM     27  C   UNL     1       2.611  -0.992  23.529  0.00  0.00    +0.009 A 
ATOM     29  C   UNL     1       4.644   0.867  23.081  0.00  0.00    +0.046 A 
ATOM     30  C   UNL     1       3.939  -1.333  23.788  0.00  0.00    +0.046 A 
ATOM     31  C   UNL     1       4.955  -0.405  23.564  0.00  0.00    +0.120 A 
BRANCH  31   6
ATOM      6  O   UNL     1       6.249  -0.738  23.818  0.00  0.00    -0.495 OA
ATOM     32  C   UNL     1       7.180  -0.592  22.746  0.00  0.00    +0.277 C 
ENDBRANCH  31   6
ENDBRANCH  22  25
ENDBRANCH   8  22
TORSDOF 10
ENDMDL
MODEL 2
REMARK VINA RESULT:      -0.6      2.053      4.492
REMARK  Name = 45783852
REMARK  14 active torsions:
REMARK  status: ('A' for Active; 'I' for Inactive)
REMARK    1  A    between atoms: O_2  and  C_21
REMARK    2  A    between atoms: O_2  and  C_28
REMARK    3  A    between atoms: O_4  and  C_24
REMARK    4  A    between atoms: O_6  and  C_31
REMARK    5  A    between atoms: O_6  and  C_32
REMARK    6  A    between atoms: N_8  and  C_22
REMARK    7  A    between atoms: C_10  and  C_21
REMARK    8  A    between atoms: C_11  and  C_14
REMARK    9  A    between atoms: C_11  and  C_18
REMARK   10  A    between atoms: C_11  and  C_19
REMARK   11  A    between atoms: C_11  and  C_20
REMARK   12  A    between atoms: C_14  and  C_17
REMARK   13  A    between atoms: C_18  and  C_24
REMARK   14  A    between atoms: C_22  and  C_25
REMARK                            x       y       z     vdW  Elec       q    Type
REMARK                         _______ _______ _______ _____ _____    ______ ____
ROOT
ATOM      1  O   UNL     1      -4.054   3.857  23.238  0.00  0.00    -0.276 OA
ATOM      7  N   UNL     1      -3.552   1.780  24.173  0.00  0.00    -0.282 N 
ATOM      8  N   UNL     1      -2.322  -1.664  24.996  0.00  0.00    -0.328 N 
ATOM      9  N   UNL     1      -4.364  -2.320  24.374  0.00  0.00    -0.240 NA
ATOM     10  C   UNL     1      -4.989   1.413  24.297  0.00  0.00    +0.191 C 
ATOM     12  C   UNL     1      -2.523   0.861  24.736  0.00  0.00    +0.163 C 
ATOM     13  C   UNL     1      -5.321  -0.032  23.869  0.00  0.00    +0.091 C 
ATOM     15  C   UNL     1      -3.009  -0.530  24.676  0.00  0.00    +0.059 A 
ATOM     16  C   UNL     1      -4.256  -0.959  24.302  0.00  0.00    +0.066 A 
ATOM     17  C   UNL     1      -3.233   3.066  23.710  0.00  0.00    +0.217 C 
ATOM     23  C   UNL     1      -3.181  -2.715  24.798  0.00  0.00    +0.200 A 
ENDROOT
BRANCH  10  21
ATOM      3  O   UNL     1      -5.855   0.841  26.474  0.00  0.00    -0.249 OA
ATOM     21  C   UNL     1      -5.363   1.677  25.728  0.00  0.00    +0.328 C 
BRANCH  21   2
ATOM      2  O   UNL     1      -5.069   2.970  26.044  0.00  0.00    -0.467 OA
ATOM     28  C   UNL     1      -6.084   3.928  25.722  0.00  0.00    +0.280 C 
ENDBRANCH  21   2
ENDBRANCH  10  21
BRANCH  17  14
ATOM     14  C   UNL     1      -1.783   3.473  23.805  0.00  0.00    +0.103 C 
BRANCH  14  11
ATOM     11  C   UNL     1      -1.443   4.169  25.138  0.00  0.00    -0.017 C 
ATOM     19  C   UNL     1      -0.255   5.136  24.942  0.00  0.00    +0.012 C 
ATOM     20  C   UNL     1      -2.666   5.010  25.553  0.00  0.00    +0.012 C 
BRANCH  11  18
ATOM     18  C   UNL     1      -1.069   3.173  26.262  0.00  0.00    +0.127 C 
BRANCH  18  24
ATOM      5  O   UNL     1       0.747   2.063  25.108  0.00  0.00    -0.251 OA
ATOM     24  C   UNL     1       0.310   2.564  26.136  0.00  0.00    +0.305 C 
BRANCH  24   4
ATOM      4  O   UNL     1       1.020   2.625  27.290  0.00  0.00    -0.481 OA
ATOM     33  H   UNL     1       1.987   2.620  27.126  0.00  0.00    +0.295 HD
ENDBRANCH  24   4
ENDBRANCH  18  24
ENDBRANCH  11  18
ENDBRANCH  14  11
ENDBRANCH  17  14
BRANCH   8  22
ATOM     22  C   UNL     1      -0.959  -1.757  25.460  0.00  0.00    +0.158 C 
BRANCH  22  25
ATOM     25  C   UNL     1       0.048  -1.236  24.466  0.00  0.00    -0.028 A 
ATOM     26  C   UNL     1      -0.364  -0.410  23.420  0.00  0.00    +0.009 A 
ATOM     27  C   UNL     1       1.395  -1.578  24.595  0.00  0.00    +0.009 A 
ATOM     29  C   UNL     1       0.569   0.072  22.502  0.00  0.00    +0.046 A 
ATOM     30  C   UNL     1       2.327  -1.096  23.676  0.00  0.00    +0.046 A 
ATOM     31  C   UNL     1       1.915  -0.271  22.630  0.00  0.00    +0.120 A 
BRANCH  31   6
ATOM      6  O   UNL     1       2.824   0.200  21.735  0.00  0.00    -0.495 OA
ATOM     32  C   UNL     1       4.009   0.794  22.265  0.00  0.00    +0.277 C 
ENDBRANCH  31   6
ENDBRANCH  22  25
ENDBRANCH   8  22
TORSDOF 10
ENDMDL
MODEL 3
REMARK VINA RESULT:      -0.1      2.213      7.426
REMARK  Name = 45783852
REMARK  14 active torsions:
REMARK  status: ('A' for Active; 'I' for Inactive)
REMARK    1  A    between atoms: O_2  and  C_21
REMARK    2  A    between atoms: O_2  and  C_28
REMARK    3  A    between atoms: O_4  and  C_24
REMARK    4  A    between atoms: O_6  and  C_31
REMARK    5  A    between atoms: O_6  and  C_32
REMARK    6  A    between atoms: N_8  and  C_22
REMARK    7  A    between atoms: C_10  and  C_21
REMARK    8  A    between atoms: C_11  and  C_14
REMARK    9  A    between atoms: C_11  and  C_18
REMARK   10  A    between atoms: C_11  and  C_19
REMARK   11  A    between atoms: C_11  and  C_20
REMARK   12  A    between atoms: C_14  and  C_17
REMARK   13  A    between atoms: C_18  and  C_24
REMARK   14  A    between atoms: C_22  and  C_25
REMARK                            x       y       z     vdW  Elec       q    Type
REMARK                         _______ _______ _______ _____ _____    ______ ____
ROOT
ATOM      1  O   UNL     1       0.531   2.301  26.315  0.00  0.00    -0.276 OA
ATOM      7  N   UNL     1      -0.969   0.828  25.306  0.00  0.00    -0.282 N 
ATOM      8  N   UNL     1      -3.761  -1.502  24.397  0.00  0.00    -0.328 N 
ATOM      9  N   UNL     1      -2.261  -3.115  24.764  0.00  0.00    -0.240 NA
ATOM     10  C   UNL     1       0.099  -0.166  25.013  0.00  0.00    +0.191 C 
ATOM     12  C   UNL     1      -2.346   0.576  24.795  0.00  0.00    +0.163 C 
ATOM     13  C   UNL     1      -0.287  -1.630  25.312  0.00  0.00    +0.091 C 
ATOM     15  C   UNL     1      -2.593  -0.875  24.717  0.00  0.00    +0.059 A 
ATOM     16  C   UNL     1      -1.691  -1.884  24.932  0.00  0.00    +0.066 A 
ATOM     17  C   UNL     1      -0.596   2.053  25.880  0.00  0.00    +0.217 C 
ATOM     23  C   UNL     1      -3.510  -2.851  24.439  0.00  0.00    +0.200 A 
ENDROOT
BRANCH  10  21
ATOM      3  O   UNL     1      -0.143  -0.454  22.631  0.00  0.00    -0.249 OA
ATOM     21  C   UNL     1       0.469   0.037  23.571  0.00  0.00    +0.328 C 
BRANCH  21   2
ATOM      2  O   UNL     1       1.569   0.836  23.491  0.00  0.00    -0.467 OA
ATOM     28  C   UNL     1       2.656   0.312  22.719  0.00  0.00    +0.280 C 
ENDBRANCH  21   2
ENDBRANCH  10  21
BRANCH  17  14
ATOM     14  C   UNL     1      -1.670   3.111  25.961  0.00  0.00    +0.103 C 
BRANCH  14  11
ATOM     11  C   UNL     1      -1.571   4.152  24.828  0.00  0.00    -0.017 C 
ATOM     19  C   UNL     1      -1.991   5.543  25.350  0.00  0.00    +0.012 C 
ATOM     20  C   UNL     1      -0.091   4.240  24.403  0.00  0.00    +0.012 C 
BRANCH  11  18
ATOM     18  C   UNL     1      -2.461   3.807  23.610  0.00  0.00    +0.127 C 
BRANCH  18  24
ATOM      5  O   UNL     1      -2.507   2.136  21.859  0.00  0.00    -0.251 OA
ATOM     24  C   UNL     1      -1.855   2.811  22.646  0.00  0.00    +0.305 C 
BRANCH  24   4
ATOM      4  O   UNL     1      -0.505   2.735  22.746  0.00  0.00    -0.481 OA
ATOM     33  H   UNL     1      -0.062   3.485  22.295  0.00  0.00    +0.295 HD
ENDBRANCH  24   4
ENDBRANCH  18  24
ENDBRANCH  11  18
ENDBRANCH  14  11
ENDBRANCH  17  14
BRANCH   8  22
ATOM     22  C   UNL     1      -5.023  -0.884  24.071  0.00  0.00    +0.158 C 
BRANCH  22  25
ATOM     25  C   UNL     1      -5.179   0.500  24.650  0.00  0.00    -0.028 A 
ATOM     26  C   UNL     1      -4.919   1.621  23.861  0.00  0.00    +0.009 A 
ATOM     27  C   UNL     1      -5.586   0.659  25.975  0.00  0.00    +0.009 A 
ATOM     29  C   UNL     1      -5.064   2.900  24.397  0.00  0.00    +0.046 A 
ATOM     30  C   UNL     1      -5.731   1.939  26.511  0.00  0.00    +0.046 A 
ATOM     31  C   UNL     1      -5.470   3.059  25.722  0.00  0.00    +0.120 A 
BRANCH  31   6
ATOM      6  O   UNL     1      -5.613   4.307  26.245  0.00  0.00    -0.495 OA
ATOM     32  C   UNL     1      -6.176   5.307  25.395  0.00  0.00    +0.277 C 
ENDBRANCH  31   6
ENDBRANCH  22  25
ENDBRANCH   8  22
TORSDOF 10
ENDMDL
MODEL 4
REMARK VINA RESULT:      -0.1      2.170      5.777
REMARK  Name = 45783852
REMARK  14 active torsions:
REMARK  status: ('A' for Active; 'I' for Inactive)
REMARK    1  A    between atoms: O_2  and  C_21
REMARK    2  A    between atoms: O_2  and  C_28
REMARK    3  A    between atoms: O_4  and  C_24
REMARK    4  A    between atoms: O_6  and  C_31
REMARK    5  A    between atoms: O_6  and  C_32
REMARK    6  A    between atoms: N_8  and  C_22
REMARK    7  A    between atoms: C_10  and  C_21
REMARK    8  A    between atoms: C_11  and  C_14
REMARK    9  A    between atoms: C_11  and  C_18
REMARK   10  A    between atoms: C_11  and  C_19
REMARK   11  A    between atoms: C_11  and  C_20
REMARK   12  A    between atoms: C_14  and  C_17
REMARK   13  A    between atoms: C_18  and  C_24
REMARK   14  A    between atoms: C_22  and  C_25
REMARK                            x       y       z     vdW  Elec       q    Type
REMARK                         _______ _______ _______ _____ _____    ______ ____
ROOT
ATOM      1  O   UNL     1       0.249   3.580  23.419  0.00  0.00    -0.276 OA
ATOM      7  N   UNL     1      -1.787   2.870  24.306  0.00  0.00    -0.282 N 
ATOM      8  N   UNL     1      -5.322   1.813  24.972  0.00  0.00    -0.328 N 
ATOM      9  N   UNL     1      -5.570   3.880  25.781  0.00  0.00    -0.240 NA
ATOM     10  C   UNL     1      -1.817   3.975  25.301  0.00  0.00    +0.191 C 
ATOM     12  C   UNL     1      -2.852   1.827  24.356  0.00  0.00    +0.163 C 
ATOM     13  C   UNL     1      -3.188   4.667  25.452  0.00  0.00    +0.091 C 
ATOM     15  C   UNL     1      -4.101   2.413  24.875  0.00  0.00    +0.059 A 
ATOM     16  C   UNL     1      -4.280   3.676  25.380  0.00  0.00    +0.066 A 
ATOM     17  C   UNL     1      -0.653   2.742  23.489  0.00  0.00    +0.217 C 
ATOM     23  C   UNL     1      -6.173   2.737  25.524  0.00  0.00    +0.200 A 
ENDROOT
BRANCH  10  21
ATOM      3  O   UNL     1      -1.956   3.453  27.651  0.00  0.00    -0.249 OA
ATOM     21  C   UNL     1      -1.340   3.380  26.596  0.00  0.00    +0.328 C 
BRANCH  21   2
ATOM      2  O   UNL     1      -0.141   2.764  26.401  0.00  0.00    -0.467 OA
ATOM     28  C   UNL     1       0.606   2.479  27.589  0.00  0.00    +0.280 C 
ENDBRANCH  21   2
ENDBRANCH  10  21
BRANCH  17  14
ATOM     14  C   UNL     1      -0.567   1.489  22.651  0.00  0.00    +0.103 C 
BRANCH  14  11
ATOM     11  C   UNL     1       0.505   0.504  23.158  0.00  0.00    -0.017 C 
ATOM     19  C   UNL     1       0.095  -0.061  24.536  0.00  0.00    +0.012 C 
ATOM     20  C   UNL     1       0.560  -0.677  22.167  0.00  0.00    +0.012 C 
BRANCH  11  18
ATOM     18  C   UNL     1       1.903   1.151  23.301  0.00  0.00    +0.127 C 
BRANCH  18  24
ATOM      5  O   UNL     1       3.458  -0.705  23.279  0.00  0.00    -0.251 OA
ATOM     24  C   UNL     1       3.043   0.321  22.754  0.00  0.00    +0.305 C 
BRANCH  24   4
ATOM      4  O   UNL     1       3.571   0.836  21.615  0.00  0.00    -0.481 OA
ATOM     33  H   UNL     1       4.194   0.212  21.185  0.00  0.00    +0.295 HD
ENDBRANCH  24   4
ENDBRANCH  18  24
ENDBRANCH  11  18
ENDBRANCH  14  11
ENDBRANCH  17  14
BRANCH   8  22
ATOM     22  C   UNL     1      -5.667   0.468  24.581  0.00  0.00    +0.158 C 
BRANCH  22  25
ATOM     25  C   UNL     1      -4.530  -0.510  24.737  0.00  0.00    -0.028 A 
ATOM     26  C   UNL     1      -3.816  -0.567  25.934  0.00  0.00    +0.009 A 
ATOM     27  C   UNL     1      -4.194  -1.362  23.684  0.00  0.00    +0.009 A 
ATOM     29  C   UNL     1      -2.765  -1.473  26.078  0.00  0.00    +0.046 A 
ATOM     30  C   UNL     1      -3.143  -2.268  23.828  0.00  0.00    +0.046 A 
ATOM     31  C   UNL     1      -2.429  -2.324  25.024  0.00  0.00    +0.120 A 
BRANCH  31   6
ATOM      6  O   UNL     1      -1.405  -3.208  25.165  0.00  0.00    -0.495 OA
ATOM     32  C   UNL     1      -0.127  -2.674  25.506  0.00  0.00    +0.277 C 
ENDBRANCH  31   6
ENDBRANCH  22  25
ENDBRANCH   8  22
TORSDOF 10
ENDMDL
MODEL 5
REMARK VINA RESULT:      -0.1      2.197      7.417
REMARK  Name = 45783852
REMARK  14 active torsions:
REMARK  status: ('A' for Active; 'I' for Inactive)
REMARK    1  A    between atoms: O_2  and  C_21
REMARK    2  A    between atoms: O_2  and  C_28
REMARK    3  A    between atoms: O_4  and  C_24
REMARK    4  A    between atoms: O_6  and  C_31
REMARK    5  A    between atoms: O_6  and  C_32
REMARK    6  A    between atoms: N_8  and  C_22
REMARK    7  A    between atoms: C_10  and  C_21
REMARK    8  A    between atoms: C_11  and  C_14
REMARK    9  A    between atoms: C_11  and  C_18
REMARK   10  A    between atoms: C_11  and  C_19
REMARK   11  A    between atoms: C_11  and  C_20
REMARK   12  A    between atoms: C_14  and  C_17
REMARK   13  A    between atoms: C_18  and  C_24
REMARK   14  A    between atoms: C_22  and  C_25
REMARK                            x       y       z     vdW  Elec       q    Type
REMARK                         _______ _______ _______ _____ _____    ______ ____
ROOT
ATOM      1  O   UNL     1       1.389   2.564  24.015  0.00  0.00    -0.276 OA
ATOM      7  N   UNL     1      -0.272   0.937  23.829  0.00  0.00    -0.282 N 
ATOM      8  N   UNL     1      -3.217  -1.350  24.217  0.00  0.00    -0.328 N 
ATOM      9  N   UNL     1      -1.715  -2.820  24.972  0.00  0.00    -0.240 NA
ATOM     10  C   UNL     1       0.721  -0.170  23.799  0.00  0.00    +0.191 C 
ATOM     12  C   UNL     1      -1.714   0.618  23.625  0.00  0.00    +0.163 C 
ATOM     13  C   UNL     1       0.349  -1.388  24.671  0.00  0.00    +0.091 C 
ATOM     15  C   UNL     1      -2.001  -0.737  24.129  0.00  0.00    +0.059 A 
ATOM     16  C   UNL     1      -1.100  -1.660  24.593  0.00  0.00    +0.066 A 
ATOM     17  C   UNL     1       0.206   2.257  23.849  0.00  0.00    +0.217 C 
ATOM     23  C   UNL     1      -2.992  -2.602  24.731  0.00  0.00    +0.200 A 
ENDROOT
BRANCH  10  21
ATOM      3  O   UNL     1       0.116  -1.273  21.741  0.00  0.00    -0.249 OA
ATOM     21  C   UNL     1       0.884  -0.542  22.352  0.00  0.00    +0.328 C 
BRANCH  21   2
ATOM      2  O   UNL     1       2.002   0.055  21.852  0.00  0.00    -0.467 OA
ATOM     28  C   UNL     1       3.149   0.029  22.709  0.00  0.00    +0.280 C 
ENDBRANCH  21   2
ENDBRANCH  10  21
BRANCH  17  14
ATOM     14  C   UNL     1      -0.821   3.346  23.660  0.00  0.00    +0.103 C 
BRANCH  14  11
ATOM     11  C   UNL     1      -1.082   4.153  24.947  0.00  0.00    -0.017 C 
ATOM     19  C   UNL     1       0.163   4.993  25.306  0.00  0.00    +0.012 C 
ATOM     20  C   UNL     1      -2.239   5.132  24.659  0.00  0.00    +0.012 C 
BRANCH  11  18
ATOM     18  C   UNL     1      -1.425   3.259  26.162  0.00  0.00    +0.127 C 
BRANCH  18  24
ATOM      5  O   UNL     1       0.819   2.904  26.999  0.00  0.00    -0.251 OA
ATOM     24  C   UNL     1      -0.269   2.436  26.689  0.00  0.00    +0.305 C 
BRANCH  24   4
ATOM      4  O   UNL     1      -0.561   1.115  26.777  0.00  0.00    -0.481 OA
ATOM     33  H   UNL     1      -1.389   0.890  26.300  0.00  0.00    +0.295 HD
ENDBRANCH  24   4
ENDBRANCH  18  24
ENDBRANCH  11  18
ENDBRANCH  14  11
ENDBRANCH  17  14
BRANCH   8  22
ATOM     22  C   UNL     1      -4.498  -0.804  23.842  0.00  0.00    +0.158 C 
BRANCH  22  25
ATOM     25  C   UNL     1      -4.772   0.550  24.448  0.00  0.00    -0.028 A 
ATOM     26  C   UNL     1      -5.485   0.650  25.643  0.00  0.00    +0.009 A 
ATOM     27  C   UNL     1      -4.311   1.704  23.812  0.00  0.00    +0.009 A 
ATOM     29  C   UNL     1      -5.737   1.903  26.202  0.00  0.00    +0.046 A 
ATOM     30  C   UNL     1      -4.564   2.956  24.372  0.00  0.00    +0.046 A 
ATOM     31  C   UNL     1      -5.276   3.056  25.567  0.00  0.00    +0.120 A 
BRANCH  31   6
ATOM      6  O   UNL     1      -5.521   4.277  26.113  0.00  0.00    -0.495 OA
ATOM     32  C   UNL     1      -6.242   5.214  25.313  0.00  0.00    +0.277 C 
ENDBRANCH  31   6
ENDBRANCH  22  25
ENDBRANCH   8  22
TORSDOF 10
ENDMDL
MODEL 6
REMARK VINA RESULT:       0.2      2.087      7.658
REMARK  Name = 45783852
REMARK  14 active torsions:
REMARK  status: ('A' for Active; 'I' for Inactive)
REMARK    1  A    between atoms: O_2  and  C_21
REMARK    2  A    between atoms: O_2  and  C_28
REMARK    3  A    between atoms: O_4  and  C_24
REMARK    4  A    between atoms: O_6  and  C_31
REMARK    5  A    between atoms: O_6  and  C_32
REMARK    6  A    between atoms: N_8  and  C_22
REMARK    7  A    between atoms: C_10  and  C_21
REMARK    8  A    between atoms: C_11  and  C_14
REMARK    9  A    between atoms: C_11  and  C_18
REMARK   10  A    between atoms: C_11  and  C_19
REMARK   11  A    between atoms: C_11  and  C_20
REMARK   12  A    between atoms: C_14  and  C_17
REMARK   13  A    between atoms: C_18  and  C_24
REMARK   14  A    between atoms: C_22  and  C_25
REMARK                            x       y       z     vdW  Elec       q    Type
REMARK                         _______ _______ _______ _____ _____    ______ ____
ROOT
ATOM      1  O   UNL     1       1.242   2.674  24.289  0.00  0.00    -0.276 OA
ATOM      7  N   UNL     1      -0.256   0.911  23.996  0.00  0.00    -0.282 N 
ATOM      8  N   UNL     1      -3.021  -1.613  24.182  0.00  0.00    -0.328 N 
ATOM      9  N   UNL     1      -1.470  -2.942  25.085  0.00  0.00    -0.240 NA
ATOM     10  C   UNL     1       0.825  -0.109  24.069  0.00  0.00    +0.191 C 
ATOM     12  C   UNL     1      -1.643   0.468  23.680  0.00  0.00    +0.163 C 
ATOM     13  C   UNL     1       0.485  -1.344  24.929  0.00  0.00    +0.091 C 
ATOM     15  C   UNL     1      -1.858  -0.901  24.183  0.00  0.00    +0.059 A 
ATOM     16  C   UNL     1      -0.924  -1.739  24.737  0.00  0.00    +0.066 A 
ATOM     17  C   UNL     1       0.107   2.266  24.032  0.00  0.00    +0.217 C 
ATOM     23  C   UNL     1      -2.736  -2.836  24.735  0.00  0.00    +0.200 A 
ENDROOT
BRANCH  10  21
ATOM      3  O   UNL     1       0.296  -0.614  21.771  0.00  0.00    -0.249 OA
ATOM     21  C   UNL     1       1.140  -0.482  22.647  0.00  0.00    +0.328 C 
BRANCH  21   2
ATOM      2  O   UNL     1       2.485  -0.644  22.506  0.00  0.00    -0.467 OA
ATOM     28  C   UNL     1       3.261   0.557  22.577  0.00  0.00    +0.280 C 
ENDBRANCH  21   2
ENDBRANCH  10  21
BRANCH  17  14
ATOM     14  C   UNL     1      -0.988   3.262  23.739  0.00  0.00    +0.103 C 
BRANCH  14  11
ATOM     11  C   UNL     1      -1.522   3.955  25.008  0.00  0.00    -0.017 C 
ATOM     19  C   UNL     1      -1.099   3.160  26.263  0.00  0.00    +0.012 C 
ATOM     20  C   UNL     1      -0.864   5.347  25.093  0.00  0.00    +0.012 C 
BRANCH  11  18
ATOM     18  C   UNL     1      -3.064   4.088  25.021  0.00  0.00    +0.127 C 
BRANCH  18  24
ATOM      5  O   UNL     1      -3.936   3.075  23.003  0.00  0.00    -0.251 OA
ATOM     24  C   UNL     1      -3.711   4.087  23.654  0.00  0.00    +0.305 C 
BRANCH  24   4
ATOM      4  O   UNL     1      -4.015   5.334  23.214  0.00  0.00    -0.481 OA
ATOM     33  H   UNL     1      -4.507   5.313  22.366  0.00  0.00    +0.295 HD
ENDBRANCH  24   4
ENDBRANCH  18  24
ENDBRANCH  11  18
ENDBRANCH  14  11
ENDBRANCH  17  14
BRANCH   8  22
ATOM     22  C   UNL     1      -4.308  -1.182  23.693  0.00  0.00    +0.158 C 
BRANCH  22  25
ATOM     25  C   UNL     1      -4.859   0.012  24.431  0.00  0.00    -0.028 A 
ATOM     26  C   UNL     1      -4.134   0.584  25.476  0.00  0.00    +0.009 A 
ATOM     27  C   UNL     1      -6.096   0.546  24.067  0.00  0.00    +0.009 A 
ATOM     29  C   UNL     1      -4.644   1.689  26.157  0.00  0.00    +0.046 A 
ATOM     30  C   UNL     1      -6.607   1.650  24.749  0.00  0.00    +0.046 A 
ATOM     31  C   UNL     1      -5.881   2.222  25.794  0.00  0.00    +0.120 A 
BRANCH  31   6
ATOM      6  O   UNL     1      -6.379   3.300  26.458  0.00  0.00    -0.495 OA
ATOM     32  C   UNL     1      -6.277   4.566  25.809  0.00  0.00    +0.277 C 
ENDBRANCH  31   6
ENDBRANCH  22  25
ENDBRANCH   8  22
TORSDOF 10
ENDMDL
MODEL 7
REMARK VINA RESULT:       0.8      2.056      4.718
REMARK  Name = 45783852
REMARK  14 active torsions:
REMARK  status: ('A' for Active; 'I' for Inactive)
REMARK    1  A    between atoms: O_2  and  C_21
REMARK    2  A    between atoms: O_2  and  C_28
REMARK    3  A    between atoms: O_4  and  C_24
REMARK    4  A    between atoms: O_6  and  C_31
REMARK    5  A    between atoms: O_6  and  C_32
REMARK    6  A    between atoms: N_8  and  C_22
REMARK    7  A    between atoms: C_10  and  C_21
REMARK    8  A    between atoms: C_11  and  C_14
REMARK    9  A    between atoms: C_11  and  C_18
REMARK   10  A    between atoms: C_11  and  C_19
REMARK   11  A    between atoms: C_11  and  C_20
REMARK   12  A    between atoms: C_14  and  C_17
REMARK   13  A    between atoms: C_18  and  C_24
REMARK   14  A    between atoms: C_22  and  C_25
REMARK                            x       y       z     vdW  Elec       q    Type
REMARK                         _______ _______ _______ _____ _____    ______ ____
ROOT
ATOM      1  O   UNL     1      -3.821   3.048  22.893  0.00  0.00    -0.276 OA
ATOM      7  N   UNL     1      -3.133   1.055  23.890  0.00  0.00    -0.282 N 
ATOM      8  N   UNL     1      -1.565  -2.217  24.832  0.00  0.00    -0.328 N 
ATOM      9  N   UNL     1      -3.495  -3.106  24.143  0.00  0.00    -0.240 NA
ATOM     10  C   UNL     1      -4.524   0.533  23.964  0.00  0.00    +0.191 C 
ATOM     12  C   UNL     1      -2.033   0.265  24.512  0.00  0.00    +0.163 C 
ATOM     13  C   UNL     1      -4.676  -0.947  23.553  0.00  0.00    +0.091 C 
ATOM     15  C   UNL     1      -2.359  -1.172  24.461  0.00  0.00    +0.059 A 
ATOM     16  C   UNL     1      -3.535  -1.743  24.047  0.00  0.00    +0.066 A 
ATOM     17  C   UNL     1      -2.938   2.361  23.413  0.00  0.00    +0.217 C 
ATOM     23  C   UNL     1      -2.294  -3.361  24.621  0.00  0.00    +0.200 A 
ENDROOT
BRANCH  10  21
ATOM      3  O   UNL     1      -4.645   0.097  26.332  0.00  0.00    -0.249 OA
ATOM     21  C   UNL     1      -4.984   0.777  25.373  0.00  0.00    +0.328 C 
BRANCH  21   2
ATOM      2  O   UNL     1      -5.819   1.854  25.399  0.00  0.00    -0.467 OA
ATOM     28  C   UNL     1      -6.533   2.049  26.625  0.00  0.00    +0.280 C 
ENDBRANCH  21   2
ENDBRANCH  10  21
BRANCH  17  14
ATOM     14  C   UNL     1      -1.547   2.928  23.557  0.00  0.00    +0.103 C 
BRANCH  14  11
ATOM     11  C   UNL     1      -1.269   3.482  24.968  0.00  0.00    -0.017 C 
ATOM     19  C   UNL     1       0.061   2.911  25.508  0.00  0.00    +0.012 C 
ATOM     20  C   UNL     1      -1.106   5.010  24.848  0.00  0.00    +0.012 C 
BRANCH  11  18
ATOM     18  C   UNL     1      -2.386   3.138  25.983  0.00  0.00    +0.127 C 
BRANCH  18  24
ATOM      5  O   UNL     1      -3.359   5.057  27.093  0.00  0.00    -0.251 OA
ATOM     24  C   UNL     1      -3.411   4.232  26.190  0.00  0.00    +0.305 C 
BRANCH  24   4
ATOM      4  O   UNL     1      -4.406   4.202  25.270  0.00  0.00    -0.481 OA
ATOM     33  H   UNL     1      -4.182   3.627  24.507  0.00  0.00    +0.295 HD
ENDBRANCH  24   4
ENDBRANCH  18  24
ENDBRANCH  11  18
ENDBRANCH  14  11
ENDBRANCH  17  14
BRANCH   8  22
ATOM     22  C   UNL     1      -0.221  -2.151  25.351  0.00  0.00    +0.158 C 
BRANCH  22  25
ATOM     25  C   UNL     1       0.735  -1.420  24.443  0.00  0.00    -0.028 A 
ATOM     26  C   UNL     1       2.076  -1.800  24.388  0.00  0.00    +0.009 A 
ATOM     27  C   UNL     1       0.278  -0.361  23.656  0.00  0.00    +0.009 A 
ATOM     29  C   UNL     1       2.960  -1.123  23.548  0.00  0.00    +0.046 A 
ATOM     30  C   UNL     1       1.163   0.316  22.817  0.00  0.00    +0.046 A 
ATOM     31  C   UNL     1       2.503  -0.065  22.762  0.00  0.00    +0.120 A 
BRANCH  31   6
ATOM      6  O   UNL     1       3.365   0.594  21.942  0.00  0.00    -0.495 OA
ATOM     32  C   UNL     1       4.580   1.067  22.522  0.00  0.00    +0.277 C 
ENDBRANCH  31   6
ENDBRANCH  22  25
ENDBRANCH   8  22
TORSDOF 10
ENDMDL
MODEL 8
REMARK VINA RESULT:       1.2      2.355      6.120
REMARK  Name = 45783852
REMARK  14 active torsions:
REMARK  status: ('A' for Active; 'I' for Inactive)
REMARK    1  A    between atoms: O_2  and  C_21
REMARK    2  A    between atoms: O_2  and  C_28
REMARK    3  A    between atoms: O_4  and  C_24
REMARK    4  A    between atoms: O_6  and  C_31
REMARK    5  A    between atoms: O_6  and  C_32
REMARK    6  A    between atoms: N_8  and  C_22
REMARK    7  A    between atoms: C_10  and  C_21
REMARK    8  A    between atoms: C_11  and  C_14
REMARK    9  A    between atoms: C_11  and  C_18
REMARK   10  A    between atoms: C_11  and  C_19
REMARK   11  A    between atoms: C_11  and  C_20
REMARK   12  A    between atoms: C_14  and  C_17
REMARK   13  A    between atoms: C_18  and  C_24
REMARK   14  A    between atoms: C_22  and  C_25
REMARK                            x       y       z     vdW  Elec       q    Type
REMARK                         _______ _______ _______ _____ _____    ______ ____
ROOT
ATOM      1  O   UNL     1       1.930   2.278  23.703  0.00  0.00    -0.276 OA
ATOM      7  N   UNL     1      -0.281   2.472  24.419  0.00  0.00    -0.282 N 
ATOM      8  N   UNL     1      -3.958   3.077  24.826  0.00  0.00    -0.328 N 
ATOM      9  N   UNL     1      -3.325   4.904  25.944  0.00  0.00    -0.240 NA
ATOM     10  C   UNL     1       0.097   3.329  25.575  0.00  0.00    +0.191 C 
ATOM     12  C   UNL     1      -1.700   2.037  24.279  0.00  0.00    +0.163 C 
ATOM     13  C   UNL     1      -0.824   4.547  25.799  0.00  0.00    +0.091 C 
ATOM     15  C   UNL     1      -2.594   3.058  24.853  0.00  0.00    +0.059 A 
ATOM     16  C   UNL     1      -2.233   4.185  25.547  0.00  0.00    +0.066 A 
ATOM     17  C   UNL     1       0.745   1.945  23.620  0.00  0.00    +0.217 C 
ATOM     23  C   UNL     1      -4.351   4.209  25.496  0.00  0.00    +0.200 A 
ENDROOT
BRANCH  10  21
ATOM      3  O   UNL     1      -0.693   1.545  26.991  0.00  0.00    -0.249 OA
ATOM     21  C   UNL     1       0.132   2.421  26.771  0.00  0.00    +0.328 C 
BRANCH  21   2
ATOM      2  O   UNL     1       1.209   2.731  27.547  0.00  0.00    -0.467 OA
ATOM     28  C   UNL     1       1.102   2.358  28.925  0.00  0.00    +0.280 C 
ENDBRANCH  21   2
ENDBRANCH  10  21
BRANCH  17  14
ATOM     14  C   UNL     1       0.337   0.912  22.597  0.00  0.00    +0.103 C 
BRANCH  14  11
ATOM     11  C   UNL     1       1.317  -0.276  22.523  0.00  0.00    -0.017 C 
ATOM     19  C   UNL     1       1.019  -1.129  21.271  0.00  0.00    +0.012 C 
ATOM     20  C   UNL     1       2.739   0.300  22.369  0.00  0.00    +0.012 C 
BRANCH  11  18
ATOM     18  C   UNL     1       1.242  -1.199  23.762  0.00  0.00    +0.127 C 
BRANCH  18  24
ATOM      5  O   UNL     1      -1.084  -1.871  23.729  0.00  0.00    -0.251 OA
ATOM     24  C   UNL     1      -0.146  -1.374  24.339  0.00  0.00    +0.305 C 
BRANCH  24   4
ATOM      4  O   UNL     1      -0.249  -0.913  25.610  0.00  0.00    -0.481 OA
ATOM     33  H   UNL     1       0.631  -0.769  26.020  0.00  0.00    +0.295 HD
ENDBRANCH  24   4
ENDBRANCH  18  24
ENDBRANCH  11  18
ENDBRANCH  14  11
ENDBRANCH  17  14
BRANCH   8  22
ATOM     22  C   UNL     1      -4.832   2.103  24.220  0.00  0.00    +0.158 C 
BRANCH  22  25
ATOM     25  C   UNL     1      -4.449   0.678  24.533  0.00  0.00    -0.028 A 
ATOM     26  C   UNL     1      -4.475  -0.289  23.529  0.00  0.00    +0.009 A 
ATOM     27  C   UNL     1      -4.067   0.328  25.829  0.00  0.00    +0.009 A 
ATOM     29  C   UNL     1      -4.119  -1.606  23.819  0.00  0.00    +0.046 A 
ATOM     30  C   UNL     1      -3.712  -0.990  26.118  0.00  0.00    +0.046 A 
ATOM     31  C   UNL     1      -3.738  -1.957  25.114  0.00  0.00    +0.120 A 
BRANCH  31   6
ATOM      6  O   UNL     1      -3.391  -3.241  25.396  0.00  0.00    -0.495 OA
ATOM     32  C   UNL     1      -3.458  -4.183  24.327  0.00  0.00    +0.277 C 
ENDBRANCH  31   6
ENDBRANCH  22  25
ENDBRANCH   8  22
TORSDOF 10
ENDMDL
