MODEL 1
REMARK VINA RESULT:      -1.2      0.000      0.000
REMARK  Name = 45361093
REMARK  6 active torsions:
REMARK  status: ('A' for Active; 'I' for Inactive)
REMARK    1  A    between atoms: N_5  and  C_20
REMARK    2  A    between atoms: N_6  and  C_19
REMARK    3  A    between atoms: C_15  and  C_18
REMARK    4  A    between atoms: C_18  and  C_21
REMARK    5  A    between atoms: C_19  and  C_22
REMARK    6  A    between atoms: C_21  and  C_23
REMARK                            x       y       z     vdW  Elec       q    Type
REMARK                         _______ _______ _______ _____ _____    ______ ____
ROOT
ATOM      2  O   UNL     1      -0.395   1.931  24.137  0.00  0.00    -0.274 OA
ATOM      5  N   UNL     1      -2.712  -0.996  25.167  0.00  0.00    -0.296 NA
ATOM      6  N   UNL     1       0.667  -0.534  23.838  0.00  0.00    -0.284 NA
ATOM      7  N   UNL     1      -2.498   1.327  23.469  0.00  0.00    -0.312 N 
ATOM     11  C   UNL     1      -1.509  -1.436  24.425  0.00  0.00    +0.084 C 
ATOM     12  C   UNL     1      -0.769  -0.397  23.531  0.00  0.00    +0.161 C 
ATOM     13  C   UNL     1      -0.371  -1.952  25.325  0.00  0.00    +0.036 C 
ATOM     14  C   UNL     1       0.852  -1.850  24.439  0.00  0.00    +0.087 C 
ATOM     15  C   UNL     1      -3.849  -0.574  24.305  0.00  0.00    +0.074 C 
ATOM     16  C   UNL     1      -1.175   1.057  23.759  0.00  0.00    +0.232 C 
ATOM     17  C   UNL     1      -3.460   0.306  23.101  0.00  0.00    +0.123 C 
ATOM     20  C   UNL     1      -3.148  -2.033  26.117  0.00  0.00    +0.105 C 
ATOM     29  H   UNL     1      -2.812   2.291  23.525  0.00  0.00    +0.149 HD
ENDROOT
BRANCH  15  18
ATOM     18  C   UNL     1      -4.894   0.206  25.132  0.00  0.00    +0.029 C 
BRANCH  18  21
ATOM     21  C   UNL     1      -5.198   1.562  24.525  0.00  0.00    +0.097 C 
BRANCH  21  23
ATOM      3  O   UNL     1      -5.928   2.558  26.549  0.00  0.00    -0.276 OA
ATOM      4  O   UNL     1      -2.049   5.408  25.414  0.00  0.00    -0.377 OA
ATOM      8  N   UNL     1      -4.287   3.696  25.366  0.00  0.00    -0.297 N 
ATOM     23  C   UNL     1      -5.178   2.645  25.574  0.00  0.00    +0.216 C 
ATOM     25  C   UNL     1      -4.200   4.786  26.337  0.00  0.00    +0.136 C 
ATOM     26  C   UNL     1      -3.475   3.897  24.161  0.00  0.00    +0.136 C 
ATOM     27  C   UNL     1      -2.744   5.121  26.630  0.00  0.00    +0.179 C 
ATOM     28  C   UNL     1      -2.048   4.274  24.543  0.00  0.00    +0.179 C 
ENDBRANCH  21  23
ENDBRANCH  18  21
ENDBRANCH  15  18
BRANCH   6  19
ATOM     19  C   UNL     1       1.526  -0.336  22.678  0.00  0.00    +0.143 C 
BRANCH  19  22
ATOM      1  S   UNL     1       5.330  -0.396  23.836  0.00  0.00    +0.028 S 
ATOM      9  N   UNL     1       3.527   1.111  22.969  0.00  0.00    -0.145 NA
ATOM     10  N   UNL     1       4.794   1.115  23.350  0.00  0.00    -0.110 NA
ATOM     22  C   UNL     1       2.968  -0.153  23.073  0.00  0.00    +0.086 A 
ATOM     24  C   UNL     1       3.814  -1.140  23.540  0.00  0.00    +0.093 A 
ENDBRANCH  19  22
ENDBRANCH   6  19
TORSDOF 5
ENDMDL
MODEL 2
REMARK VINA RESULT:      -1.1      2.565      6.821
REMARK  Name = 45361093
REMARK  6 active torsions:
REMARK  status: ('A' for Active; 'I' for Inactive)
REMARK    1  A    between atoms: N_5  and  C_20
REMARK    2  A    between atoms: N_6  and  C_19
REMARK    3  A    between atoms: C_15  and  C_18
REMARK    4  A    between atoms: C_18  and  C_21
REMARK    5  A    between atoms: C_19  and  C_22
REMARK    6  A    between atoms: C_21  and  C_23
REMARK                            x       y       z     vdW  Elec       q    Type
REMARK                         _______ _______ _______ _____ _____    ______ ____
ROOT
ATOM      2  O   UNL     1      -2.886   2.161  22.538  0.00  0.00    -0.274 OA
ATOM      5  N   UNL     1      -2.822  -1.120  24.593  0.00  0.00    -0.296 NA
ATOM      6  N   UNL     1      -4.848   1.921  24.378  0.00  0.00    -0.284 NA
ATOM      7  N   UNL     1      -1.271   1.192  23.838  0.00  0.00    -0.312 N 
ATOM     11  C   UNL     1      -3.749  -0.104  25.142  0.00  0.00    +0.084 C 
ATOM     12  C   UNL     1      -3.525   1.388  24.756  0.00  0.00    +0.161 C 
ATOM     13  C   UNL     1      -5.221  -0.321  24.745  0.00  0.00    +0.036 C 
ATOM     14  C   UNL     1      -5.849   1.039  24.967  0.00  0.00    +0.087 C 
ATOM     15  C   UNL     1      -1.410  -0.971  25.038  0.00  0.00    +0.074 C 
ATOM     16  C   UNL     1      -2.563   1.617  23.594  0.00  0.00    +0.232 C 
ATOM     17  C   UNL     1      -0.878   0.476  25.036  0.00  0.00    +0.123 C 
ATOM     20  C   UNL     1      -3.308  -2.480  24.882  0.00  0.00    +0.105 C 
ATOM     29  H   UNL     1      -0.564   1.386  23.135  0.00  0.00    +0.149 HD
ENDROOT
BRANCH  15  18
ATOM     18  C   UNL     1      -0.471  -1.812  24.147  0.00  0.00    +0.029 C 
BRANCH  18  21
ATOM     21  C   UNL     1       0.986  -1.446  24.356  0.00  0.00    +0.097 C 
BRANCH  21  23
ATOM      3  O   UNL     1       0.717  -0.032  22.472  0.00  0.00    -0.276 OA
ATOM      4  O   UNL     1       5.616   0.146  23.122  0.00  0.00    -0.377 OA
ATOM      8  N   UNL     1       2.895  -0.585  23.051  0.00  0.00    -0.297 N 
ATOM     23  C   UNL     1       1.511  -0.624  23.206  0.00  0.00    +0.216 C 
ATOM     25  C   UNL     1       3.489   0.193  21.964  0.00  0.00    +0.136 C 
ATOM     26  C   UNL     1       3.860  -1.375  23.823  0.00  0.00    +0.136 C 
ATOM     27  C   UNL     1       4.671   1.004  22.477  0.00  0.00    +0.179 C 
ATOM     28  C   UNL     1       5.032  -0.500  24.255  0.00  0.00    +0.179 C 
ENDBRANCH  21  23
ENDBRANCH  18  21
ENDBRANCH  15  18
BRANCH   6  19
ATOM     19  C   UNL     1      -5.043   3.310  24.770  0.00  0.00    +0.143 C 
BRANCH  19  22
ATOM      1  S   UNL     1      -1.629   5.323  25.100  0.00  0.00    +0.028 S 
ATOM      9  N   UNL     1      -3.175   3.788  26.338  0.00  0.00    -0.145 NA
ATOM     10  N   UNL     1      -2.036   4.449  26.470  0.00  0.00    -0.110 NA
ATOM     22  C   UNL     1      -3.739   3.992  25.088  0.00  0.00    +0.086 A 
ATOM     24  C   UNL     1      -3.029   4.822  24.244  0.00  0.00    +0.093 A 
ENDBRANCH  19  22
ENDBRANCH   6  19
TORSDOF 5
ENDMDL
MODEL 3
REMARK VINA RESULT:       1.1      1.926      3.884
REMARK  Name = 45361093
REMARK  6 active torsions:
REMARK  status: ('A' for Active; 'I' for Inactive)
REMARK    1  A    between atoms: N_5  and  C_20
REMARK    2  A    between atoms: N_6  and  C_19
REMARK    3  A    between atoms: C_15  and  C_18
REMARK    4  A    between atoms: C_18  and  C_21
REMARK    5  A    between atoms: C_19  and  C_22
REMARK    6  A    between atoms: C_21  and  C_23
REMARK                            x       y       z     vdW  Elec       q    Type
REMARK                         _______ _______ _______ _____ _____    ______ ____
ROOT
ATOM      2  O   UNL     1       0.839   1.795  25.850  0.00  0.00    -0.274 OA
ATOM      5  N   UNL     1      -2.096   1.408  23.355  0.00  0.00    -0.296 NA
ATOM      6  N   UNL     1       1.527   0.891  23.400  0.00  0.00    -0.284 NA
ATOM      7  N   UNL     1      -0.734   3.271  25.086  0.00  0.00    -0.312 N 
ATOM     11  C   UNL     1      -0.766   1.296  22.715  0.00  0.00    +0.084 C 
ATOM     12  C   UNL     1       0.462   1.911  23.448  0.00  0.00    +0.161 C 
ATOM     13  C   UNL     1      -0.306  -0.154  22.477  0.00  0.00    +0.036 C 
ATOM     14  C   UNL     1       1.194  -0.024  22.314  0.00  0.00    +0.087 C 
ATOM     15  C   UNL     1      -2.590   2.803  23.512  0.00  0.00    +0.074 C 
ATOM     16  C   UNL     1       0.221   2.289  24.907  0.00  0.00    +0.232 C 
ATOM     17  C   UNL     1      -1.535   3.813  24.005  0.00  0.00    +0.123 C 
ATOM     20  C   UNL     1      -3.091   0.592  22.638  0.00  0.00    +0.105 C 
ATOM     29  H   UNL     1      -0.886   3.623  26.026  0.00  0.00    +0.149 HD
ENDROOT
BRANCH  15  18
ATOM     18  C   UNL     1      -3.774   2.849  24.502  0.00  0.00    +0.029 C 
BRANCH  18  21
ATOM     21  C   UNL     1      -3.570   1.906  25.673  0.00  0.00    +0.097 C 
BRANCH  21  23
ATOM      3  O   UNL     1      -5.304   0.437  24.999  0.00  0.00    -0.276 OA
ATOM      4  O   UNL     1      -1.435  -2.640  25.156  0.00  0.00    -0.377 OA
ATOM      8  N   UNL     1      -3.272  -0.540  25.553  0.00  0.00    -0.297 N 
ATOM     23  C   UNL     1      -4.135   0.540  25.377  0.00  0.00    +0.216 C 
ATOM     25  C   UNL     1      -3.738  -1.901  25.285  0.00  0.00    +0.136 C 
ATOM     26  C   UNL     1      -1.922  -0.467  26.121  0.00  0.00    +0.136 C 
ATOM     27  C   UNL     1      -2.696  -2.669  24.483  0.00  0.00    +0.179 C 
ATOM     28  C   UNL     1      -0.954  -1.300  25.288  0.00  0.00    +0.179 C 
ENDBRANCH  21  23
ENDBRANCH  18  21
ENDBRANCH  15  18
BRANCH   6  19
ATOM     19  C   UNL     1       2.861   1.455  23.252  0.00  0.00    +0.143 C 
BRANCH  19  22
ATOM      1  S   UNL     1       6.052  -0.839  23.857  0.00  0.00    +0.028 S 
ATOM      9  N   UNL     1       3.562  -0.906  23.590  0.00  0.00    -0.145 NA
ATOM     10  N   UNL     1       4.610  -1.688  23.791  0.00  0.00    -0.110 NA
ATOM     22  C   UNL     1       3.935   0.426  23.484  0.00  0.00    +0.086 A 
ATOM     24  C   UNL     1       5.287   0.675  23.605  0.00  0.00    +0.093 A 
ENDBRANCH  19  22
ENDBRANCH   6  19
TORSDOF 5
ENDMDL
MODEL 4
REMARK VINA RESULT:       1.6      1.822      2.583
REMARK  Name = 45361093
REMARK  6 active torsions:
REMARK  status: ('A' for Active; 'I' for Inactive)
REMARK    1  A    between atoms: N_5  and  C_20
REMARK    2  A    between atoms: N_6  and  C_19
REMARK    3  A    between atoms: C_15  and  C_18
REMARK    4  A    between atoms: C_18  and  C_21
REMARK    5  A    between atoms: C_19  and  C_22
REMARK    6  A    between atoms: C_21  and  C_23
REMARK                            x       y       z     vdW  Elec       q    Type
REMARK                         _______ _______ _______ _____ _____    ______ ____
ROOT
ATOM      2  O   UNL     1      -0.768  -0.779  21.782  0.00  0.00    -0.274 OA
ATOM      5  N   UNL     1      -1.128   0.519  25.412  0.00  0.00    -0.296 NA
ATOM      6  N   UNL     1       1.374   0.559  22.740  0.00  0.00    -0.284 NA
ATOM      7  N   UNL     1      -1.242  -1.839  23.754  0.00  0.00    -0.312 N 
ATOM     11  C   UNL     1       0.257   0.605  24.894  0.00  0.00    +0.084 C 
ATOM     12  C   UNL     1       0.658  -0.306  23.697  0.00  0.00    +0.161 C 
ATOM     13  C   UNL     1       0.647   2.003  24.379  0.00  0.00    +0.036 C 
ATOM     14  C   UNL     1       1.834   1.728  23.480  0.00  0.00    +0.087 C 
ATOM     15  C   UNL     1      -1.489  -0.804  25.991  0.00  0.00    +0.074 C 
ATOM     16  C   UNL     1      -0.509  -0.969  22.970  0.00  0.00    +0.232 C 
ATOM     17  C   UNL     1      -1.014  -2.021  25.174  0.00  0.00    +0.123 C 
ATOM     20  C   UNL     1      -1.389   1.592  26.387  0.00  0.00    +0.105 C 
ATOM     29  H   UNL     1      -1.984  -2.371  23.309  0.00  0.00    +0.149 HD
ENDROOT
BRANCH  15  18
ATOM     18  C   UNL     1      -3.019  -0.922  26.154  0.00  0.00    +0.029 C 
BRANCH  18  21
ATOM     21  C   UNL     1      -3.759  -0.424  24.927  0.00  0.00    +0.097 C 
BRANCH  21  23
ATOM      3  O   UNL     1      -5.609   0.503  26.085  0.00  0.00    -0.276 OA
ATOM      4  O   UNL     1      -3.627   4.543  24.035  0.00  0.00    -0.377 OA
ATOM      8  N   UNL     1      -4.465   1.924  24.651  0.00  0.00    -0.297 N 
ATOM     23  C   UNL     1      -4.698   0.702  25.277  0.00  0.00    +0.216 C 
ATOM     25  C   UNL     1      -5.326   3.071  24.936  0.00  0.00    +0.136 C 
ATOM     26  C   UNL     1      -3.476   2.162  23.594  0.00  0.00    +0.136 C 
ATOM     27  C   UNL     1      -4.487   4.322  25.156  0.00  0.00    +0.179 C 
ATOM     28  C   UNL     1      -2.715   3.456  23.865  0.00  0.00    +0.179 C 
ENDBRANCH  21  23
ENDBRANCH  18  21
ENDBRANCH  15  18
BRANCH   6  19
ATOM     19  C   UNL     1       2.465  -0.120  22.053  0.00  0.00    +0.143 C 
BRANCH  19  22
ATOM      1  S   UNL     1       5.869   0.314  24.062  0.00  0.00    +0.028 S 
ATOM      9  N   UNL     1       3.995  -1.290  23.624  0.00  0.00    -0.145 NA
ATOM     10  N   UNL     1       5.126  -1.168  24.300  0.00  0.00    -0.110 NA
ATOM     22  C   UNL     1       3.719  -0.149  22.886  0.00  0.00    +0.086 A 
ATOM     24  C   UNL     1       4.646   0.868  22.994  0.00  0.00    +0.093 A 
ENDBRANCH  19  22
ENDBRANCH   6  19
TORSDOF 5
ENDMDL
MODEL 5
REMARK VINA RESULT:       2.4      2.716      4.985
REMARK  Name = 45361093
REMARK  6 active torsions:
REMARK  status: ('A' for Active; 'I' for Inactive)
REMARK    1  A    between atoms: N_5  and  C_20
REMARK    2  A    between atoms: N_6  and  C_19
REMARK    3  A    between atoms: C_15  and  C_18
REMARK    4  A    between atoms: C_18  and  C_21
REMARK    5  A    between atoms: C_19  and  C_22
REMARK    6  A    between atoms: C_21  and  C_23
REMARK                            x       y       z     vdW  Elec       q    Type
REMARK                         _______ _______ _______ _____ _____    ______ ____
ROOT
ATOM      2  O   UNL     1      -2.745   0.459  24.114  0.00  0.00    -0.274 OA
ATOM      5  N   UNL     1      -0.206   3.382  24.160  0.00  0.00    -0.296 NA
ATOM      6  N   UNL     1      -0.147  -0.275  24.015  0.00  0.00    -0.284 NA
ATOM      7  N   UNL     1      -2.411   2.182  25.582  0.00  0.00    -0.312 N 
ATOM     11  C   UNL     1       0.423   2.057  24.368  0.00  0.00    +0.084 C 
ATOM     12  C   UNL     1      -0.469   0.884  24.868  0.00  0.00    +0.161 C 
ATOM     13  C   UNL     1       1.057   1.460  23.098  0.00  0.00    +0.036 C 
ATOM     14  C   UNL     1       1.158  -0.017  23.417  0.00  0.00    +0.087 C 
ATOM     15  C   UNL     1      -0.747   4.008  25.397  0.00  0.00    +0.074 C 
ATOM     16  C   UNL     1      -1.973   1.137  24.791  0.00  0.00    +0.232 C 
ATOM     17  C   UNL     1      -1.519   3.050  26.325  0.00  0.00    +0.123 C 
ATOM     20  C   UNL     1       0.726   4.303  23.487  0.00  0.00    +0.105 C 
ATOM     29  H   UNL     1      -3.410   2.353  25.635  0.00  0.00    +0.149 HD
ENDROOT
BRANCH  15  18
ATOM     18  C   UNL     1      -1.693   5.174  25.042  0.00  0.00    +0.029 C 
BRANCH  18  21
ATOM     21  C   UNL     1      -3.113   4.914  25.509  0.00  0.00    +0.097 C 
BRANCH  21  23
ATOM      3  O   UNL     1      -3.475   3.996  23.353  0.00  0.00    -0.276 OA
ATOM      4  O   UNL     1      -6.688   1.392  26.064  0.00  0.00    -0.377 OA
ATOM      8  N   UNL     1      -4.965   3.360  25.015  0.00  0.00    -0.297 N 
ATOM     23  C   UNL     1      -3.861   4.053  24.523  0.00  0.00    +0.216 C 
ATOM     25  C   UNL     1      -5.745   2.498  24.127  0.00  0.00    +0.136 C 
ATOM     26  C   UNL     1      -5.527   3.502  26.362  0.00  0.00    +0.136 C 
ATOM     27  C   UNL     1      -6.045   1.170  24.806  0.00  0.00    +0.179 C 
ATOM     28  C   UNL     1      -5.843   2.130  26.949  0.00  0.00    +0.179 C 
ENDBRANCH  21  23
ENDBRANCH  18  21
ENDBRANCH  15  18
BRANCH   6  19
ATOM     19  C   UNL     1      -0.182  -1.545  24.728  0.00  0.00    +0.143 C 
BRANCH  19  22
ATOM      1  S   UNL     1      -3.747  -3.271  24.379  0.00  0.00    +0.028 S 
ATOM      9  N   UNL     1      -2.344  -1.872  25.911  0.00  0.00    -0.145 NA
ATOM     10  N   UNL     1      -3.536  -2.437  25.816  0.00  0.00    -0.110 NA
ATOM     22  C   UNL     1      -1.573  -2.118  24.785  0.00  0.00    +0.086 A 
ATOM     24  C   UNL     1      -2.177  -2.885  23.808  0.00  0.00    +0.093 A 
ENDBRANCH  19  22
ENDBRANCH   6  19
TORSDOF 5
ENDMDL
MODEL 6
REMARK VINA RESULT:       2.5      3.197      7.471
REMARK  Name = 45361093
REMARK  6 active torsions:
REMARK  status: ('A' for Active; 'I' for Inactive)
REMARK    1  A    between atoms: N_5  and  C_20
REMARK    2  A    between atoms: N_6  and  C_19
REMARK    3  A    between atoms: C_15  and  C_18
REMARK    4  A    between atoms: C_18  and  C_21
REMARK    5  A    between atoms: C_19  and  C_22
REMARK    6  A    between atoms: C_21  and  C_23
REMARK                            x       y       z     vdW  Elec       q    Type
REMARK                         _______ _______ _______ _____ _____    ______ ____
ROOT
ATOM      2  O   UNL     1      -3.232   1.764  22.407  0.00  0.00    -0.274 OA
ATOM      5  N   UNL     1      -0.810  -0.027  24.840  0.00  0.00    -0.296 NA
ATOM      6  N   UNL     1      -4.342  -0.197  23.896  0.00  0.00    -0.284 NA
ATOM      7  N   UNL     1      -1.877   2.543  24.078  0.00  0.00    -0.312 N 
ATOM     11  C   UNL     1      -2.233  -0.352  25.087  0.00  0.00    +0.084 C 
ATOM     12  C   UNL     1      -3.319   0.632  24.561  0.00  0.00    +0.161 C 
ATOM     13  C   UNL     1      -2.686  -1.689  24.473  0.00  0.00    +0.036 C 
ATOM     14  C   UNL     1      -4.193  -1.555  24.409  0.00  0.00    +0.087 C 
ATOM     15  C   UNL     1      -0.338   1.220  25.500  0.00  0.00    +0.074 C 
ATOM     16  C   UNL     1      -2.819   1.673  23.563  0.00  0.00    +0.232 C 
ATOM     17  C   UNL     1      -1.311   2.412  25.407  0.00  0.00    +0.123 C 
ATOM     20  C   UNL     1       0.056  -1.160  25.209  0.00  0.00    +0.105 C 
ATOM     29  H   UNL     1      -1.561   3.307  23.490  0.00  0.00    +0.149 HD
ENDROOT
BRANCH  15  18
ATOM     18  C   UNL     1       1.010   1.673  24.898  0.00  0.00    +0.029 C 
BRANCH  18  21
ATOM     21  C   UNL     1       1.291   0.999  23.569  0.00  0.00    +0.097 C 
BRANCH  21  23
ATOM      3  O   UNL     1       2.974   2.466  22.770  0.00  0.00    -0.276 OA
ATOM      4  O   UNL     1       5.591  -1.648  23.596  0.00  0.00    -0.377 OA
ATOM      8  N   UNL     1       3.576   0.240  23.030  0.00  0.00    -0.297 N 
ATOM     23  C   UNL     1       2.685   1.309  23.085  0.00  0.00    +0.216 C 
ATOM     25  C   UNL     1       4.950   0.453  22.576  0.00  0.00    +0.136 C 
ATOM     26  C   UNL     1       3.235  -1.166  23.274  0.00  0.00    +0.136 C 
ATOM     27  C   UNL     1       5.930  -0.262  23.496  0.00  0.00    +0.179 C 
ATOM     28  C   UNL     1       4.289  -1.818  24.162  0.00  0.00    +0.179 C 
ENDBRANCH  21  23
ENDBRANCH  18  21
ENDBRANCH  15  18
BRANCH   6  19
ATOM     19  C   UNL     1      -5.697   0.308  24.069  0.00  0.00    +0.143 C 
BRANCH  19  22
ATOM      1  S   UNL     1      -5.586   3.869  25.837  0.00  0.00    +0.028 S 
ATOM      9  N   UNL     1      -6.155   1.460  26.224  0.00  0.00    -0.145 NA
ATOM     10  N   UNL     1      -6.126   2.635  26.833  0.00  0.00    -0.110 NA
ATOM     22  C   UNL     1      -5.727   1.558  24.909  0.00  0.00    +0.086 A 
ATOM     24  C   UNL     1      -5.362   2.823  24.496  0.00  0.00    +0.093 A 
ENDBRANCH  19  22
ENDBRANCH   6  19
TORSDOF 5
ENDMDL
MODEL 7
REMARK VINA RESULT:       2.7      1.252      2.122
REMARK  Name = 45361093
REMARK  6 active torsions:
REMARK  status: ('A' for Active; 'I' for Inactive)
REMARK    1  A    between atoms: N_5  and  C_20
REMARK    2  A    between atoms: N_6  and  C_19
REMARK    3  A    between atoms: C_15  and  C_18
REMARK    4  A    between atoms: C_18  and  C_21
REMARK    5  A    between atoms: C_19  and  C_22
REMARK    6  A    between atoms: C_21  and  C_23
REMARK                            x       y       z     vdW  Elec       q    Type
REMARK                         _______ _______ _______ _____ _____    ______ ____
ROOT
ATOM      2  O   UNL     1      -1.135  -2.865  23.997  0.00  0.00    -0.274 OA
ATOM      5  N   UNL     1      -2.559   0.695  23.456  0.00  0.00    -0.296 NA
ATOM      6  N   UNL     1       0.702  -0.967  23.431  0.00  0.00    -0.284 NA
ATOM      7  N   UNL     1      -2.426  -1.509  25.313  0.00  0.00    -0.312 N 
ATOM     11  C   UNL     1      -1.084   0.669  23.587  0.00  0.00    +0.084 C 
ATOM     12  C   UNL     1      -0.425  -0.554  24.289  0.00  0.00    +0.161 C 
ATOM     13  C   UNL     1      -0.336   0.708  22.242  0.00  0.00    +0.036 C 
ATOM     14  C   UNL     1       1.038   0.174  22.587  0.00  0.00    +0.087 C 
ATOM     15  C   UNL     1      -3.292   0.743  24.751  0.00  0.00    +0.074 C 
ATOM     16  C   UNL     1      -1.344  -1.756  24.491  0.00  0.00    +0.232 C 
ATOM     17  C   UNL     1      -2.744  -0.197  25.842  0.00  0.00    +0.123 C 
ATOM     20  C   UNL     1      -2.986   1.804  22.586  0.00  0.00    +0.105 C 
ATOM     29  H   UNL     1      -3.033  -2.288  25.550  0.00  0.00    +0.149 HD
ENDROOT
BRANCH  15  18
ATOM     18  C   UNL     1      -4.781   0.394  24.541  0.00  0.00    +0.029 C 
BRANCH  18  21
ATOM     21  C   UNL     1      -5.661   1.629  24.560  0.00  0.00    +0.097 C 
BRANCH  21  23
ATOM      3  O   UNL     1      -5.954   2.255  26.827  0.00  0.00    -0.276 OA
ATOM      4  O   UNL     1      -2.081   5.050  25.546  0.00  0.00    -0.377 OA
ATOM      8  N   UNL     1      -4.438   3.506  25.593  0.00  0.00    -0.297 N 
ATOM     23  C   UNL     1      -5.371   2.487  25.765  0.00  0.00    +0.216 C 
ATOM     25  C   UNL     1      -4.095   4.383  26.713  0.00  0.00    +0.136 C 
ATOM     26  C   UNL     1      -3.823   3.891  24.318  0.00  0.00    +0.136 C 
ATOM     27  C   UNL     1      -2.587   4.573  26.795  0.00  0.00    +0.179 C 
ATOM     28  C   UNL     1      -2.325   4.107  24.499  0.00  0.00    +0.179 C 
ENDBRANCH  21  23
ENDBRANCH  18  21
ENDBRANCH  15  18
BRANCH   6  19
ATOM     19  C   UNL     1       1.853  -1.451  24.183  0.00  0.00    +0.143 C 
BRANCH  19  22
ATOM      1  S   UNL     1       5.461  -0.068  23.244  0.00  0.00    +0.028 S 
ATOM      9  N   UNL     1       3.040   0.568  23.350  0.00  0.00    -0.145 NA
ATOM     10  N   UNL     1       4.231   1.050  23.032  0.00  0.00    -0.110 NA
ATOM     22  C   UNL     1       3.122  -0.747  23.780  0.00  0.00    +0.086 A 
ATOM     24  C   UNL     1       4.391  -1.290  23.794  0.00  0.00    +0.093 A 
ENDBRANCH  19  22
ENDBRANCH   6  19
TORSDOF 5
ENDMDL
