MODEL 1
REMARK VINA RESULT:      -2.9      0.000      0.000
REMARK  Name = 45783431
REMARK  8 active torsions:
REMARK  status: ('A' for Active; 'I' for Inactive)
REMARK    1  A    between atoms: O_2  and  C_19
REMARK    2  A    between atoms: O_2  and  C_23
REMARK    3  A    between atoms: O_3  and  C_24
REMARK    4  A    between atoms: O_3  and  C_25
REMARK    5  A    between atoms: N_4  and  C_8
REMARK    6  A    between atoms: C_11  and  C_16
REMARK    7  A    between atoms: C_17  and  C_18
REMARK    8  A    between atoms: C_23  and  C_24
REMARK                            x       y       z     vdW  Elec       q    Type
REMARK                         _______ _______ _______ _____ _____    ______ ____
ROOT
ATOM      1  O   UNL     1      -0.622   2.961  25.928  0.00  0.00    -0.336 OA
ATOM      5  N   UNL     1      -0.732   2.406  23.761  0.00  0.00    -0.190 NA
ATOM      6  N   UNL     1       0.548   2.242  25.650  0.00  0.00    -0.056 NA
ATOM     16  C   UNL     1      -1.319   3.010  24.763  0.00  0.00    +0.245 A 
ATOM     17  C   UNL     1       0.409   1.951  24.353  0.00  0.00    +0.207 A 
ENDROOT
BRANCH  17  18
ATOM      7  N   UNL     1       2.050  -0.821  22.479  0.00  0.00    -0.221 NA
ATOM     18  C   UNL     1       1.392   1.205  23.620  0.00  0.00    +0.084 A 
ATOM     19  C   UNL     1       1.154  -0.084  23.173  0.00  0.00    +0.226 A 
ATOM     20  C   UNL     1       2.630   1.775  23.338  0.00  0.00    +0.018 A 
ATOM     21  C   UNL     1       3.577   1.047  22.628  0.00  0.00    +0.021 A 
ATOM     22  C   UNL     1       3.242  -0.235  22.224  0.00  0.00    +0.114 A 
BRANCH  19   2
ATOM      2  O   UNL     1      -0.050  -0.688  23.426  0.00  0.00    -0.474 OA
BRANCH   2  23
ATOM     23  C   UNL     1      -0.160  -1.406  24.648  0.00  0.00    +0.258 C 
BRANCH  23  24
ATOM     24  C   UNL     1      -1.627  -1.567  24.998  0.00  0.00    +0.200 C 
BRANCH  24   3
ATOM      3  O   UNL     1      -2.171  -2.636  24.234  0.00  0.00    -0.380 OA
ATOM     25  C   UNL     1      -3.535  -2.869  24.561  0.00  0.00    +0.194 C 
ENDBRANCH  24   3
ENDBRANCH  23  24
ENDBRANCH   2  23
ENDBRANCH  19   2
ENDBRANCH  17  18
BRANCH  16  11
ATOM      4  N   UNL     1      -3.707   2.950  25.450  0.00  0.00    -0.288 NA
ATOM     11  C   UNL     1      -2.643   3.745  24.800  0.00  0.00    +0.146 C 
ATOM     13  C   UNL     1      -4.620   3.910  26.073  0.00  0.00    +0.085 C 
ATOM     14  C   UNL     1      -2.578   5.053  25.610  0.00  0.00    +0.030 C 
ATOM     15  C   UNL     1      -3.658   4.915  26.674  0.00  0.00    +0.017 C 
BRANCH   4   8
ATOM      8  C   UNL     1      -4.424   2.116  24.478  0.00  0.00    +0.057 C 
ATOM      9  C   UNL     1      -5.865   1.868  24.972  0.00  0.00    +0.019 C 
ATOM     10  C   UNL     1      -4.150   0.626  24.773  0.00  0.00    +0.019 C 
ATOM     12  C   UNL     1      -5.663   0.389  24.584  0.00  0.00    +0.003 C 
ENDBRANCH   4   8
ENDBRANCH  16  11
TORSDOF 7
ENDMDL
MODEL 2
REMARK VINA RESULT:      -1.9      1.756      7.029
REMARK  Name = 45783431
REMARK  8 active torsions:
REMARK  status: ('A' for Active; 'I' for Inactive)
REMARK    1  A    between atoms: O_2  and  C_19
REMARK    2  A    between atoms: O_2  and  C_23
REMARK    3  A    between atoms: O_3  and  C_24
REMARK    4  A    between atoms: O_3  and  C_25
REMARK    5  A    between atoms: N_4  and  C_8
REMARK    6  A    between atoms: C_11  and  C_16
REMARK    7  A    between atoms: C_17  and  C_18
REMARK    8  A    between atoms: C_23  and  C_24
REMARK                            x       y       z     vdW  Elec       q    Type
REMARK                         _______ _______ _______ _____ _____    ______ ____
ROOT
ATOM      1  O   UNL     1      -1.764   1.099  22.626  0.00  0.00    -0.336 OA
ATOM      5  N   UNL     1      -2.748   0.452  24.531  0.00  0.00    -0.190 NA
ATOM      6  N   UNL     1      -2.761   2.046  22.892  0.00  0.00    -0.056 NA
ATOM     16  C   UNL     1      -1.825   0.196  23.639  0.00  0.00    +0.245 A 
ATOM     17  C   UNL     1      -3.296   1.596  24.031  0.00  0.00    +0.207 A 
ENDROOT
BRANCH  17  18
ATOM      7  N   UNL     1      -5.319   4.280  25.639  0.00  0.00    -0.221 NA
ATOM     18  C   UNL     1      -4.378   2.265  24.693  0.00  0.00    +0.084 A 
ATOM     19  C   UNL     1      -4.324   3.611  25.016  0.00  0.00    +0.226 A 
ATOM     20  C   UNL     1      -5.529   1.560  25.031  0.00  0.00    +0.018 A 
ATOM     21  C   UNL     1      -6.574   2.214  25.672  0.00  0.00    +0.021 A 
ATOM     22  C   UNL     1      -6.422   3.563  25.951  0.00  0.00    +0.114 A 
BRANCH  19   2
ATOM      2  O   UNL     1      -3.210   4.348  24.704  0.00  0.00    -0.474 OA
BRANCH   2  23
ATOM     23  C   UNL     1      -2.206   4.444  25.706  0.00  0.00    +0.258 C 
BRANCH  23  24
ATOM     24  C   UNL     1      -0.849   4.550  25.038  0.00  0.00    +0.200 C 
BRANCH  24   3
ATOM      3  O   UNL     1      -0.295   3.246  24.903  0.00  0.00    -0.380 OA
ATOM     25  C   UNL     1      -0.286   2.553  26.144  0.00  0.00    +0.194 C 
ENDBRANCH  24   3
ENDBRANCH  23  24
ENDBRANCH   2  23
ENDBRANCH  19   2
ENDBRANCH  17  18
BRANCH  16  11
ATOM      4  N   UNL     1       0.516  -0.541  24.032  0.00  0.00    -0.288 NA
ATOM     11  C   UNL     1      -0.833  -0.948  23.584  0.00  0.00    +0.146 C 
ATOM     13  C   UNL     1       1.132  -1.730  24.624  0.00  0.00    +0.085 C 
ATOM     14  C   UNL     1      -1.218  -2.119  24.507  0.00  0.00    +0.030 C 
ATOM     15  C   UNL     1      -0.016  -2.316  25.420  0.00  0.00    +0.017 C 
BRANCH   4   8
ATOM      8  C   UNL     1       1.328  -0.046  22.912  0.00  0.00    +0.057 C 
ATOM      9  C   UNL     1       2.746  -0.649  22.995  0.00  0.00    +0.019 C 
ATOM     10  C   UNL     1       1.965   1.307  23.295  0.00  0.00    +0.019 C 
ATOM     12  C   UNL     1       3.282   0.768  22.701  0.00  0.00    +0.003 C 
ENDBRANCH   4   8
ENDBRANCH  16  11
TORSDOF 7
ENDMDL
MODEL 3
REMARK VINA RESULT:      -1.5      1.766      4.179
REMARK  Name = 45783431
REMARK  8 active torsions:
REMARK  status: ('A' for Active; 'I' for Inactive)
REMARK    1  A    between atoms: O_2  and  C_19
REMARK    2  A    between atoms: O_2  and  C_23
REMARK    3  A    between atoms: O_3  and  C_24
REMARK    4  A    between atoms: O_3  and  C_25
REMARK    5  A    between atoms: N_4  and  C_8
REMARK    6  A    between atoms: C_11  and  C_16
REMARK    7  A    between atoms: C_17  and  C_18
REMARK    8  A    between atoms: C_23  and  C_24
REMARK                            x       y       z     vdW  Elec       q    Type
REMARK                         _______ _______ _______ _____ _____    ______ ____
ROOT
ATOM      1  O   UNL     1      -1.026   2.125  25.771  0.00  0.00    -0.336 OA
ATOM      5  N   UNL     1      -2.369   1.340  24.160  0.00  0.00    -0.190 NA
ATOM      6  N   UNL     1      -1.040   0.732  25.918  0.00  0.00    -0.056 NA
ATOM     16  C   UNL     1      -1.834   2.398  24.713  0.00  0.00    +0.245 A 
ATOM     17  C   UNL     1      -1.853   0.342  24.933  0.00  0.00    +0.207 A 
ENDROOT
BRANCH  17  18
ATOM      7  N   UNL     1      -1.482  -3.246  23.999  0.00  0.00    -0.221 NA
ATOM     18  C   UNL     1      -2.171  -1.036  24.694  0.00  0.00    +0.084 A 
ATOM     19  C   UNL     1      -1.226  -1.941  24.236  0.00  0.00    +0.226 A 
ATOM     20  C   UNL     1      -3.462  -1.502  24.922  0.00  0.00    +0.018 A 
ATOM     21  C   UNL     1      -3.763  -2.839  24.688  0.00  0.00    +0.021 A 
ATOM     22  C   UNL     1      -2.747  -3.663  24.232  0.00  0.00    +0.114 A 
BRANCH  19   2
ATOM      2  O   UNL     1       0.060  -1.529  23.997  0.00  0.00    -0.474 OA
BRANCH   2  23
ATOM     23  C   UNL     1       0.258  -0.672  22.880  0.00  0.00    +0.258 C 
BRANCH  23  24
ATOM     24  C   UNL     1       1.374   0.305  23.198  0.00  0.00    +0.200 C 
BRANCH  24   3
ATOM      3  O   UNL     1       2.473   0.051  22.331  0.00  0.00    -0.380 OA
ATOM     25  C   UNL     1       3.633   0.764  22.739  0.00  0.00    +0.194 C 
ENDBRANCH  24   3
ENDBRANCH  23  24
ENDBRANCH   2  23
ENDBRANCH  19   2
ENDBRANCH  17  18
BRANCH  16  11
ATOM      4  N   UNL     1      -2.506   4.670  25.466  0.00  0.00    -0.288 NA
ATOM     11  C   UNL     1      -1.989   3.859  24.343  0.00  0.00    +0.146 C 
ATOM     13  C   UNL     1      -1.949   6.013  25.299  0.00  0.00    +0.085 C 
ATOM     14  C   UNL     1      -0.653   4.524  23.962  0.00  0.00    +0.030 C 
ATOM     15  C   UNL     1      -0.517   5.712  24.903  0.00  0.00    +0.017 C 
BRANCH   4   8
ATOM      8  C   UNL     1      -3.974   4.720  25.461  0.00  0.00    +0.057 C 
ATOM      9  C   UNL     1      -4.533   3.604  26.369  0.00  0.00    +0.019 C 
ATOM     10  C   UNL     1      -4.515   3.909  24.264  0.00  0.00    +0.019 C 
ATOM     12  C   UNL     1      -5.539   3.295  25.241  0.00  0.00    +0.003 C 
ENDBRANCH   4   8
ENDBRANCH  16  11
TORSDOF 7
ENDMDL
MODEL 4
REMARK VINA RESULT:      -1.5      1.981      4.782
REMARK  Name = 45783431
REMARK  8 active torsions:
REMARK  status: ('A' for Active; 'I' for Inactive)
REMARK    1  A    between atoms: O_2  and  C_19
REMARK    2  A    between atoms: O_2  and  C_23
REMARK    3  A    between atoms: O_3  and  C_24
REMARK    4  A    between atoms: O_3  and  C_25
REMARK    5  A    between atoms: N_4  and  C_8
REMARK    6  A    between atoms: C_11  and  C_16
REMARK    7  A    between atoms: C_17  and  C_18
REMARK    8  A    between atoms: C_23  and  C_24
REMARK                            x       y       z     vdW  Elec       q    Type
REMARK                         _______ _______ _______ _____ _____    ______ ____
ROOT
ATOM      1  O   UNL     1      -4.982   1.983  25.634  0.00  0.00    -0.336 OA
ATOM      5  N   UNL     1      -3.031   1.374  24.717  0.00  0.00    -0.190 NA
ATOM      6  N   UNL     1      -5.056   0.597  25.446  0.00  0.00    -0.056 NA
ATOM     16  C   UNL     1      -3.758   2.360  25.178  0.00  0.00    +0.245 A 
ATOM     17  C   UNL     1      -3.869   0.313  24.902  0.00  0.00    +0.207 A 
ENDROOT
BRANCH  17  18
ATOM      7  N   UNL     1      -1.776  -2.706  24.274  0.00  0.00    -0.221 NA
ATOM     18  C   UNL     1      -3.488  -1.020  24.531  0.00  0.00    +0.084 A 
ATOM     19  C   UNL     1      -2.177  -1.460  24.612  0.00  0.00    +0.226 A 
ATOM     20  C   UNL     1      -4.450  -1.915  24.074  0.00  0.00    +0.018 A 
ATOM     21  C   UNL     1      -4.074  -3.205  23.716  0.00  0.00    +0.021 A 
ATOM     22  C   UNL     1      -2.738  -3.549  23.834  0.00  0.00    +0.114 A 
BRANCH  19   2
ATOM      2  O   UNL     1      -1.195  -0.614  25.058  0.00  0.00    -0.474 OA
BRANCH   2  23
ATOM     23  C   UNL     1       0.088  -0.754  24.459  0.00  0.00    +0.258 C 
BRANCH  23  24
ATOM     24  C   UNL     1       0.186   0.186  23.274  0.00  0.00    +0.200 C 
BRANCH  24   3
ATOM      3  O   UNL     1       1.183  -0.296  22.381  0.00  0.00    -0.380 OA
ATOM     25  C   UNL     1       2.470   0.206  22.715  0.00  0.00    +0.194 C 
ENDBRANCH  24   3
ENDBRANCH  23  24
ENDBRANCH   2  23
ENDBRANCH  19   2
ENDBRANCH  17  18
BRANCH  16  11
ATOM      4  N   UNL     1      -2.184   4.178  24.552  0.00  0.00    -0.288 NA
ATOM     11  C   UNL     1      -3.428   3.835  25.273  0.00  0.00    +0.146 C 
ATOM     13  C   UNL     1      -2.341   5.556  24.085  0.00  0.00    +0.085 C 
ATOM     14  C   UNL     1      -4.509   4.731  24.640  0.00  0.00    +0.030 C 
ATOM     15  C   UNL     1      -3.775   5.560  23.595  0.00  0.00    +0.017 C 
BRANCH   4   8
ATOM      8  C   UNL     1      -1.008   4.063  25.425  0.00  0.00    +0.057 C 
ATOM      9  C   UNL     1       0.011   3.090  24.795  0.00  0.00    +0.019 C 
ATOM     10  C   UNL     1      -1.263   2.980  26.496  0.00  0.00    +0.019 C 
ATOM     12  C   UNL     1       0.157   2.458  26.195  0.00  0.00    +0.003 C 
ENDBRANCH   4   8
ENDBRANCH  16  11
TORSDOF 7
ENDMDL
MODEL 5
REMARK VINA RESULT:      -1.5      1.799      6.649
REMARK  Name = 45783431
REMARK  8 active torsions:
REMARK  status: ('A' for Active; 'I' for Inactive)
REMARK    1  A    between atoms: O_2  and  C_19
REMARK    2  A    between atoms: O_2  and  C_23
REMARK    3  A    between atoms: O_3  and  C_24
REMARK    4  A    between atoms: O_3  and  C_25
REMARK    5  A    between atoms: N_4  and  C_8
REMARK    6  A    between atoms: C_11  and  C_16
REMARK    7  A    between atoms: C_17  and  C_18
REMARK    8  A    between atoms: C_23  and  C_24
REMARK                            x       y       z     vdW  Elec       q    Type
REMARK                         _______ _______ _______ _____ _____    ______ ____
ROOT
ATOM      1  O   UNL     1      -1.463   1.623  22.756  0.00  0.00    -0.336 OA
ATOM      5  N   UNL     1      -2.117   1.256  24.867  0.00  0.00    -0.190 NA
ATOM      6  N   UNL     1      -2.745   2.176  22.869  0.00  0.00    -0.056 NA
ATOM     16  C   UNL     1      -1.170   1.102  23.977  0.00  0.00    +0.245 A 
ATOM     17  C   UNL     1      -3.062   1.920  24.141  0.00  0.00    +0.207 A 
ENDROOT
BRANCH  17  18
ATOM      7  N   UNL     1      -5.741   4.034  25.639  0.00  0.00    -0.221 NA
ATOM     18  C   UNL     1      -4.316   2.312  24.718  0.00  0.00    +0.084 A 
ATOM     19  C   UNL     1      -4.575   3.621  25.093  0.00  0.00    +0.226 A 
ATOM     20  C   UNL     1      -5.317   1.367  24.917  0.00  0.00    +0.018 A 
ATOM     21  C   UNL     1      -6.529   1.754  25.476  0.00  0.00    +0.021 A 
ATOM     22  C   UNL     1      -6.690   3.087  25.816  0.00  0.00    +0.114 A 
BRANCH  19   2
ATOM      2  O   UNL     1      -3.620   4.588  24.917  0.00  0.00    -0.474 OA
BRANCH   2  23
ATOM     23  C   UNL     1      -2.523   4.575  25.822  0.00  0.00    +0.258 C 
BRANCH  23  24
ATOM     24  C   UNL     1      -1.297   5.129  25.122  0.00  0.00    +0.200 C 
BRANCH  24   3
ATOM      3  O   UNL     1      -0.312   4.107  25.033  0.00  0.00    -0.380 OA
ATOM     25  C   UNL     1      -0.249   3.339  26.227  0.00  0.00    +0.194 C 
ENDBRANCH  24   3
ENDBRANCH  23  24
ENDBRANCH   2  23
ENDBRANCH  19   2
ENDBRANCH  17  18
BRANCH  16  11
ATOM      4  N   UNL     1       0.267  -0.831  23.361  0.00  0.00    -0.288 NA
ATOM     11  C   UNL     1       0.183   0.436  24.119  0.00  0.00    +0.146 C 
ATOM     13  C   UNL     1       1.666  -0.983  22.959  0.00  0.00    +0.085 C 
ATOM     14  C   UNL     1       1.335   1.299  23.569  0.00  0.00    +0.030 C 
ATOM     15  C   UNL     1       2.024   0.426  22.530  0.00  0.00    +0.017 C 
BRANCH   4   8
ATOM      8  C   UNL     1      -0.159  -1.975  24.179  0.00  0.00    +0.057 C 
ATOM      9  C   UNL     1      -1.655  -2.261  23.929  0.00  0.00    +0.019 C 
ATOM     10  C   UNL     1      -0.568  -1.483  25.584  0.00  0.00    +0.019 C 
ATOM     12  C   UNL     1      -1.806  -2.394  25.459  0.00  0.00    +0.003 C 
ENDBRANCH   4   8
ENDBRANCH  16  11
TORSDOF 7
ENDMDL
MODEL 6
REMARK VINA RESULT:      -1.3      1.392      2.705
REMARK  Name = 45783431
REMARK  8 active torsions:
REMARK  status: ('A' for Active; 'I' for Inactive)
REMARK    1  A    between atoms: O_2  and  C_19
REMARK    2  A    between atoms: O_2  and  C_23
REMARK    3  A    between atoms: O_3  and  C_24
REMARK    4  A    between atoms: O_3  and  C_25
REMARK    5  A    between atoms: N_4  and  C_8
REMARK    6  A    between atoms: C_11  and  C_16
REMARK    7  A    between atoms: C_17  and  C_18
REMARK    8  A    between atoms: C_23  and  C_24
REMARK                            x       y       z     vdW  Elec       q    Type
REMARK                         _______ _______ _______ _____ _____    ______ ____
ROOT
ATOM      1  O   UNL     1      -2.974   1.675  23.156  0.00  0.00    -0.336 OA
ATOM      5  N   UNL     1      -1.464   1.402  24.788  0.00  0.00    -0.190 NA
ATOM      6  N   UNL     1      -1.784   1.285  22.526  0.00  0.00    -0.056 NA
ATOM     16  C   UNL     1      -2.697   1.719  24.486  0.00  0.00    +0.245 A 
ATOM     17  C   UNL     1      -0.943   1.143  23.554  0.00  0.00    +0.207 A 
ENDROOT
BRANCH  17  18
ATOM      7  N   UNL     1       2.078  -1.004  23.165  0.00  0.00    -0.221 NA
ATOM     18  C   UNL     1       0.425   0.746  23.383  0.00  0.00    +0.084 A 
ATOM     19  C   UNL     1       0.803  -0.586  23.326  0.00  0.00    +0.226 A 
ATOM     20  C   UNL     1       1.421   1.711  23.268  0.00  0.00    +0.018 A 
ATOM     21  C   UNL     1       2.744   1.319  23.102  0.00  0.00    +0.021 A 
ATOM     22  C   UNL     1       3.018  -0.038  23.057  0.00  0.00    +0.114 A 
BRANCH  19   2
ATOM      2  O   UNL     1      -0.143  -1.573  23.434  0.00  0.00    -0.474 OA
BRANCH   2  23
ATOM     23  C   UNL     1      -0.646  -1.835  24.738  0.00  0.00    +0.258 C 
BRANCH  23  24
ATOM     24  C   UNL     1      -1.981  -2.544  24.621  0.00  0.00    +0.200 C 
BRANCH  24   3
ATOM      3  O   UNL     1      -2.981  -1.596  24.267  0.00  0.00    -0.380 OA
ATOM     25  C   UNL     1      -4.191  -2.234  23.883  0.00  0.00    +0.194 C 
ENDBRANCH  24   3
ENDBRANCH  23  24
ENDBRANCH   2  23
ENDBRANCH  19   2
ENDBRANCH  17  18
BRANCH  16  11
ATOM      4  N   UNL     1      -4.565   3.306  24.897  0.00  0.00    -0.288 NA
ATOM     11  C   UNL     1      -3.837   2.121  25.398  0.00  0.00    +0.146 C 
ATOM     13  C   UNL     1      -5.950   3.166  25.352  0.00  0.00    +0.085 C 
ATOM     14  C   UNL     1      -4.913   1.026  25.529  0.00  0.00    +0.030 C 
ATOM     15  C   UNL     1      -6.213   1.694  25.107  0.00  0.00    +0.017 C 
BRANCH   4   8
ATOM      8  C   UNL     1      -3.980   4.552  25.410  0.00  0.00    +0.057 C 
ATOM      9  C   UNL     1      -2.961   5.103  24.390  0.00  0.00    +0.019 C 
ATOM     10  C   UNL     1      -2.777   4.223  26.318  0.00  0.00    +0.019 C 
ATOM     12  C   UNL     1      -2.014   5.345  25.584  0.00  0.00    +0.003 C 
ENDBRANCH   4   8
ENDBRANCH  16  11
TORSDOF 7
ENDMDL
MODEL 7
REMARK VINA RESULT:      -1.3      2.040      4.398
REMARK  Name = 45783431
REMARK  8 active torsions:
REMARK  status: ('A' for Active; 'I' for Inactive)
REMARK    1  A    between atoms: O_2  and  C_19
REMARK    2  A    between atoms: O_2  and  C_23
REMARK    3  A    between atoms: O_3  and  C_24
REMARK    4  A    between atoms: O_3  and  C_25
REMARK    5  A    between atoms: N_4  and  C_8
REMARK    6  A    between atoms: C_11  and  C_16
REMARK    7  A    between atoms: C_17  and  C_18
REMARK    8  A    between atoms: C_23  and  C_24
REMARK                            x       y       z     vdW  Elec       q    Type
REMARK                         _______ _______ _______ _____ _____    ______ ____
ROOT
ATOM      1  O   UNL     1      -2.823   2.290  22.531  0.00  0.00    -0.336 OA
ATOM      5  N   UNL     1      -2.991   1.439  24.596  0.00  0.00    -0.190 NA
ATOM      6  N   UNL     1      -2.824   0.898  22.380  0.00  0.00    -0.056 NA
ATOM     16  C   UNL     1      -2.924   2.523  23.865  0.00  0.00    +0.245 A 
ATOM     17  C   UNL     1      -2.926   0.468  23.641  0.00  0.00    +0.207 A 
ENDROOT
BRANCH  17  18
ATOM      7  N   UNL     1      -1.846  -2.906  24.799  0.00  0.00    -0.221 NA
ATOM     18  C   UNL     1      -2.965  -0.926  23.980  0.00  0.00    +0.084 A 
ATOM     19  C   UNL     1      -1.854  -1.595  24.467  0.00  0.00    +0.226 A 
ATOM     20  C   UNL     1      -4.144  -1.647  23.824  0.00  0.00    +0.018 A 
ATOM     21  C   UNL     1      -4.174  -2.997  24.155  0.00  0.00    +0.021 A 
ATOM     22  C   UNL     1      -3.010  -3.574  24.635  0.00  0.00    +0.114 A 
BRANCH  19   2
ATOM      2  O   UNL     1      -0.669  -0.927  24.638  0.00  0.00    -0.474 OA
BRANCH   2  23
ATOM     23  C   UNL     1       0.313  -1.098  23.623  0.00  0.00    +0.258 C 
BRANCH  23  24
ATOM     24  C   UNL     1       0.967   0.239  23.337  0.00  0.00    +0.200 C 
BRANCH  24   3
ATOM      3  O   UNL     1       2.024   0.048  22.404  0.00  0.00    -0.380 OA
ATOM     25  C   UNL     1       3.186   0.778  22.775  0.00  0.00    +0.194 C 
ENDBRANCH  24   3
ENDBRANCH  23  24
ENDBRANCH   2  23
ENDBRANCH  19   2
ENDBRANCH  17  18
BRANCH  16  11
ATOM      4  N   UNL     1      -3.012   4.123  25.766  0.00  0.00    -0.288 NA
ATOM     11  C   UNL     1      -2.945   3.975  24.297  0.00  0.00    +0.146 C 
ATOM     13  C   UNL     1      -2.320   5.371  26.090  0.00  0.00    +0.085 C 
ATOM     14  C   UNL     1      -1.674   4.741  23.882  0.00  0.00    +0.030 C 
ATOM     15  C   UNL     1      -1.111   5.305  25.179  0.00  0.00    +0.017 C 
BRANCH   4   8
ATOM      8  C   UNL     1      -4.402   4.170  26.238  0.00  0.00    +0.057 C 
ATOM      9  C   UNL     1      -4.960   2.735  26.349  0.00  0.00    +0.019 C 
ATOM     10  C   UNL     1      -5.351   4.362  25.036  0.00  0.00    +0.019 C 
ATOM     12  C   UNL     1      -6.234   3.259  25.654  0.00  0.00    +0.003 C 
ENDBRANCH   4   8
ENDBRANCH  16  11
TORSDOF 7
ENDMDL
MODEL 8
REMARK VINA RESULT:      -0.6      1.740      3.607
REMARK  Name = 45783431
REMARK  8 active torsions:
REMARK  status: ('A' for Active; 'I' for Inactive)
REMARK    1  A    between atoms: O_2  and  C_19
REMARK    2  A    between atoms: O_2  and  C_23
REMARK    3  A    between atoms: O_3  and  C_24
REMARK    4  A    between atoms: O_3  and  C_25
REMARK    5  A    between atoms: N_4  and  C_8
REMARK    6  A    between atoms: C_11  and  C_16
REMARK    7  A    between atoms: C_17  and  C_18
REMARK    8  A    between atoms: C_23  and  C_24
REMARK                            x       y       z     vdW  Elec       q    Type
REMARK                         _______ _______ _______ _____ _____    ______ ____
ROOT
ATOM      1  O   UNL     1      -1.716  -0.479  24.850  0.00  0.00    -0.336 OA
ATOM      5  N   UNL     1      -1.176   0.856  23.135  0.00  0.00    -0.190 NA
ATOM      6  N   UNL     1      -0.332  -0.610  24.674  0.00  0.00    -0.056 NA
ATOM     16  C   UNL     1      -2.133   0.402  23.903  0.00  0.00    +0.245 A 
ATOM     17  C   UNL     1      -0.090   0.208  23.646  0.00  0.00    +0.207 A 
ENDROOT
BRANCH  17  18
ATOM      7  N   UNL     1       3.347   1.556  23.136  0.00  0.00    -0.221 NA
ATOM     18  C   UNL     1       1.225   0.399  23.104  0.00  0.00    +0.084 A 
ATOM     19  C   UNL     1       2.101   1.343  23.615  0.00  0.00    +0.226 A 
ATOM     20  C   UNL     1       1.655  -0.378  22.033  0.00  0.00    +0.018 A 
ATOM     21  C   UNL     1       2.931  -0.188  21.513  0.00  0.00    +0.021 A 
ATOM     22  C   UNL     1       3.731   0.782  22.095  0.00  0.00    +0.114 A 
BRANCH  19   2
ATOM      2  O   UNL     1       1.722   2.132  24.670  0.00  0.00    -0.474 OA
BRANCH   2  23
ATOM     23  C   UNL     1       0.480   2.813  24.545  0.00  0.00    +0.258 C 
BRANCH  23  24
ATOM     24  C   UNL     1      -0.207   2.843  25.896  0.00  0.00    +0.200 C 
BRANCH  24   3
ATOM      3  O   UNL     1      -1.382   3.639  25.802  0.00  0.00    -0.380 OA
ATOM     25  C   UNL     1      -1.166   4.795  25.003  0.00  0.00    +0.194 C 
ENDBRANCH  24   3
ENDBRANCH  23  24
ENDBRANCH   2  23
ENDBRANCH  19   2
ENDBRANCH  17  18
BRANCH  16  11
ATOM      4  N   UNL     1      -4.304   0.249  25.103  0.00  0.00    -0.288 NA
ATOM     11  C   UNL     1      -3.614   0.718  23.883  0.00  0.00    +0.146 C 
ATOM     13  C   UNL     1      -5.418   1.171  25.330  0.00  0.00    +0.085 C 
ATOM     14  C   UNL     1      -3.901   2.230  23.825  0.00  0.00    +0.030 C 
ATOM     15  C   UNL     1      -4.780   2.513  25.035  0.00  0.00    +0.017 C 
BRANCH   4   8
ATOM      8  C   UNL     1      -4.799  -1.125  24.946  0.00  0.00    +0.057 C 
ATOM      9  C   UNL     1      -3.753  -2.118  25.497  0.00  0.00    +0.019 C 
ATOM     10  C   UNL     1      -4.438  -1.647  23.539  0.00  0.00    +0.019 C 
ATOM     12  C   UNL     1      -3.989  -2.955  24.222  0.00  0.00    +0.003 C 
ENDBRANCH   4   8
ENDBRANCH  16  11
TORSDOF 7
ENDMDL
MODEL 9
REMARK VINA RESULT:      -0.0      2.525      5.583
REMARK  Name = 45783431
REMARK  8 active torsions:
REMARK  status: ('A' for Active; 'I' for Inactive)
REMARK    1  A    between atoms: O_2  and  C_19
REMARK    2  A    between atoms: O_2  and  C_23
REMARK    3  A    between atoms: O_3  and  C_24
REMARK    4  A    between atoms: O_3  and  C_25
REMARK    5  A    between atoms: N_4  and  C_8
REMARK    6  A    between atoms: C_11  and  C_16
REMARK    7  A    between atoms: C_17  and  C_18
REMARK    8  A    between atoms: C_23  and  C_24
REMARK                            x       y       z     vdW  Elec       q    Type
REMARK                         _______ _______ _______ _____ _____    ______ ____
ROOT
ATOM      1  O   UNL     1       0.214   0.548  24.588  0.00  0.00    -0.336 OA
ATOM      5  N   UNL     1      -1.557   1.378  25.680  0.00  0.00    -0.190 NA
ATOM      6  N   UNL     1       0.229   1.930  24.362  0.00  0.00    -0.056 NA
ATOM     16  C   UNL     1      -0.870   0.307  25.373  0.00  0.00    +0.245 A 
ATOM     17  C   UNL     1      -0.845   2.348  25.038  0.00  0.00    +0.207 A 
ENDROOT
BRANCH  17  18
ATOM      7  N   UNL     1      -2.872   5.413  25.658  0.00  0.00    -0.221 NA
ATOM     18  C   UNL     1      -1.235   3.728  25.091  0.00  0.00    +0.084 A 
ATOM     19  C   UNL     1      -2.465   4.126  25.589  0.00  0.00    +0.226 A 
ATOM     20  C   UNL     1      -0.367   4.714  24.632  0.00  0.00    +0.018 A 
ATOM     21  C   UNL     1      -0.752   6.049  24.687  0.00  0.00    +0.021 A 
ATOM     22  C   UNL     1      -2.002   6.344  25.204  0.00  0.00    +0.114 A 
BRANCH  19   2
ATOM      2  O   UNL     1      -3.354   3.191  26.053  0.00  0.00    -0.474 OA
BRANCH   2  23
ATOM     23  C   UNL     1      -4.651   3.199  25.470  0.00  0.00    +0.258 C 
BRANCH  23  24
ATOM     24  C   UNL     1      -4.652   2.300  24.249  0.00  0.00    +0.200 C 
BRANCH  24   3
ATOM      3  O   UNL     1      -4.037   2.987  23.166  0.00  0.00    -0.380 OA
ATOM     25  C   UNL     1      -3.085   2.168  22.502  0.00  0.00    +0.194 C 
ENDBRANCH  24   3
ENDBRANCH  23  24
ENDBRANCH   2  23
ENDBRANCH  19   2
ENDBRANCH  17  18
BRANCH  16  11
ATOM      4  N   UNL     1      -1.800  -1.898  24.703  0.00  0.00    -0.288 NA
ATOM     11  C   UNL     1      -1.111  -1.135  25.766  0.00  0.00    +0.146 C 
ATOM     13  C   UNL     1      -1.345  -3.284  24.824  0.00  0.00    +0.085 C 
ATOM     14  C   UNL     1       0.195  -1.912  26.022  0.00  0.00    +0.030 C 
ATOM     15  C   UNL     1       0.138  -3.106  25.080  0.00  0.00    +0.017 C 
BRANCH   4   8
ATOM      8  C   UNL     1      -3.260  -1.823  24.849  0.00  0.00    +0.057 C 
ATOM      9  C   UNL     1      -3.899  -3.132  24.338  0.00  0.00    +0.019 C 
ATOM     10  C   UNL     1      -3.869  -1.133  23.609  0.00  0.00    +0.019 C 
ATOM     12  C   UNL     1      -4.932  -2.251  23.605  0.00  0.00    +0.003 C 
ENDBRANCH   4   8
ENDBRANCH  16  11
TORSDOF 7
ENDMDL
MODEL 10
REMARK VINA RESULT:       0.0      1.905      3.872
REMARK  Name = 45783431
REMARK  8 active torsions:
REMARK  status: ('A' for Active; 'I' for Inactive)
REMARK    1  A    between atoms: O_2  and  C_19
REMARK    2  A    between atoms: O_2  and  C_23
REMARK    3  A    between atoms: O_3  and  C_24
REMARK    4  A    between atoms: O_3  and  C_25
REMARK    5  A    between atoms: N_4  and  C_8
REMARK    6  A    between atoms: C_11  and  C_16
REMARK    7  A    between atoms: C_17  and  C_18
REMARK    8  A    between atoms: C_23  and  C_24
REMARK                            x       y       z     vdW  Elec       q    Type
REMARK                         _______ _______ _______ _____ _____    ______ ____
ROOT
ATOM      1  O   UNL     1      -2.710   2.310  22.758  0.00  0.00    -0.336 OA
ATOM      5  N   UNL     1      -2.207   1.663  24.843  0.00  0.00    -0.190 NA
ATOM      6  N   UNL     1      -2.085   1.061  22.639  0.00  0.00    -0.056 NA
ATOM     16  C   UNL     1      -2.741   2.589  24.088  0.00  0.00    +0.245 A 
ATOM     17  C   UNL     1      -1.819   0.746  23.910  0.00  0.00    +0.207 A 
ENDROOT
BRANCH  17  18
ATOM      7  N   UNL     1       0.849  -1.801  24.438  0.00  0.00    -0.221 NA
ATOM     18  C   UNL     1      -1.166  -0.476  24.282  0.00  0.00    +0.084 A 
ATOM     19  C   UNL     1       0.194  -0.667  24.103  0.00  0.00    +0.226 A 
ATOM     20  C   UNL     1      -1.902  -1.515  24.843  0.00  0.00    +0.018 A 
ATOM     21  C   UNL     1      -1.263  -2.697  25.201  0.00  0.00    +0.021 A 
ATOM     22  C   UNL     1       0.102  -2.789  24.981  0.00  0.00    +0.114 A 
BRANCH  19   2
ATOM      2  O   UNL     1       0.962   0.328  23.554  0.00  0.00    -0.474 OA
BRANCH   2  23
ATOM     23  C   UNL     1       2.006  -0.080  22.679  0.00  0.00    +0.258 C 
BRANCH  23  24
ATOM     24  C   UNL     1       3.209   0.817  22.892  0.00  0.00    +0.200 C 
BRANCH  24   3
ATOM      3  O   UNL     1       4.395   0.048  22.733  0.00  0.00    -0.380 OA
ATOM     25  C   UNL     1       5.364   0.373  23.721  0.00  0.00    +0.194 C 
ENDBRANCH  24   3
ENDBRANCH  23  24
ENDBRANCH   2  23
ENDBRANCH  19   2
ENDBRANCH  17  18
BRANCH  16  11
ATOM      4  N   UNL     1      -4.128   3.803  25.755  0.00  0.00    -0.288 NA
ATOM     11  C   UNL     1      -3.377   3.905  24.485  0.00  0.00    +0.146 C 
ATOM     13  C   UNL     1      -4.053   5.120  26.388  0.00  0.00    +0.085 C 
ATOM     14  C   UNL     1      -2.343   5.020  24.728  0.00  0.00    +0.030 C 
ATOM     15  C   UNL     1      -2.606   5.503  26.148  0.00  0.00    +0.017 C 
BRANCH   4   8
ATOM      8  C   UNL     1      -5.528   3.424  25.522  0.00  0.00    +0.057 C 
ATOM      9  C   UNL     1      -5.926   2.291  26.491  0.00  0.00    +0.019 C 
ATOM     10  C   UNL     1      -5.600   2.377  24.391  0.00  0.00    +0.019 C 
ATOM     12  C   UNL     1      -6.584   1.593  25.283  0.00  0.00    +0.003 C 
ENDBRANCH   4   8
ENDBRANCH  16  11
TORSDOF 7
ENDMDL
