MODEL 1
REMARK VINA RESULT:      -3.9      0.000      0.000
REMARK  Name = 11885943
REMARK  9 active torsions:
REMARK  status: ('A' for Active; 'I' for Inactive)
REMARK    1  A    between atoms: O_3  and  C_13
REMARK    2  A    between atoms: O_3  and  C_17
REMARK    3  A    between atoms: O_6  and  C_26
REMARK    4  A    between atoms: O_6  and  C_27
REMARK    5  A    between atoms: N_8  and  C_12
REMARK    6  A    between atoms: N_9  and  C_21
REMARK    7  A    between atoms: C_16  and  C_18
REMARK    8  A    between atoms: C_21  and  C_25
REMARK    9  A    between atoms: C_22  and  C_26
REMARK                            x       y       z     vdW  Elec       q    Type
REMARK                         _______ _______ _______ _____ _____    ______ ____
ROOT
ATOM      1  O   UNL     1      12.276  -6.372  30.637  0.00  0.00    -0.368 OA
ATOM      2  O   UNL     1      14.158  -8.069  32.365  0.00  0.00    -0.368 OA
ATOM     10  C   UNL     1      14.091  -7.868  30.937  0.00  0.00    +0.173 C 
ATOM     11  C   UNL     1      12.623  -7.766  30.576  0.00  0.00    +0.192 C 
ATOM     12  C   UNL     1      14.649  -6.511  30.577  0.00  0.00    +0.130 C 
ATOM     13  C   UNL     1      11.960  -8.556  31.678  0.00  0.00    +0.235 C 
ATOM     14  C   UNL     1      13.466  -5.596  30.844  0.00  0.00    +0.185 C 
ATOM     15  C   UNL     1      12.826  -8.225  32.873  0.00  0.00    +0.207 C 
ENDROOT
BRANCH  12   8
ATOM      4  O   UNL     1      17.335  -6.575  29.565  0.00  0.00    -0.270 OA
ATOM      8  N   UNL     1      15.049  -6.461  29.192  0.00  0.00    -0.304 N 
ATOM     16  C   UNL     1      16.379  -6.497  28.798  0.00  0.00    +0.244 C 
ATOM     28  H   UNL     1      14.320  -6.284  28.509  0.00  0.00    +0.149 HD
BRANCH  16  18
ATOM     18  C   UNL     1      16.627  -6.409  27.335  0.00  0.00    +0.037 A 
ATOM     19  C   UNL     1      16.722  -5.162  26.718  0.00  0.00    +0.028 A 
ATOM     20  C   UNL     1      16.763  -7.574  26.580  0.00  0.00    +0.013 A 
ATOM     22  C   UNL     1      16.954  -5.080  25.344  0.00  0.00    +0.060 A 
ATOM     23  C   UNL     1      16.995  -7.491  25.207  0.00  0.00    +0.002 A 
ATOM     24  C   UNL     1      17.091  -6.245  24.589  0.00  0.00    +0.015 A 
BRANCH  22  26
ATOM      7  O   UNL     1      17.404  -2.740  25.273  0.00  0.00    -0.245 OA
ATOM     26  C   UNL     1      17.054  -3.780  24.700  0.00  0.00    +0.339 C 
BRANCH  26   6
ATOM      6  O   UNL     1      16.713  -3.846  23.377  0.00  0.00    -0.464 OA
ATOM     27  C   UNL     1      15.804  -2.852  22.892  0.00  0.00    +0.280 C 
ENDBRANCH  26   6
ENDBRANCH  22  26
ENDBRANCH  16  18
ENDBRANCH  12   8
BRANCH  13   3
ATOM      3  O   UNL     1      10.610  -8.207  31.888  0.00  0.00    -0.442 OA
BRANCH   3  17
ATOM      5  O   UNL     1       9.994 -10.410  31.676  0.00  0.00    -0.226 OA
ATOM      9  N   UNL     1       8.414  -8.746  32.015  0.00  0.00    -0.281 N 
ATOM     17  C   UNL     1       9.693  -9.233  31.844  0.00  0.00    +0.401 C 
ATOM     29  H   UNL     1       8.298  -7.744  32.140  0.00  0.00    +0.152 HD
BRANCH   9  21
ATOM     21  C   UNL     1       7.233  -9.577  32.018  0.00  0.00    +0.104 C 
ATOM     25  C   UNL     1       6.705  -9.797  30.615  0.00  0.00    +0.024 C 
ENDBRANCH   9  21
ENDBRANCH   3  17
ENDBRANCH  13   3
TORSDOF 7
ENDMDL
MODEL 2
REMARK VINA RESULT:      -1.6      1.704      2.104
REMARK  Name = 11885943
REMARK  9 active torsions:
REMARK  status: ('A' for Active; 'I' for Inactive)
REMARK    1  A    between atoms: O_3  and  C_13
REMARK    2  A    between atoms: O_3  and  C_17
REMARK    3  A    between atoms: O_6  and  C_26
REMARK    4  A    between atoms: O_6  and  C_27
REMARK    5  A    between atoms: N_8  and  C_12
REMARK    6  A    between atoms: N_9  and  C_21
REMARK    7  A    between atoms: C_16  and  C_18
REMARK    8  A    between atoms: C_21  and  C_25
REMARK    9  A    between atoms: C_22  and  C_26
REMARK                            x       y       z     vdW  Elec       q    Type
REMARK                         _______ _______ _______ _____ _____    ______ ____
ROOT
ATOM      1  O   UNL     1      13.952  -8.271  31.087  0.00  0.00    -0.368 OA
ATOM      2  O   UNL     1      16.428  -9.721  32.171  0.00  0.00    -0.368 OA
ATOM     10  C   UNL     1      16.037  -9.370  30.826  0.00  0.00    +0.173 C 
ATOM     11  C   UNL     1      14.533  -9.541  30.747  0.00  0.00    +0.192 C 
ATOM     12  C   UNL     1      16.247  -7.892  30.594  0.00  0.00    +0.130 C 
ATOM     13  C   UNL     1      14.267 -10.580  31.809  0.00  0.00    +0.235 C 
ATOM     14  C   UNL     1      14.994  -7.289  31.204  0.00  0.00    +0.185 C 
ATOM     15  C   UNL     1      15.279 -10.218  32.872  0.00  0.00    +0.207 C 
ENDROOT
BRANCH  12   8
ATOM      4  O   UNL     1      17.366  -5.524  29.417  0.00  0.00    -0.270 OA
ATOM      8  N   UNL     1      16.342  -7.592  29.187  0.00  0.00    -0.304 N 
ATOM     16  C   UNL     1      16.902  -6.415  28.710  0.00  0.00    +0.244 C 
ATOM     28  H   UNL     1      15.879  -8.230  28.547  0.00  0.00    +0.149 HD
BRANCH  16  18
ATOM     18  C   UNL     1      16.901  -6.244  27.234  0.00  0.00    +0.037 A 
ATOM     19  C   UNL     1      16.842  -4.965  26.680  0.00  0.00    +0.028 A 
ATOM     20  C   UNL     1      16.957  -7.363  26.403  0.00  0.00    +0.013 A 
ATOM     22  C   UNL     1      16.840  -4.806  25.294  0.00  0.00    +0.060 A 
ATOM     23  C   UNL     1      16.956  -7.203  25.017  0.00  0.00    +0.002 A 
ATOM     24  C   UNL     1      16.898  -5.925  24.463  0.00  0.00    +0.015 A 
BRANCH  22  26
ATOM      7  O   UNL     1      16.566  -2.439  25.362  0.00  0.00    -0.245 OA
ATOM     26  C   UNL     1      16.779  -3.473  24.715  0.00  0.00    +0.339 C 
BRANCH  26   6
ATOM      6  O   UNL     1      16.987  -3.501  23.363  0.00  0.00    -0.464 OA
ATOM     27  C   UNL     1      17.395  -2.274  22.747  0.00  0.00    +0.280 C 
ENDBRANCH  26   6
ENDBRANCH  22  26
ENDBRANCH  16  18
ENDBRANCH  12   8
BRANCH  13   3
ATOM      3  O   UNL     1      12.946 -10.555  32.303  0.00  0.00    -0.442 OA
BRANCH   3  17
ATOM      5  O   UNL     1      11.731 -10.204  30.386  0.00  0.00    -0.226 OA
ATOM      9  N   UNL     1      11.455  -8.852  32.250  0.00  0.00    -0.281 N 
ATOM     17  C   UNL     1      12.013  -9.894  31.538  0.00  0.00    +0.401 C 
ATOM     29  H   UNL     1      11.781  -8.695  33.200  0.00  0.00    +0.152 HD
BRANCH   9  21
ATOM     21  C   UNL     1      10.443  -7.969  31.720  0.00  0.00    +0.104 C 
ATOM     25  C   UNL     1       9.053  -8.406  32.134  0.00  0.00    +0.024 C 
ENDBRANCH   9  21
ENDBRANCH   3  17
ENDBRANCH  13   3
TORSDOF 7
ENDMDL
