MODEL 1
REMARK VINA RESULT:      -3.5      0.000      0.000
REMARK  Name = 75536724
REMARK  9 active torsions:
REMARK  status: ('A' for Active; 'I' for Inactive)
REMARK    1  A    between atoms: O_2  and  C_11
REMARK    2  A    between atoms: N_5  and  C_9
REMARK    3  A    between atoms: N_5  and  C_10
REMARK    4  A    between atoms: N_7  and  C_18
REMARK    5  A    between atoms: N_8  and  C_22
REMARK    6  A    between atoms: C_12  and  C_18
REMARK    7  A    between atoms: C_19  and  C_20
REMARK    8  A    between atoms: C_22  and  C_23
REMARK    9  A    between atoms: C_22  and  C_24
REMARK                            x       y       z     vdW  Elec       q    Type
REMARK                         _______ _______ _______ _____ _____    ______ ____
ROOT
ATOM      1  O   UNL     1      15.638  -7.920  26.621  0.00  0.00    -0.371 OA
ATOM      9  C   UNL     1      15.742  -8.022  28.991  0.00  0.00    +0.111 C 
ATOM     11  C   UNL     1      16.841  -7.106  28.487  0.00  0.00    +0.164 C 
ATOM     12  C   UNL     1      16.313  -6.747  27.105  0.00  0.00    +0.165 C 
ATOM     15  C   UNL     1      15.398  -8.801  27.732  0.00  0.00    +0.181 C 
ENDROOT
BRANCH  11   2
ATOM      2  O   UNL     1      17.013  -5.961  29.298  0.00  0.00    -0.388 OA
ATOM     26  H   UNL     1      17.572  -5.326  28.818  0.00  0.00    +0.210 HD
ENDBRANCH  11   2
BRANCH   9   5
ATOM      5  N   UNL     1      16.154  -8.879  30.092  0.00  0.00    -0.306 NA
ATOM     25  H   UNL     1      17.074  -8.597  30.430  0.00  0.00    +0.123 HD
BRANCH   5  10
ATOM      3  O   UNL     1      10.382  -7.774  31.901  0.00  0.00    -0.276 OA
ATOM      6  N   UNL     1      12.674  -7.877  32.270  0.00  0.00    -0.302 N 
ATOM     10  C   UNL     1      15.184  -8.825  31.182  0.00  0.00    +0.057 C 
ATOM     13  C   UNL     1      15.013  -7.379  31.663  0.00  0.00    +0.037 C 
ATOM     14  C   UNL     1      13.839  -9.399  30.719  0.00  0.00    +0.037 C 
ATOM     16  C   UNL     1      13.932  -7.283  32.740  0.00  0.00    +0.109 C 
ATOM     17  C   UNL     1      12.783  -9.264  31.815  0.00  0.00    +0.109 C 
ATOM     19  C   UNL     1      11.433  -7.241  32.268  0.00  0.00    +0.212 C 
ATOM     20  C   UNL     1      11.405  -5.812  32.749  0.00  0.00    +0.109 C 
ENDBRANCH   5  10
ENDBRANCH   9   5
BRANCH  12  18
ATOM     18  C   UNL     1      17.405  -6.344  26.130  0.00  0.00    +0.140 C 
BRANCH  18   7
ATOM      4  O   UNL     1      17.042  -5.513  23.391  0.00  0.00    -0.253 OA
ATOM      7  N   UNL     1      17.211  -5.007  25.652  0.00  0.00    -0.297 N 
ATOM      8  N   UNL     1      16.874  -3.316  24.116  0.00  0.00    -0.297 N 
ATOM     21  C   UNL     1      17.042  -4.687  24.301  0.00  0.00    +0.300 C 
ATOM     27  H   UNL     1      17.211  -4.250  26.329  0.00  0.00    +0.150 HD
ATOM     28  H   UNL     1      16.813  -2.722  24.938  0.00  0.00    +0.150 HD
BRANCH   8  22
ATOM     22  C   UNL     1      16.679  -2.721  22.816  0.00  0.00    +0.068 C 
ATOM     23  C   UNL     1      17.405  -1.384  22.731  0.00  0.00    +0.027 C 
ATOM     24  C   UNL     1      15.194  -2.561  22.517  0.00  0.00    +0.027 C 
ENDBRANCH   8  22
ENDBRANCH  18   7
ENDBRANCH  12  18
TORSDOF 6
ENDMDL
MODEL 2
REMARK VINA RESULT:      -3.5     17.862     20.774
REMARK  Name = 75536724
REMARK  9 active torsions:
REMARK  status: ('A' for Active; 'I' for Inactive)
REMARK    1  A    between atoms: O_2  and  C_11
REMARK    2  A    between atoms: N_5  and  C_9
REMARK    3  A    between atoms: N_5  and  C_10
REMARK    4  A    between atoms: N_7  and  C_18
REMARK    5  A    between atoms: N_8  and  C_22
REMARK    6  A    between atoms: C_12  and  C_18
REMARK    7  A    between atoms: C_19  and  C_20
REMARK    8  A    between atoms: C_22  and  C_23
REMARK    9  A    between atoms: C_22  and  C_24
REMARK                            x       y       z     vdW  Elec       q    Type
REMARK                         _______ _______ _______ _____ _____    ______ ____
ROOT
ATOM      1  O   UNL     1      -4.557   3.477  26.530  0.00  0.00    -0.371 OA
ATOM      9  C   UNL     1      -3.056   4.250  24.860  0.00  0.00    +0.111 C 
ATOM     11  C   UNL     1      -3.947   3.175  24.265  0.00  0.00    +0.164 C 
ATOM     12  C   UNL     1      -5.119   3.194  25.237  0.00  0.00    +0.165 C 
ATOM     15  C   UNL     1      -3.227   3.993  26.348  0.00  0.00    +0.181 C 
ENDROOT
BRANCH  11   2
ATOM      2  O   UNL     1      -4.354   3.472  22.944  0.00  0.00    -0.388 OA
ATOM     26  H   UNL     1      -5.110   4.082  22.986  0.00  0.00    +0.210 HD
ENDBRANCH  11   2
BRANCH   9   5
ATOM      5  N   UNL     1      -1.670   4.165  24.426  0.00  0.00    -0.306 NA
ATOM     25  H   UNL     1      -1.081   4.752  25.016  0.00  0.00    +0.123 HD
BRANCH   5  10
ATOM      3  O   UNL     1       2.737   0.107  23.042  0.00  0.00    -0.276 OA
ATOM      6  N   UNL     1       0.527   0.686  23.463  0.00  0.00    -0.302 N 
ATOM     10  C   UNL     1      -1.198   2.784  24.467  0.00  0.00    +0.057 C 
ATOM     13  C   UNL     1      -1.469   2.095  23.123  0.00  0.00    +0.037 C 
ATOM     14  C   UNL     1       0.300   2.748  24.794  0.00  0.00    +0.037 C 
ATOM     16  C   UNL     1      -0.898   0.677  23.109  0.00  0.00    +0.109 C 
ATOM     17  C   UNL     1       0.835   1.318  24.747  0.00  0.00    +0.109 C 
ATOM     19  C   UNL     1       1.550   0.119  22.705  0.00  0.00    +0.212 C 
ATOM     20  C   UNL     1       1.151  -0.511  21.394  0.00  0.00    +0.109 C 
ENDBRANCH   5  10
ENDBRANCH   9   5
BRANCH  12  18
ATOM     18  C   UNL     1      -5.882   1.882  25.285  0.00  0.00    +0.140 C 
BRANCH  18   7
ATOM      4  O   UNL     1      -4.308   0.210  23.539  0.00  0.00    -0.253 OA
ATOM      7  N   UNL     1      -5.028   0.796  25.668  0.00  0.00    -0.297 N 
ATOM      8  N   UNL     1      -3.552  -0.958  25.395  0.00  0.00    -0.297 N 
ATOM     21  C   UNL     1      -4.296   0.031  24.755  0.00  0.00    +0.300 C 
ATOM     27  H   UNL     1      -4.963   0.560  26.654  0.00  0.00    +0.150 HD
ATOM     28  H   UNL     1      -3.549  -0.978  26.411  0.00  0.00    +0.150 HD
BRANCH   8  22
ATOM     22  C   UNL     1      -2.707  -1.886  24.682  0.00  0.00    +0.068 C 
ATOM     23  C   UNL     1      -3.377  -3.251  24.594  0.00  0.00    +0.027 C 
ATOM     24  C   UNL     1      -1.340  -1.984  25.345  0.00  0.00    +0.027 C 
ENDBRANCH   8  22
ENDBRANCH  18   7
ENDBRANCH  12  18
TORSDOF 6
ENDMDL
MODEL 3
REMARK VINA RESULT:      -3.2     18.002     20.335
REMARK  Name = 75536724
REMARK  9 active torsions:
REMARK  status: ('A' for Active; 'I' for Inactive)
REMARK    1  A    between atoms: O_2  and  C_11
REMARK    2  A    between atoms: N_5  and  C_9
REMARK    3  A    between atoms: N_5  and  C_10
REMARK    4  A    between atoms: N_7  and  C_18
REMARK    5  A    between atoms: N_8  and  C_22
REMARK    6  A    between atoms: C_12  and  C_18
REMARK    7  A    between atoms: C_19  and  C_20
REMARK    8  A    between atoms: C_22  and  C_23
REMARK    9  A    between atoms: C_22  and  C_24
REMARK                            x       y       z     vdW  Elec       q    Type
REMARK                         _______ _______ _______ _____ _____    ______ ____
ROOT
ATOM      1  O   UNL     1      -0.614   3.556  26.507  0.00  0.00    -0.371 OA
ATOM      9  C   UNL     1       0.453   2.285  24.808  0.00  0.00    +0.111 C 
ATOM     11  C   UNL     1      -0.450   3.317  24.159  0.00  0.00    +0.164 C 
ATOM     12  C   UNL     1      -0.605   4.324  25.291  0.00  0.00    +0.165 C 
ATOM     15  C   UNL     1      -0.105   2.242  26.221  0.00  0.00    +0.181 C 
ENDROOT
BRANCH  11   2
ATOM      2  O   UNL     1       0.128   3.904  23.009  0.00  0.00    -0.388 OA
ATOM     26  H   UNL     1       0.712   4.627  23.295  0.00  0.00    +0.210 HD
ENDBRANCH  11   2
BRANCH   9   5
ATOM      5  N   UNL     1       0.426   0.989  24.148  0.00  0.00    -0.306 NA
ATOM     25  H   UNL     1       1.359   0.579  24.143  0.00  0.00    +0.123 HD
BRANCH   5  10
ATOM      3  O   UNL     1      -3.200  -3.964  23.800  0.00  0.00    -0.276 OA
ATOM      6  N   UNL     1      -2.617  -1.894  24.679  0.00  0.00    -0.302 N 
ATOM     10  C   UNL     1      -0.512   0.089  24.813  0.00  0.00    +0.057 C 
ATOM     13  C   UNL     1      -1.953   0.471  24.453  0.00  0.00    +0.037 C 
ATOM     14  C   UNL     1      -0.226  -1.363  24.408  0.00  0.00    +0.037 C 
ATOM     16  C   UNL     1      -2.950  -0.516  25.061  0.00  0.00    +0.109 C 
ATOM     17  C   UNL     1      -1.256  -2.312  25.017  0.00  0.00    +0.109 C 
ATOM     19  C   UNL     1      -3.492  -2.798  24.079  0.00  0.00    +0.212 C 
ATOM     20  C   UNL     1      -4.876  -2.290  23.760  0.00  0.00    +0.109 C 
ENDBRANCH   5  10
ENDBRANCH   9   5
BRANCH  12  18
ATOM     18  C   UNL     1      -1.878   5.146  25.195  0.00  0.00    +0.140 C 
BRANCH  18   7
ATOM      4  O   UNL     1      -3.927   3.549  23.940  0.00  0.00    -0.253 OA
ATOM      7  N   UNL     1      -2.975   4.487  25.841  0.00  0.00    -0.297 N 
ATOM      8  N   UNL     1      -4.884   3.200  26.025  0.00  0.00    -0.297 N 
ATOM     21  C   UNL     1      -3.930   3.728  25.157  0.00  0.00    +0.300 C 
ATOM     27  H   UNL     1      -3.072   4.588  26.846  0.00  0.00    +0.150 HD
ATOM     28  H   UNL     1      -4.758   3.342  27.023  0.00  0.00    +0.150 HD
BRANCH   8  22
ATOM     22  C   UNL     1      -5.981   2.378  25.575  0.00  0.00    +0.068 C 
ATOM     23  C   UNL     1      -6.642   1.682  26.758  0.00  0.00    +0.027 C 
ATOM     24  C   UNL     1      -5.504   1.369  24.539  0.00  0.00    +0.027 C 
ENDBRANCH   8  22
ENDBRANCH  18   7
ENDBRANCH  12  18
TORSDOF 6
ENDMDL
MODEL 4
REMARK VINA RESULT:      -3.0     17.758     20.021
REMARK  Name = 75536724
REMARK  9 active torsions:
REMARK  status: ('A' for Active; 'I' for Inactive)
REMARK    1  A    between atoms: O_2  and  C_11
REMARK    2  A    between atoms: N_5  and  C_9
REMARK    3  A    between atoms: N_5  and  C_10
REMARK    4  A    between atoms: N_7  and  C_18
REMARK    5  A    between atoms: N_8  and  C_22
REMARK    6  A    between atoms: C_12  and  C_18
REMARK    7  A    between atoms: C_19  and  C_20
REMARK    8  A    between atoms: C_22  and  C_23
REMARK    9  A    between atoms: C_22  and  C_24
REMARK                            x       y       z     vdW  Elec       q    Type
REMARK                         _______ _______ _______ _____ _____    ______ ____
ROOT
ATOM      1  O   UNL     1      -2.881   4.773  23.848  0.00  0.00    -0.371 OA
ATOM      9  C   UNL     1      -4.375   3.628  25.296  0.00  0.00    +0.111 C 
ATOM     11  C   UNL     1      -3.013   3.713  25.959  0.00  0.00    +0.164 C 
ATOM     12  C   UNL     1      -2.388   4.873  25.195  0.00  0.00    +0.165 C 
ATOM     15  C   UNL     1      -4.020   3.895  23.843  0.00  0.00    +0.181 C 
ENDROOT
BRANCH  11   2
ATOM      2  O   UNL     1      -3.095   3.980  27.345  0.00  0.00    -0.388 OA
ATOM     26  H   UNL     1      -2.866   3.167  27.828  0.00  0.00    +0.210 HD
ENDBRANCH  11   2
BRANCH   9   5
ATOM      5  N   UNL     1      -5.039   2.348  25.491  0.00  0.00    -0.306 NA
ATOM     25  H   UNL     1      -6.035   2.436  25.291  0.00  0.00    +0.123 HD
BRANCH   5  10
ATOM      3  O   UNL     1      -3.299  -3.509  24.801  0.00  0.00    -0.276 OA
ATOM      6  N   UNL     1      -3.135  -1.240  24.327  0.00  0.00    -0.302 N 
ATOM     10  C   UNL     1      -4.447   1.322  24.637  0.00  0.00    +0.057 C 
ATOM     13  C   UNL     1      -2.968   1.129  24.995  0.00  0.00    +0.037 C 
ATOM     14  C   UNL     1      -5.213   0.002  24.792  0.00  0.00    +0.037 C 
ATOM     16  C   UNL     1      -2.351  -0.007  24.179  0.00  0.00    +0.109 C 
ATOM     17  C   UNL     1      -4.551  -1.111  23.980  0.00  0.00    +0.109 C 
ATOM     19  C   UNL     1      -2.626  -2.477  24.719  0.00  0.00    +0.212 C 
ATOM     20  C   UNL     1      -1.159  -2.527  25.061  0.00  0.00    +0.109 C 
ENDBRANCH   5  10
ENDBRANCH   9   5
BRANCH  12  18
ATOM     18  C   UNL     1      -0.870   4.840  25.189  0.00  0.00    +0.140 C 
BRANCH  18   7
ATOM      4  O   UNL     1       0.552   2.394  25.756  0.00  0.00    -0.253 OA
ATOM      7  N   UNL     1      -0.372   3.889  24.237  0.00  0.00    -0.297 N 
ATOM      8  N   UNL     1       0.681   1.981  23.477  0.00  0.00    -0.297 N 
ATOM     21  C   UNL     1       0.310   2.723  24.597  0.00  0.00    +0.300 C 
ATOM     27  H   UNL     1      -0.510   4.081  23.250  0.00  0.00    +0.150 HD
ATOM     28  H   UNL     1       0.370   2.297  22.564  0.00  0.00    +0.150 HD
BRANCH   8  22
ATOM     22  C   UNL     1       1.398   0.731  23.570  0.00  0.00    +0.068 C 
ATOM     23  C   UNL     1       2.824   0.900  23.060  0.00  0.00    +0.027 C 
ATOM     24  C   UNL     1       0.665  -0.364  22.807  0.00  0.00    +0.027 C 
ENDBRANCH   8  22
ENDBRANCH  18   7
ENDBRANCH  12  18
TORSDOF 6
ENDMDL
MODEL 5
REMARK VINA RESULT:      -2.4     17.166     19.406
REMARK  Name = 75536724
REMARK  9 active torsions:
REMARK  status: ('A' for Active; 'I' for Inactive)
REMARK    1  A    between atoms: O_2  and  C_11
REMARK    2  A    between atoms: N_5  and  C_9
REMARK    3  A    between atoms: N_5  and  C_10
REMARK    4  A    between atoms: N_7  and  C_18
REMARK    5  A    between atoms: N_8  and  C_22
REMARK    6  A    between atoms: C_12  and  C_18
REMARK    7  A    between atoms: C_19  and  C_20
REMARK    8  A    between atoms: C_22  and  C_23
REMARK    9  A    between atoms: C_22  and  C_24
REMARK                            x       y       z     vdW  Elec       q    Type
REMARK                         _______ _______ _______ _____ _____    ______ ____
ROOT
ATOM      1  O   UNL     1      -2.029   2.445  23.365  0.00  0.00    -0.371 OA
ATOM      9  C   UNL     1      -4.275   2.440  24.134  0.00  0.00    +0.111 C 
ATOM     11  C   UNL     1      -3.372   2.933  25.249  0.00  0.00    +0.164 C 
ATOM     12  C   UNL     1      -2.144   3.368  24.461  0.00  0.00    +0.165 C 
ATOM     15  C   UNL     1      -3.277   1.745  23.223  0.00  0.00    +0.181 C 
ENDROOT
BRANCH  11   2
ATOM      2  O   UNL     1      -3.937   4.005  25.977  0.00  0.00    -0.388 OA
ATOM     26  H   UNL     1      -3.590   3.976  26.885  0.00  0.00    +0.210 HD
ENDBRANCH  11   2
BRANCH   9   5
ATOM      5  N   UNL     1      -5.336   1.555  24.591  0.00  0.00    -0.306 NA
ATOM     25  H   UNL     1      -6.009   1.399  23.841  0.00  0.00    +0.123 HD
BRANCH   5  10
ATOM      3  O   UNL     1      -0.401  -2.026  25.387  0.00  0.00    -0.276 OA
ATOM      6  N   UNL     1      -2.673  -1.697  25.025  0.00  0.00    -0.302 N 
ATOM     10  C   UNL     1      -4.788   0.279  25.043  0.00  0.00    +0.057 C 
ATOM     13  C   UNL     1      -4.573  -0.655  23.846  0.00  0.00    +0.037 C 
ATOM     14  C   UNL     1      -3.468   0.507  25.790  0.00  0.00    +0.037 C 
ATOM     16  C   UNL     1      -3.912  -1.962  24.283  0.00  0.00    +0.109 C 
ATOM     17  C   UNL     1      -2.831  -0.823  26.188  0.00  0.00    +0.109 C 
ATOM     19  C   UNL     1      -1.422  -2.235  24.725  0.00  0.00    +0.212 C 
ATOM     20  C   UNL     1      -1.342  -3.124  23.510  0.00  0.00    +0.109 C 
ENDBRANCH   5  10
ENDBRANCH   9   5
BRANCH  12  18
ATOM     18  C   UNL     1      -0.866   3.352  25.282  0.00  0.00    +0.140 C 
BRANCH  18   7
ATOM      4  O   UNL     1       0.100   0.688  24.740  0.00  0.00    -0.253 OA
ATOM      7  N   UNL     1       0.265   2.991  24.479  0.00  0.00    -0.297 N 
ATOM      8  N   UNL     1       1.796   1.603  23.448  0.00  0.00    -0.297 N 
ATOM     21  C   UNL     1       0.669   1.669  24.265  0.00  0.00    +0.300 C 
ATOM     27  H   UNL     1       0.811   3.735  24.055  0.00  0.00    +0.150 HD
ATOM     28  H   UNL     1       2.149   2.465  23.043  0.00  0.00    +0.150 HD
BRANCH   8  22
ATOM     22  C   UNL     1       2.417   0.356  23.071  0.00  0.00    +0.068 C 
ATOM     23  C   UNL     1       3.871   0.585  22.680  0.00  0.00    +0.027 C 
ATOM     24  C   UNL     1       1.640  -0.309  21.942  0.00  0.00    +0.027 C 
ENDBRANCH   8  22
ENDBRANCH  18   7
ENDBRANCH  12  18
TORSDOF 6
ENDMDL
MODEL 6
REMARK VINA RESULT:      -2.2     17.977     20.377
REMARK  Name = 75536724
REMARK  9 active torsions:
REMARK  status: ('A' for Active; 'I' for Inactive)
REMARK    1  A    between atoms: O_2  and  C_11
REMARK    2  A    between atoms: N_5  and  C_9
REMARK    3  A    between atoms: N_5  and  C_10
REMARK    4  A    between atoms: N_7  and  C_18
REMARK    5  A    between atoms: N_8  and  C_22
REMARK    6  A    between atoms: C_12  and  C_18
REMARK    7  A    between atoms: C_19  and  C_20
REMARK    8  A    between atoms: C_22  and  C_23
REMARK    9  A    between atoms: C_22  and  C_24
REMARK                            x       y       z     vdW  Elec       q    Type
REMARK                         _______ _______ _______ _____ _____    ______ ____
ROOT
ATOM      1  O   UNL     1       0.272   2.984  23.164  0.00  0.00    -0.371 OA
ATOM      9  C   UNL     1      -0.323   3.921  25.263  0.00  0.00    +0.111 C 
ATOM     11  C   UNL     1       0.041   2.461  25.459  0.00  0.00    +0.164 C 
ATOM     12  C   UNL     1       0.867   2.195  24.207  0.00  0.00    +0.165 C 
ATOM     15  C   UNL     1      -0.586   3.968  23.767  0.00  0.00    +0.181 C 
ENDROOT
BRANCH  11   2
ATOM      2  O   UNL     1       0.787   2.237  26.639  0.00  0.00    -0.388 OA
ATOM     26  H   UNL     1       0.312   1.584  27.182  0.00  0.00    +0.210 HD
ENDBRANCH  11   2
BRANCH   9   5
ATOM      5  N   UNL     1      -1.467   4.348  26.053  0.00  0.00    -0.306 NA
ATOM     25  H   UNL     1      -1.386   5.337  26.283  0.00  0.00    +0.123 HD
BRANCH   5  10
ATOM      3  O   UNL     1      -7.040   1.750  25.983  0.00  0.00    -0.276 OA
ATOM      6  N   UNL     1      -5.128   2.555  24.937  0.00  0.00    -0.302 N 
ATOM     10  C   UNL     1      -2.714   4.104  25.333  0.00  0.00    +0.057 C 
ATOM     13  C   UNL     1      -2.680   2.718  24.676  0.00  0.00    +0.037 C 
ATOM     14  C   UNL     1      -3.907   4.214  26.292  0.00  0.00    +0.037 C 
ATOM     16  C   UNL     1      -4.012   2.402  23.995  0.00  0.00    +0.109 C 
ATOM     17  C   UNL     1      -5.213   3.869  25.578  0.00  0.00    +0.109 C 
ATOM     19  C   UNL     1      -6.089   1.584  25.213  0.00  0.00    +0.212 C 
ATOM     20  C   UNL     1      -5.931   0.257  24.515  0.00  0.00    +0.109 C 
ENDBRANCH   5  10
ENDBRANCH   9   5
BRANCH  12  18
ATOM     18  C   UNL     1       0.884   0.733  23.798  0.00  0.00    +0.140 C 
BRANCH  18   7
ATOM      4  O   UNL     1      -0.247  -1.404  25.372  0.00  0.00    -0.253 OA
ATOM      7  N   UNL     1      -0.444   0.201  23.704  0.00  0.00    -0.297 N 
ATOM      8  N   UNL     1      -2.239  -1.160  24.208  0.00  0.00    -0.297 N 
ATOM     21  C   UNL     1      -0.917  -0.841  24.508  0.00  0.00    +0.300 C 
ATOM     27  H   UNL     1      -1.070   0.592  23.007  0.00  0.00    +0.150 HD
ATOM     28  H   UNL     1      -2.732  -0.587  23.529  0.00  0.00    +0.150 HD
BRANCH   8  22
ATOM     22  C   UNL     1      -2.967  -2.201  24.894  0.00  0.00    +0.068 C 
ATOM     23  C   UNL     1      -4.081  -2.741  24.005  0.00  0.00    +0.027 C 
ATOM     24  C   UNL     1      -3.518  -1.687  26.217  0.00  0.00    +0.027 C 
ENDBRANCH   8  22
ENDBRANCH  18   7
ENDBRANCH  12  18
TORSDOF 6
ENDMDL
MODEL 7
REMARK VINA RESULT:      -1.3     17.449     19.728
REMARK  Name = 75536724
REMARK  9 active torsions:
REMARK  status: ('A' for Active; 'I' for Inactive)
REMARK    1  A    between atoms: O_2  and  C_11
REMARK    2  A    between atoms: N_5  and  C_9
REMARK    3  A    between atoms: N_5  and  C_10
REMARK    4  A    between atoms: N_7  and  C_18
REMARK    5  A    between atoms: N_8  and  C_22
REMARK    6  A    between atoms: C_12  and  C_18
REMARK    7  A    between atoms: C_19  and  C_20
REMARK    8  A    between atoms: C_22  and  C_23
REMARK    9  A    between atoms: C_22  and  C_24
REMARK                            x       y       z     vdW  Elec       q    Type
REMARK                         _______ _______ _______ _____ _____    ______ ____
ROOT
ATOM      1  O   UNL     1      -0.772   3.836  24.404  0.00  0.00    -0.371 OA
ATOM      9  C   UNL     1      -3.062   4.360  24.754  0.00  0.00    +0.111 C 
ATOM     11  C   UNL     1      -2.603   3.402  25.836  0.00  0.00    +0.164 C 
ATOM     12  C   UNL     1      -1.094   3.601  25.785  0.00  0.00    +0.165 C 
ATOM     15  C   UNL     1      -1.983   4.163  23.701  0.00  0.00    +0.181 C 
ENDROOT
BRANCH  11   2
ATOM      2  O   UNL     1      -3.132   3.719  27.109  0.00  0.00    -0.388 OA
ATOM     26  H   UNL     1      -2.539   3.354  27.787  0.00  0.00    +0.210 HD
ENDBRANCH  11   2
BRANCH   9   5
ATOM      5  N   UNL     1      -4.398   4.079  24.254  0.00  0.00    -0.306 NA
ATOM     25  H   UNL     1      -4.555   4.568  23.374  0.00  0.00    +0.123 HD
BRANCH   5  10
ATOM      3  O   UNL     1      -3.531  -1.629  26.370  0.00  0.00    -0.276 OA
ATOM      6  N   UNL     1      -3.844  -0.091  24.657  0.00  0.00    -0.302 N 
ATOM     10  C   UNL     1      -4.591   2.643  24.067  0.00  0.00    +0.057 C 
ATOM     13  C   UNL     1      -3.320   2.014  23.482  0.00  0.00    +0.037 C 
ATOM     14  C   UNL     1      -4.951   1.981  25.403  0.00  0.00    +0.037 C 
ATOM     16  C   UNL     1      -3.464   0.496  23.366  0.00  0.00    +0.109 C 
ATOM     17  C   UNL     1      -5.063   0.465  25.248  0.00  0.00    +0.109 C 
ATOM     19  C   UNL     1      -3.170  -1.127  25.302  0.00  0.00    +0.212 C 
ATOM     20  C   UNL     1      -1.923  -1.644  24.630  0.00  0.00    +0.109 C 
ENDBRANCH   5  10
ENDBRANCH   9   5
BRANCH  12  18
ATOM     18  C   UNL     1      -0.311   2.406  26.298  0.00  0.00    +0.140 C 
BRANCH  18   7
ATOM      4  O   UNL     1      -0.127   0.955  23.811  0.00  0.00    -0.253 OA
ATOM      7  N   UNL     1       0.869   2.180  25.516  0.00  0.00    -0.297 N 
ATOM      8  N   UNL     1       2.151   1.394  23.764  0.00  0.00    -0.297 N 
ATOM     21  C   UNL     1       0.873   1.462  24.316  0.00  0.00    +0.300 C 
ATOM     27  H   UNL     1       1.751   2.548  25.859  0.00  0.00    +0.150 HD
ATOM     28  H   UNL     1       2.900   1.909  24.217  0.00  0.00    +0.150 HD
BRANCH   8  22
ATOM     22  C   UNL     1       2.432   0.710  22.524  0.00  0.00    +0.068 C 
ATOM     23  C   UNL     1       1.635  -0.586  22.442  0.00  0.00    +0.027 C 
ATOM     24  C   UNL     1       3.926   0.448  22.384  0.00  0.00    +0.027 C 
ENDBRANCH   8  22
ENDBRANCH  18   7
ENDBRANCH  12  18
TORSDOF 6
ENDMDL
MODEL 8
REMARK VINA RESULT:      -1.0     17.827     20.291
REMARK  Name = 75536724
REMARK  9 active torsions:
REMARK  status: ('A' for Active; 'I' for Inactive)
REMARK    1  A    between atoms: O_2  and  C_11
REMARK    2  A    between atoms: N_5  and  C_9
REMARK    3  A    between atoms: N_5  and  C_10
REMARK    4  A    between atoms: N_7  and  C_18
REMARK    5  A    between atoms: N_8  and  C_22
REMARK    6  A    between atoms: C_12  and  C_18
REMARK    7  A    between atoms: C_19  and  C_20
REMARK    8  A    between atoms: C_22  and  C_23
REMARK    9  A    between atoms: C_22  and  C_24
REMARK                            x       y       z     vdW  Elec       q    Type
REMARK                         _______ _______ _______ _____ _____    ______ ____
ROOT
ATOM      1  O   UNL     1      -1.503  -2.631  23.573  0.00  0.00    -0.371 OA
ATOM      9  C   UNL     1      -0.028  -0.990  24.452  0.00  0.00    +0.111 C 
ATOM     11  C   UNL     1      -1.216  -1.137  25.384  0.00  0.00    +0.164 C 
ATOM     12  C   UNL     1      -1.732  -2.513  24.988  0.00  0.00    +0.165 C 
ATOM     15  C   UNL     1      -0.568  -1.613  23.175  0.00  0.00    +0.181 C 
ENDROOT
BRANCH  11   2
ATOM      2  O   UNL     1      -0.850  -1.085  26.749  0.00  0.00    -0.388 OA
ATOM     26  H   UNL     1      -1.409  -1.711  27.240  0.00  0.00    +0.210 HD
ENDBRANCH  11   2
BRANCH   9   5
ATOM      5  N   UNL     1       0.405   0.386  24.271  0.00  0.00    -0.306 NA
ATOM     25  H   UNL     1       0.551   0.582  23.282  0.00  0.00    +0.123 HD
BRANCH   5  10
ATOM      3  O   UNL     1      -2.946   5.490  23.541  0.00  0.00    -0.276 OA
ATOM      6  N   UNL     1      -1.833   3.924  24.848  0.00  0.00    -0.302 N 
ATOM     10  C   UNL     1      -0.577   1.316  24.823  0.00  0.00    +0.057 C 
ATOM     13  C   UNL     1       0.132   2.543  25.411  0.00  0.00    +0.037 C 
ATOM     14  C   UNL     1      -1.570   1.741  23.735  0.00  0.00    +0.037 C 
ATOM     16  C   UNL     1      -0.880   3.575  25.909  0.00  0.00    +0.109 C 
ATOM     17  C   UNL     1      -2.548   2.787  24.267  0.00  0.00    +0.109 C 
ATOM     19  C   UNL     1      -2.114   5.218  24.410  0.00  0.00    +0.212 C 
ATOM     20  C   UNL     1      -1.333   6.335  25.056  0.00  0.00    +0.109 C 
ENDBRANCH   5  10
ENDBRANCH   9   5
BRANCH  12  18
ATOM     18  C   UNL     1      -3.207  -2.712  25.287  0.00  0.00    +0.140 C 
BRANCH  18   7
ATOM      4  O   UNL     1      -4.212  -0.531  23.689  0.00  0.00    -0.253 OA
ATOM      7  N   UNL     1      -3.811  -1.502  25.761  0.00  0.00    -0.297 N 
ATOM      8  N   UNL     1      -4.815   0.574  25.638  0.00  0.00    -0.297 N 
ATOM     21  C   UNL     1      -4.275  -0.488  24.916  0.00  0.00    +0.300 C 
ATOM     27  H   UNL     1      -3.894  -1.366  26.764  0.00  0.00    +0.150 HD
ATOM     28  H   UNL     1      -4.890   0.483  26.647  0.00  0.00    +0.150 HD
BRANCH   8  22
ATOM     22  C   UNL     1      -5.365   1.750  25.006  0.00  0.00    +0.068 C 
ATOM     23  C   UNL     1      -5.224   2.958  25.923  0.00  0.00    +0.027 C 
ATOM     24  C   UNL     1      -6.819   1.518  24.617  0.00  0.00    +0.027 C 
ENDBRANCH   8  22
ENDBRANCH  18   7
ENDBRANCH  12  18
TORSDOF 6
ENDMDL
MODEL 9
REMARK VINA RESULT:      -0.4     16.922     19.137
REMARK  Name = 75536724
REMARK  9 active torsions:
REMARK  status: ('A' for Active; 'I' for Inactive)
REMARK    1  A    between atoms: O_2  and  C_11
REMARK    2  A    between atoms: N_5  and  C_9
REMARK    3  A    between atoms: N_5  and  C_10
REMARK    4  A    between atoms: N_7  and  C_18
REMARK    5  A    between atoms: N_8  and  C_22
REMARK    6  A    between atoms: C_12  and  C_18
REMARK    7  A    between atoms: C_19  and  C_20
REMARK    8  A    between atoms: C_22  and  C_23
REMARK    9  A    between atoms: C_22  and  C_24
REMARK                            x       y       z     vdW  Elec       q    Type
REMARK                         _______ _______ _______ _____ _____    ______ ____
ROOT
ATOM      1  O   UNL     1      -1.223  -0.650  25.524  0.00  0.00    -0.371 OA
ATOM      9  C   UNL     1      -3.595  -0.747  25.492  0.00  0.00    +0.111 C 
ATOM     11  C   UNL     1      -3.061  -1.287  24.179  0.00  0.00    +0.164 C 
ATOM     12  C   UNL     1      -1.632  -1.642  24.567  0.00  0.00    +0.165 C 
ATOM     15  C   UNL     1      -2.395   0.027  26.011  0.00  0.00    +0.181 C 
ENDROOT
BRANCH  11   2
ATOM      2  O   UNL     1      -3.777  -2.416  23.719  0.00  0.00    -0.388 OA
ATOM     26  H   UNL     1      -4.720  -2.281  23.914  0.00  0.00    +0.210 HD
ENDBRANCH  11   2
BRANCH   9   5
ATOM      5  N   UNL     1      -4.782   0.081  25.343  0.00  0.00    -0.306 NA
ATOM     25  H   UNL     1      -5.183   0.286  26.257  0.00  0.00    +0.123 HD
BRANCH   5  10
ATOM      3  O   UNL     1      -0.499   4.108  23.541  0.00  0.00    -0.276 OA
ATOM      6  N   UNL     1      -2.666   3.542  24.160  0.00  0.00    -0.302 N 
ATOM     10  C   UNL     1      -4.462   1.324  24.647  0.00  0.00    +0.057 C 
ATOM     13  C   UNL     1      -4.304   2.467  25.658  0.00  0.00    +0.037 C 
ATOM     14  C   UNL     1      -3.178   1.154  23.826  0.00  0.00    +0.037 C 
ATOM     16  C   UNL     1      -3.876   3.759  24.963  0.00  0.00    +0.109 C 
ATOM     17  C   UNL     1      -2.773   2.472  23.167  0.00  0.00    +0.109 C 
ATOM     19  C   UNL     1      -1.491   4.287  24.254  0.00  0.00    +0.212 C 
ATOM     20  C   UNL     1      -1.459   5.370  25.302  0.00  0.00    +0.109 C 
ENDBRANCH   5  10
ENDBRANCH   9   5
BRANCH  12  18
ATOM     18  C   UNL     1      -0.672  -1.646  23.391  0.00  0.00    +0.140 C 
BRANCH  18   7
ATOM      4  O   UNL     1       1.335  -0.604  21.600  0.00  0.00    -0.253 OA
ATOM      7  N   UNL     1       0.596  -1.081  23.749  0.00  0.00    -0.297 N 
ATOM      8  N   UNL     1       2.664  -0.104  23.435  0.00  0.00    -0.297 N 
ATOM     21  C   UNL     1       1.517  -0.596  22.815  0.00  0.00    +0.300 C 
ATOM     27  H   UNL     1       0.845  -1.045  24.733  0.00  0.00    +0.150 HD
ATOM     28  H   UNL     1       2.689  -0.073  24.450  0.00  0.00    +0.150 HD
BRANCH   8  22
ATOM     22  C   UNL     1       3.772   0.455  22.697  0.00  0.00    +0.068 C 
ATOM     23  C   UNL     1       5.093   0.063  23.348  0.00  0.00    +0.027 C 
ATOM     24  C   UNL     1       3.636   1.968  22.593  0.00  0.00    +0.027 C 
ENDBRANCH   8  22
ENDBRANCH  18   7
ENDBRANCH  12  18
TORSDOF 6
ENDMDL
MODEL 10
REMARK VINA RESULT:       0.1     17.812     20.424
REMARK  Name = 75536724
REMARK  9 active torsions:
REMARK  status: ('A' for Active; 'I' for Inactive)
REMARK    1  A    between atoms: O_2  and  C_11
REMARK    2  A    between atoms: N_5  and  C_9
REMARK    3  A    between atoms: N_5  and  C_10
REMARK    4  A    between atoms: N_7  and  C_18
REMARK    5  A    between atoms: N_8  and  C_22
REMARK    6  A    between atoms: C_12  and  C_18
REMARK    7  A    between atoms: C_19  and  C_20
REMARK    8  A    between atoms: C_22  and  C_23
REMARK    9  A    between atoms: C_22  and  C_24
REMARK                            x       y       z     vdW  Elec       q    Type
REMARK                         _______ _______ _______ _____ _____    ______ ____
ROOT
ATOM      1  O   UNL     1      -3.002  -2.761  23.693  0.00  0.00    -0.371 OA
ATOM      9  C   UNL     1      -1.505  -2.293  25.476  0.00  0.00    +0.111 C 
ATOM     11  C   UNL     1      -2.681  -1.338  25.554  0.00  0.00    +0.164 C 
ATOM     12  C   UNL     1      -3.724  -2.089  24.739  0.00  0.00    +0.165 C 
ATOM     15  C   UNL     1      -1.607  -2.779  24.040  0.00  0.00    +0.181 C 
ENDROOT
BRANCH  11   2
ATOM      2  O   UNL     1      -3.114  -1.110  26.881  0.00  0.00    -0.388 OA
ATOM     26  H   UNL     1      -3.876  -0.507  26.856  0.00  0.00    +0.210 HD
ENDBRANCH  11   2
BRANCH   9   5
ATOM      5  N   UNL     1      -0.225  -1.669  25.774  0.00  0.00    -0.306 NA
ATOM     25  H   UNL     1       0.537  -2.305  25.543  0.00  0.00    +0.123 HD
BRANCH   5  10
ATOM      3  O   UNL     1      -2.889   3.265  23.251  0.00  0.00    -0.276 OA
ATOM      6  N   UNL     1      -1.197   1.678  23.385  0.00  0.00    -0.302 N 
ATOM     10  C   UNL     1      -0.074  -0.419  25.035  0.00  0.00    +0.057 C 
ATOM     13  C   UNL     1      -0.383  -0.644  23.549  0.00  0.00    +0.037 C 
ATOM     14  C   UNL     1      -1.002   0.654  25.619  0.00  0.00    +0.037 C 
ATOM     16  C   UNL     1      -0.324   0.670  22.771  0.00  0.00    +0.109 C 
ATOM     17  C   UNL     1      -0.929   1.942  24.800  0.00  0.00    +0.109 C 
ATOM     19  C   UNL     1      -2.192   2.395  22.722  0.00  0.00    +0.212 C 
ATOM     20  C   UNL     1      -2.408   2.064  21.267  0.00  0.00    +0.109 C 
ENDBRANCH   5  10
ENDBRANCH   9   5
BRANCH  12  18
ATOM     18  C   UNL     1      -4.781  -1.183  24.132  0.00  0.00    +0.140 C 
BRANCH  18   7
ATOM      4  O   UNL     1      -5.647   0.693  26.146  0.00  0.00    -0.253 OA
ATOM      7  N   UNL     1      -4.410   0.198  24.243  0.00  0.00    -0.297 N 
ATOM      8  N   UNL     1      -4.360   2.331  25.124  0.00  0.00    -0.297 N 
ATOM     21  C   UNL     1      -4.877   1.043  25.254  0.00  0.00    +0.300 C 
ATOM     27  H   UNL     1      -3.787   0.586  23.541  0.00  0.00    +0.150 HD
ATOM     28  H   UNL     1      -3.671   2.503  24.398  0.00  0.00    +0.150 HD
BRANCH   8  22
ATOM     22  C   UNL     1      -4.683   3.399  26.040  0.00  0.00    +0.068 C 
ATOM     23  C   UNL     1      -5.765   4.293  25.449  0.00  0.00    +0.027 C 
ATOM     24  C   UNL     1      -3.436   4.200  26.390  0.00  0.00    +0.027 C 
ENDBRANCH   8  22
ENDBRANCH  18   7
ENDBRANCH  12  18
TORSDOF 6
ENDMDL
