MODEL 1
REMARK VINA RESULT:       4.9      0.000      0.000
REMARK  Name = 38028914
REMARK  11 active torsions:
REMARK  status: ('A' for Active; 'I' for Inactive)
REMARK    1  A    between atoms: N_4  and  C_16
REMARK    2  A    between atoms: N_6  and  C_27
REMARK    3  A    between atoms: C_8  and  C_12
REMARK    4  A    between atoms: C_9  and  C_16
REMARK    5  A    between atoms: C_11  and  C_15
REMARK    6  A    between atoms: C_12  and  C_17
REMARK    7  A    between atoms: C_12  and  C_18
REMARK    8  A    between atoms: C_13  and  C_19
REMARK    9  A    between atoms: C_15  and  C_20
REMARK   10  A    between atoms: C_27  and  C_29
REMARK   11  A    between atoms: C_27  and  C_30
REMARK                            x       y       z     vdW  Elec       q    Type
REMARK                         _______ _______ _______ _____ _____    ______ ____
ROOT
ATOM      8  C   UNL     1      -3.405   2.134  23.876  0.00  0.00    +0.000 C 
ATOM      9  C   UNL     1      -4.164   3.362  24.437  0.00  0.00    +0.032 C 
ATOM     10  C   UNL     1      -4.365   0.948  23.691  0.00  0.00    +0.012 C 
ATOM     11  C   UNL     1      -5.048   0.540  25.009  0.00  0.00    +0.023 C 
ATOM     13  C   UNL     1      -5.591   1.740  25.758  0.00  0.00    -0.073 C 
ATOM     14  C   UNL     1      -5.194   2.995  25.479  0.00  0.00    -0.022 C 
ATOM     19  C   UNL     1      -6.636   1.470  26.804  0.00  0.00    +0.039 C 
ENDROOT
BRANCH   8  12
ATOM     12  C   UNL     1      -2.711   2.452  22.548  0.00  0.00    -0.013 C 
ATOM     17  C   UNL     1      -2.349   1.165  21.814  0.00  0.00    +0.007 C 
ATOM     18  C   UNL     1      -3.602   3.337  21.681  0.00  0.00    +0.007 C 
ENDBRANCH   8  12
BRANCH  11  15
ATOM     15  C   UNL     1      -4.096  -0.274  25.894  0.00  0.00    +0.103 C 
BRANCH  15  20
ATOM      1  O   UNL     1      -3.985  -2.360  24.765  0.00  0.00    -0.276 OA
ATOM      3  N   UNL     1      -2.082  -1.030  24.689  0.00  0.00    -0.298 N 
ATOM      5  N   UNL     1       0.563  -0.439  23.672  0.00  0.00    -0.312 N 
ATOM      7  N   UNL     1       2.833   0.114  24.018  0.00  0.00    -0.240 NA
ATOM     20  C   UNL     1      -3.394  -1.321  25.065  0.00  0.00    +0.216 C 
ATOM     21  C   UNL     1      -1.332  -1.995  23.888  0.00  0.00    +0.126 C 
ATOM     22  C   UNL     1      -1.383   0.209  25.037  0.00  0.00    +0.126 C 
ATOM     23  C   UNL     1      -0.356  -1.311  22.934  0.00  0.00    +0.125 C 
ATOM     24  C   UNL     1       0.137   0.068  24.979  0.00  0.00    +0.125 C 
ATOM     26  C   UNL     1       1.821  -0.133  23.157  0.00  0.00    +0.121 A 
ATOM     28  C   UNL     1       1.950  -0.101  21.778  0.00  0.00    +0.043 A 
ATOM     31  C   UNL     1       3.198   0.203  21.248  0.00  0.00    +0.005 A 
ATOM     32  C   UNL     1       4.032   0.405  23.466  0.00  0.00    +0.113 A 
ATOM     33  C   UNL     1       4.266   0.462  22.102  0.00  0.00    +0.020 A 
ENDBRANCH  15  20
ENDBRANCH  11  15
BRANCH   9  16
ATOM     16  C   UNL     1      -3.192   4.394  25.021  0.00  0.00    +0.113 C 
BRANCH  16   4
ATOM      2  O   UNL     1      -0.497   3.369  25.131  0.00  0.00    -0.253 OA
ATOM      4  N   UNL     1      -2.519   3.865  26.166  0.00  0.00    -0.299 N 
ATOM      6  N   UNL     1      -0.795   2.928  27.390  0.00  0.00    -0.297 N 
ATOM     25  C   UNL     1      -1.203   3.384  26.139  0.00  0.00    +0.300 C 
ATOM     34  H   UNL     1      -2.991   3.898  27.064  0.00  0.00    +0.150 HD
ATOM     35  H   UNL     1      -1.476   2.909  28.143  0.00  0.00    +0.150 HD
BRANCH   6  27
ATOM     27  C   UNL     1       0.519   2.381  27.633  0.00  0.00    +0.068 C 
ATOM     29  C   UNL     1       0.822   2.374  29.125  0.00  0.00    +0.027 C 
ATOM     30  C   UNL     1       1.575   3.161  26.858  0.00  0.00    +0.027 C 
ENDBRANCH   6  27
ENDBRANCH  16   4
ENDBRANCH   9  16
TORSDOF 6
ENDMDL
MODEL 2
REMARK VINA RESULT:       6.7      1.778      2.518
REMARK  Name = 38028914
REMARK  11 active torsions:
REMARK  status: ('A' for Active; 'I' for Inactive)
REMARK    1  A    between atoms: N_4  and  C_16
REMARK    2  A    between atoms: N_6  and  C_27
REMARK    3  A    between atoms: C_8  and  C_12
REMARK    4  A    between atoms: C_9  and  C_16
REMARK    5  A    between atoms: C_11  and  C_15
REMARK    6  A    between atoms: C_12  and  C_17
REMARK    7  A    between atoms: C_12  and  C_18
REMARK    8  A    between atoms: C_13  and  C_19
REMARK    9  A    between atoms: C_15  and  C_20
REMARK   10  A    between atoms: C_27  and  C_29
REMARK   11  A    between atoms: C_27  and  C_30
REMARK                            x       y       z     vdW  Elec       q    Type
REMARK                         _______ _______ _______ _____ _____    ______ ____
ROOT
ATOM      8  C   UNL     1      -2.110   3.473  24.814  0.00  0.00    +0.000 C 
ATOM      9  C   UNL     1      -2.995   3.693  26.067  0.00  0.00    +0.032 C 
ATOM     10  C   UNL     1      -2.950   3.602  23.534  0.00  0.00    +0.012 C 
ATOM     11  C   UNL     1      -4.112   2.591  23.495  0.00  0.00    +0.023 C 
ATOM     13  C   UNL     1      -4.873   2.557  24.804  0.00  0.00    -0.073 C 
ATOM     14  C   UNL     1      -4.363   3.066  25.941  0.00  0.00    -0.022 C 
ATOM     19  C   UNL     1      -6.254   1.965  24.769  0.00  0.00    +0.039 C 
ENDROOT
BRANCH   8  12
ATOM     12  C   UNL     1      -0.937   4.458  24.766  0.00  0.00    -0.013 C 
ATOM     17  C   UNL     1      -0.217   4.364  23.425  0.00  0.00    +0.007 C 
ATOM     18  C   UNL     1      -1.427   5.881  25.018  0.00  0.00    +0.007 C 
ENDBRANCH   8  12
BRANCH  11  15
ATOM     15  C   UNL     1      -3.612   1.193  23.114  0.00  0.00    +0.103 C 
BRANCH  15  20
ATOM      1  O   UNL     1      -3.424   0.204  25.265  0.00  0.00    -0.276 OA
ATOM      3  N   UNL     1      -1.445   0.537  24.093  0.00  0.00    -0.298 N 
ATOM      5  N   UNL     1       1.406   0.164  23.769  0.00  0.00    -0.312 N 
ATOM      7  N   UNL     1       3.570   1.025  23.374  0.00  0.00    -0.240 NA
ATOM     20  C   UNL     1      -2.830   0.598  24.258  0.00  0.00    +0.216 C 
ATOM     21  C   UNL     1      -0.616  -0.022  25.158  0.00  0.00    +0.126 C 
ATOM     22  C   UNL     1      -0.742   0.995  22.893  0.00  0.00    +0.126 C 
ATOM     23  C   UNL     1       0.614  -0.738  24.608  0.00  0.00    +0.125 C 
ATOM     24  C   UNL     1       0.731   1.310  23.154  0.00  0.00    +0.125 C 
ATOM     26  C   UNL     1       2.772  -0.045  23.592  0.00  0.00    +0.121 A 
ATOM     28  C   UNL     1       3.226  -1.352  23.651  0.00  0.00    +0.043 A 
ATOM     31  C   UNL     1       4.587  -1.578  23.476  0.00  0.00    +0.005 A 
ATOM     32  C   UNL     1       4.887   0.767  23.208  0.00  0.00    +0.113 A 
ATOM     33  C   UNL     1       5.440  -0.503  23.250  0.00  0.00    +0.020 A 
ENDBRANCH  15  20
ENDBRANCH  11  15
BRANCH   9  16
ATOM     16  C   UNL     1      -2.305   3.164  27.330  0.00  0.00    +0.113 C 
BRANCH  16   4
ATOM      2  O   UNL     1      -0.240   2.922  29.330  0.00  0.00    -0.253 OA
ATOM      4  N   UNL     1      -0.907   2.978  27.104  0.00  0.00    -0.299 N 
ATOM      6  N   UNL     1       1.326   2.691  27.634  0.00  0.00    -0.297 N 
ATOM     25  C   UNL     1       0.039   2.868  28.132  0.00  0.00    +0.300 C 
ATOM     34  H   UNL     1      -0.583   2.849  26.151  0.00  0.00    +0.150 HD
ATOM     35  H   UNL     1       1.466   2.739  26.629  0.00  0.00    +0.150 HD
BRANCH   6  27
ATOM     27  C   UNL     1       2.484   2.553  28.486  0.00  0.00    +0.068 C 
ATOM     29  C   UNL     1       2.102   1.871  29.793  0.00  0.00    +0.027 C 
ATOM     30  C   UNL     1       3.127   3.911  28.739  0.00  0.00    +0.027 C 
ENDBRANCH   6  27
ENDBRANCH  16   4
ENDBRANCH   9  16
TORSDOF 6
ENDMDL
MODEL 3
REMARK VINA RESULT:       7.2      1.685      4.549
REMARK  Name = 38028914
REMARK  11 active torsions:
REMARK  status: ('A' for Active; 'I' for Inactive)
REMARK    1  A    between atoms: N_4  and  C_16
REMARK    2  A    between atoms: N_6  and  C_27
REMARK    3  A    between atoms: C_8  and  C_12
REMARK    4  A    between atoms: C_9  and  C_16
REMARK    5  A    between atoms: C_11  and  C_15
REMARK    6  A    between atoms: C_12  and  C_17
REMARK    7  A    between atoms: C_12  and  C_18
REMARK    8  A    between atoms: C_13  and  C_19
REMARK    9  A    between atoms: C_15  and  C_20
REMARK   10  A    between atoms: C_27  and  C_29
REMARK   11  A    between atoms: C_27  and  C_30
REMARK                            x       y       z     vdW  Elec       q    Type
REMARK                         _______ _______ _______ _____ _____    ______ ____
ROOT
ATOM      8  C   UNL     1      -4.598   2.734  25.051  0.00  0.00    +0.000 C 
ATOM      9  C   UNL     1      -4.531   2.753  23.503  0.00  0.00    +0.032 C 
ATOM     10  C   UNL     1      -5.157   4.064  25.580  0.00  0.00    +0.012 C 
ATOM     11  C   UNL     1      -4.305   5.270  25.142  0.00  0.00    +0.023 C 
ATOM     13  C   UNL     1      -3.969   5.217  23.666  0.00  0.00    -0.073 C 
ATOM     14  C   UNL     1      -4.089   4.085  22.946  0.00  0.00    -0.022 C 
ATOM     19  C   UNL     1      -3.535   6.504  23.022  0.00  0.00    +0.039 C 
ENDROOT
BRANCH   8  12
ATOM     12  C   UNL     1      -5.448   1.571  25.570  0.00  0.00    -0.013 C 
ATOM     17  C   UNL     1      -6.099   1.938  26.900  0.00  0.00    +0.007 C 
ATOM     18  C   UNL     1      -6.506   1.184  24.540  0.00  0.00    +0.007 C 
ENDBRANCH   8  12
BRANCH  11  15
ATOM     15  C   UNL     1      -3.032   5.383  25.990  0.00  0.00    +0.103 C 
BRANCH  15  20
ATOM      1  O   UNL     1      -3.198   3.513  27.444  0.00  0.00    -0.276 OA
ATOM      3  N   UNL     1      -1.574   3.405  25.786  0.00  0.00    -0.298 N 
ATOM      5  N   UNL     1       0.433   1.952  24.290  0.00  0.00    -0.312 N 
ATOM      7  N   UNL     1       2.615   1.762  23.406  0.00  0.00    -0.240 NA
ATOM     20  C   UNL     1      -2.619   4.017  26.480  0.00  0.00    +0.216 C 
ATOM     21  C   UNL     1      -1.112   2.082  26.201  0.00  0.00    +0.126 C 
ATOM     22  C   UNL     1      -0.893   4.000  24.634  0.00  0.00    +0.126 C 
ATOM     23  C   UNL     1      -0.627   1.249  25.018  0.00  0.00    +0.125 C 
ATOM     24  C   UNL     1       0.497   3.412  24.399  0.00  0.00    +0.125 C 
ATOM     26  C   UNL     1       1.374   1.245  23.545  0.00  0.00    +0.121 A 
ATOM     28  C   UNL     1       0.967   0.043  22.988  0.00  0.00    +0.043 A 
ATOM     31  C   UNL     1       1.894  -0.675  22.240  0.00  0.00    +0.005 A 
ATOM     32  C   UNL     1       3.489   1.036  22.673  0.00  0.00    +0.113 A 
ATOM     33  C   UNL     1       3.182  -0.175  22.076  0.00  0.00    +0.020 A 
ENDBRANCH  15  20
ENDBRANCH  11  15
BRANCH   9  16
ATOM     16  C   UNL     1      -3.608   1.648  22.976  0.00  0.00    +0.113 C 
BRANCH  16   4
ATOM      2  O   UNL     1      -3.679  -1.235  23.076  0.00  0.00    -0.253 OA
ATOM      4  N   UNL     1      -3.156   0.813  24.044  0.00  0.00    -0.299 N 
ATOM      6  N   UNL     1      -2.715  -1.150  25.185  0.00  0.00    -0.297 N 
ATOM     25  C   UNL     1      -3.224  -0.586  24.018  0.00  0.00    +0.300 C 
ATOM     34  H   UNL     1      -2.698   1.248  24.838  0.00  0.00    +0.150 HD
ATOM     35  H   UNL     1      -2.435  -0.529  25.938  0.00  0.00    +0.150 HD
BRANCH   6  27
ATOM     27  C   UNL     1      -2.670  -2.575  25.412  0.00  0.00    +0.068 C 
ATOM     29  C   UNL     1      -1.312  -3.134  25.010  0.00  0.00    +0.027 C 
ATOM     30  C   UNL     1      -3.799  -3.271  24.660  0.00  0.00    +0.027 C 
ENDBRANCH   6  27
ENDBRANCH  16   4
ENDBRANCH   9  16
TORSDOF 6
ENDMDL
MODEL 4
REMARK VINA RESULT:       7.5      1.365      2.018
REMARK  Name = 38028914
REMARK  11 active torsions:
REMARK  status: ('A' for Active; 'I' for Inactive)
REMARK    1  A    between atoms: N_4  and  C_16
REMARK    2  A    between atoms: N_6  and  C_27
REMARK    3  A    between atoms: C_8  and  C_12
REMARK    4  A    between atoms: C_9  and  C_16
REMARK    5  A    between atoms: C_11  and  C_15
REMARK    6  A    between atoms: C_12  and  C_17
REMARK    7  A    between atoms: C_12  and  C_18
REMARK    8  A    between atoms: C_13  and  C_19
REMARK    9  A    between atoms: C_15  and  C_20
REMARK   10  A    between atoms: C_27  and  C_29
REMARK   11  A    between atoms: C_27  and  C_30
REMARK                            x       y       z     vdW  Elec       q    Type
REMARK                         _______ _______ _______ _____ _____    ______ ____
ROOT
ATOM      8  C   UNL     1      -4.243   2.275  24.467  0.00  0.00    +0.000 C 
ATOM      9  C   UNL     1      -3.224   2.309  25.633  0.00  0.00    +0.032 C 
ATOM     10  C   UNL     1      -5.393   1.307  24.787  0.00  0.00    +0.012 C 
ATOM     11  C   UNL     1      -4.893  -0.128  25.042  0.00  0.00    +0.023 C 
ATOM     13  C   UNL     1      -3.706  -0.153  25.982  0.00  0.00    -0.073 C 
ATOM     14  C   UNL     1      -2.980   0.950  26.245  0.00  0.00    -0.022 C 
ATOM     19  C   UNL     1      -3.399  -1.463  26.651  0.00  0.00    +0.039 C 
ENDROOT
BRANCH   8  12
ATOM     12  C   UNL     1      -4.805   3.666  24.161  0.00  0.00    -0.013 C 
ATOM     17  C   UNL     1      -5.423   4.278  25.415  0.00  0.00    +0.007 C 
ATOM     18  C   UNL     1      -3.712   4.571  23.602  0.00  0.00    +0.007 C 
ENDBRANCH   8  12
BRANCH  11  15
ATOM     15  C   UNL     1      -4.564  -0.839  23.724  0.00  0.00    +0.103 C 
BRANCH  15  20
ATOM      1  O   UNL     1      -3.610  -2.953  24.236  0.00  0.00    -0.276 OA
ATOM      3  N   UNL     1      -2.129  -1.231  23.742  0.00  0.00    -0.298 N 
ATOM      5  N   UNL     1       0.539  -0.261  23.180  0.00  0.00    -0.312 N 
ATOM      7  N   UNL     1       2.314   1.247  23.572  0.00  0.00    -0.240 NA
ATOM     20  C   UNL     1      -3.400  -1.778  23.924  0.00  0.00    +0.216 C 
ATOM     21  C   UNL     1      -0.950  -2.075  23.923  0.00  0.00    +0.126 C 
ATOM     22  C   UNL     1      -1.881   0.161  23.363  0.00  0.00    +0.126 C 
ATOM     23  C   UNL     1       0.189  -1.672  22.990  0.00  0.00    +0.125 C 
ATOM     24  C   UNL     1      -0.477   0.636  23.735  0.00  0.00    +0.125 C 
ATOM     26  C   UNL     1       1.817   0.201  22.873  0.00  0.00    +0.121 A 
ATOM     28  C   UNL     1       2.499  -0.448  21.857  0.00  0.00    +0.043 A 
ATOM     31  C   UNL     1       3.775   0.002  21.539  0.00  0.00    +0.005 A 
ATOM     32  C   UNL     1       3.558   1.656  23.234  0.00  0.00    +0.113 A 
ATOM     33  C   UNL     1       4.322   1.075  22.236  0.00  0.00    +0.020 A 
ENDBRANCH  15  20
ENDBRANCH  11  15
BRANCH   9  16
ATOM     16  C   UNL     1      -1.889   2.913  25.183  0.00  0.00    +0.113 C 
BRANCH  16   4
ATOM      2  O   UNL     1       0.123   1.285  26.458  0.00  0.00    -0.253 OA
ATOM      4  N   UNL     1      -1.086   3.265  26.312  0.00  0.00    -0.299 N 
ATOM      6  N   UNL     1       0.512   3.008  27.963  0.00  0.00    -0.297 N 
ATOM     25  C   UNL     1      -0.125   2.416  26.876  0.00  0.00    +0.300 C 
ATOM     34  H   UNL     1      -1.164   4.205  26.688  0.00  0.00    +0.150 HD
ATOM     35  H   UNL     1       0.183   3.915  28.281  0.00  0.00    +0.150 HD
BRANCH   6  27
ATOM     27  C   UNL     1       1.544   2.343  28.724  0.00  0.00    +0.068 C 
ATOM     29  C   UNL     1       1.149   2.257  30.192  0.00  0.00    +0.027 C 
ATOM     30  C   UNL     1       2.879   3.056  28.551  0.00  0.00    +0.027 C 
ENDBRANCH   6  27
ENDBRANCH  16   4
ENDBRANCH   9  16
TORSDOF 6
ENDMDL
MODEL 5
REMARK VINA RESULT:       7.7      2.429      5.637
REMARK  Name = 38028914
REMARK  11 active torsions:
REMARK  status: ('A' for Active; 'I' for Inactive)
REMARK    1  A    between atoms: N_4  and  C_16
REMARK    2  A    between atoms: N_6  and  C_27
REMARK    3  A    between atoms: C_8  and  C_12
REMARK    4  A    between atoms: C_9  and  C_16
REMARK    5  A    between atoms: C_11  and  C_15
REMARK    6  A    between atoms: C_12  and  C_17
REMARK    7  A    between atoms: C_12  and  C_18
REMARK    8  A    between atoms: C_13  and  C_19
REMARK    9  A    between atoms: C_15  and  C_20
REMARK   10  A    between atoms: C_27  and  C_29
REMARK   11  A    between atoms: C_27  and  C_30
REMARK                            x       y       z     vdW  Elec       q    Type
REMARK                         _______ _______ _______ _____ _____    ______ ____
ROOT
ATOM      8  C   UNL     1      -2.519   2.932  23.462  0.00  0.00    +0.000 C 
ATOM      9  C   UNL     1      -0.994   2.864  23.201  0.00  0.00    +0.032 C 
ATOM     10  C   UNL     1      -2.976   4.393  23.602  0.00  0.00    +0.012 C 
ATOM     11  C   UNL     1      -2.251   5.123  24.748  0.00  0.00    +0.023 C 
ATOM     13  C   UNL     1      -0.756   4.881  24.714  0.00  0.00    -0.073 C 
ATOM     14  C   UNL     1      -0.211   3.875  24.005  0.00  0.00    -0.022 C 
ATOM     19  C   UNL     1       0.105   5.851  25.474  0.00  0.00    +0.039 C 
ENDROOT
BRANCH   8  12
ATOM     12  C   UNL     1      -3.318   2.242  22.353  0.00  0.00    -0.013 C 
ATOM     17  C   UNL     1      -4.251   3.238  21.670  0.00  0.00    +0.007 C 
ATOM     18  C   UNL     1      -2.375   1.602  21.338  0.00  0.00    +0.007 C 
ENDBRANCH   8  12
BRANCH  11  15
ATOM     15  C   UNL     1      -2.838   4.732  26.110  0.00  0.00    +0.103 C 
BRANCH  15  20
ATOM      1  O   UNL     1      -5.204   4.617  25.942  0.00  0.00    -0.276 OA
ATOM      3  N   UNL     1      -4.043   2.617  25.714  0.00  0.00    -0.298 N 
ATOM      5  N   UNL     1      -3.948  -0.204  25.076  0.00  0.00    -0.312 N 
ATOM      7  N   UNL     1      -3.331  -2.422  25.605  0.00  0.00    -0.240 NA
ATOM     20  C   UNL     1      -4.140   3.995  25.914  0.00  0.00    +0.216 C 
ATOM     21  C   UNL     1      -5.259   1.830  25.521  0.00  0.00    +0.126 C 
ATOM     22  C   UNL     1      -2.778   1.881  25.671  0.00  0.00    +0.126 C 
ATOM     23  C   UNL     1      -5.033   0.649  24.582  0.00  0.00    +0.125 C 
ATOM     24  C   UNL     1      -2.949   0.392  25.967  0.00  0.00    +0.125 C 
ATOM     26  C   UNL     1      -3.894  -1.554  24.734  0.00  0.00    +0.121 A 
ATOM     28  C   UNL     1      -4.425  -1.919  23.508  0.00  0.00    +0.043 A 
ATOM     31  C   UNL     1      -4.377  -3.262  23.152  0.00  0.00    +0.005 A 
ATOM     32  C   UNL     1      -3.303  -3.719  25.225  0.00  0.00    +0.113 A 
ATOM     33  C   UNL     1      -3.808  -4.186  24.022  0.00  0.00    +0.020 A 
ENDBRANCH  15  20
ENDBRANCH  11  15
BRANCH   9  16
ATOM     16  C   UNL     1      -0.447   1.459  23.476  0.00  0.00    +0.113 C 
BRANCH  16   4
ATOM      2  O   UNL     1       1.520  -0.392  22.461  0.00  0.00    -0.253 OA
ATOM      4  N   UNL     1       0.964   1.498  23.696  0.00  0.00    -0.299 N 
ATOM      6  N   UNL     1       3.173   0.833  23.534  0.00  0.00    -0.297 N 
ATOM     25  C   UNL     1       1.859   0.558  23.166  0.00  0.00    +0.300 C 
ATOM     34  H   UNL     1       1.353   2.284  24.206  0.00  0.00    +0.150 HD
ATOM     35  H   UNL     1       3.343   1.595  24.184  0.00  0.00    +0.150 HD
BRANCH   6  27
ATOM     27  C   UNL     1       4.289   0.015  23.121  0.00  0.00    +0.068 C 
ATOM     29  C   UNL     1       4.169  -1.384  23.711  0.00  0.00    +0.027 C 
ATOM     30  C   UNL     1       5.607   0.670  23.515  0.00  0.00    +0.027 C 
ENDBRANCH   6  27
ENDBRANCH  16   4
ENDBRANCH   9  16
TORSDOF 6
ENDMDL
MODEL 6
REMARK VINA RESULT:       8.5      1.650      2.518
REMARK  Name = 38028914
REMARK  11 active torsions:
REMARK  status: ('A' for Active; 'I' for Inactive)
REMARK    1  A    between atoms: N_4  and  C_16
REMARK    2  A    between atoms: N_6  and  C_27
REMARK    3  A    between atoms: C_8  and  C_12
REMARK    4  A    between atoms: C_9  and  C_16
REMARK    5  A    between atoms: C_11  and  C_15
REMARK    6  A    between atoms: C_12  and  C_17
REMARK    7  A    between atoms: C_12  and  C_18
REMARK    8  A    between atoms: C_13  and  C_19
REMARK    9  A    between atoms: C_15  and  C_20
REMARK   10  A    between atoms: C_27  and  C_29
REMARK   11  A    between atoms: C_27  and  C_30
REMARK                            x       y       z     vdW  Elec       q    Type
REMARK                         _______ _______ _______ _____ _____    ______ ____
ROOT
ATOM      8  C   UNL     1      -3.103   0.762  24.281  0.00  0.00    +0.000 C 
ATOM      9  C   UNL     1      -2.135   1.389  25.315  0.00  0.00    +0.032 C 
ATOM     10  C   UNL     1      -4.221  -0.015  24.995  0.00  0.00    +0.012 C 
ATOM     11  C   UNL     1      -3.669  -1.139  25.891  0.00  0.00    +0.023 C 
ATOM     13  C   UNL     1      -2.520  -0.659  26.755  0.00  0.00    -0.073 C 
ATOM     14  C   UNL     1      -1.855   0.481  26.490  0.00  0.00    -0.022 C 
ATOM     19  C   UNL     1      -2.182  -1.494  27.958  0.00  0.00    +0.039 C 
ENDROOT
BRANCH   8  12
ATOM     12  C   UNL     1      -3.715   1.822  23.360  0.00  0.00    -0.013 C 
ATOM     17  C   UNL     1      -3.947   3.122  24.122  0.00  0.00    +0.007 C 
ATOM     18  C   UNL     1      -2.814   2.058  22.151  0.00  0.00    +0.007 C 
ENDBRANCH   8  12
BRANCH  11  15
ATOM     15  C   UNL     1      -3.255  -2.357  25.056  0.00  0.00    +0.103 C 
BRANCH  15  20
ATOM      1  O   UNL     1      -3.461  -1.774  22.763  0.00  0.00    -0.276 OA
ATOM      3  N   UNL     1      -1.329  -1.661  23.682  0.00  0.00    -0.298 N 
ATOM      5  N   UNL     1       1.464  -0.921  23.529  0.00  0.00    -0.312 N 
ATOM      7  N   UNL     1       3.756  -1.447  23.754  0.00  0.00    -0.240 NA
ATOM     20  C   UNL     1      -2.703  -1.904  23.727  0.00  0.00    +0.216 C 
ATOM     21  C   UNL     1      -0.717  -1.223  22.430  0.00  0.00    +0.126 C 
ATOM     22  C   UNL     1      -0.432  -1.805  24.830  0.00  0.00    +0.126 C 
ATOM     23  C   UNL     1       0.463  -0.285  22.668  0.00  0.00    +0.125 C 
ATOM     24  C   UNL     1       1.027  -1.998  24.420  0.00  0.00    +0.125 C 
ATOM     26  C   UNL     1       2.801  -0.532  23.472  0.00  0.00    +0.121 A 
ATOM     28  C   UNL     1       3.065   0.783  23.126  0.00  0.00    +0.043 A 
ATOM     31  C   UNL     1       4.394   1.186  23.065  0.00  0.00    +0.005 A 
ATOM     32  C   UNL     1       5.036  -1.019  23.684  0.00  0.00    +0.113 A 
ATOM     33  C   UNL     1       5.405   0.274  23.348  0.00  0.00    +0.020 A 
ENDBRANCH  15  20
ENDBRANCH  11  15
BRANCH   9  16
ATOM     16  C   UNL     1      -0.811   1.795  24.657  0.00  0.00    +0.113 C 
BRANCH  16   4
ATOM      2  O   UNL     1      -0.533   3.395  27.042  0.00  0.00    -0.253 OA
ATOM      4  N   UNL     1       0.260   1.750  25.603  0.00  0.00    -0.299 N 
ATOM      6  N   UNL     1       1.471   2.314  27.491  0.00  0.00    -0.297 N 
ATOM     25  C   UNL     1       0.324   2.563  26.743  0.00  0.00    +0.300 C 
ATOM     34  H   UNL     1       0.982   1.047  25.485  0.00  0.00    +0.150 HD
ATOM     35  H   UNL     1       2.157   1.664  27.120  0.00  0.00    +0.150 HD
BRANCH   6  27
ATOM     27  C   UNL     1       1.777   3.020  28.713  0.00  0.00    +0.068 C 
ATOM     29  C   UNL     1       3.277   3.256  28.826  0.00  0.00    +0.027 C 
ATOM     30  C   UNL     1       1.245   2.256  29.919  0.00  0.00    +0.027 C 
ENDBRANCH   6  27
ENDBRANCH  16   4
ENDBRANCH   9  16
TORSDOF 6
ENDMDL
