MODEL 1
REMARK VINA RESULT:      10.4      0.000      0.000
REMARK  Name = 40587816
REMARK  4 active torsions:
REMARK  status: ('A' for Active; 'I' for Inactive)
REMARK    1  A    between atoms: S_1  and  C_27
REMARK    2  A    between atoms: S_1  and  C_31
REMARK    3  A    between atoms: N_6  and  C_20
REMARK    4  A    between atoms: C_17  and  C_19
REMARK                            x       y       z     vdW  Elec       q    Type
REMARK                         _______ _______ _______ _____ _____    ______ ____
ROOT
ATOM      2  O   UNL     1       0.611   1.652  26.084  0.00  0.00    -0.267 OA
ATOM      3  O   UNL     1      -4.343   1.611  23.058  0.00  0.00    -0.252 OA
ATOM      4  N   UNL     1      -4.089   2.975  24.911  0.00  0.00    -0.284 N 
ATOM      5  N   UNL     1      -0.934   3.234  25.343  0.00  0.00    -0.311 N 
ATOM      6  N   UNL     1      -4.556   0.676  25.170  0.00  0.00    -0.269 N 
ATOM      7  C   UNL     1      -2.862   4.065  26.805  0.00  0.00    +0.027 C 
ATOM      8  C   UNL     1      -2.602   4.934  24.522  0.00  0.00    +0.054 C 
ATOM      9  C   UNL     1      -2.758   5.344  25.984  0.00  0.00    +0.018 C 
ATOM     10  C   UNL     1      -1.544   3.291  26.678  0.00  0.00    +0.130 C 
ATOM     11  C   UNL     1      -4.072   3.218  26.362  0.00  0.00    +0.114 C 
ATOM     12  C   UNL     1      -3.857   4.161  24.079  0.00  0.00    +0.119 C 
ATOM     13  C   UNL     1      -1.370   4.074  24.315  0.00  0.00    +0.027 A 
ATOM     14  C   UNL     1      -0.720   4.093  23.140  0.00  0.00    +0.022 A 
ATOM     15  C   UNL     1       0.175   2.379  25.190  0.00  0.00    +0.259 A 
ATOM     16  C   UNL     1      -4.325   1.729  24.285  0.00  0.00    +0.306 C 
ATOM     17  C   UNL     1       0.857   2.392  23.848  0.00  0.00    +0.047 A 
ATOM     18  C   UNL     1       0.406   3.234  22.906  0.00  0.00    +0.015 A 
ATOM     32  H   UNL     1      -5.000   0.886  26.058  0.00  0.00    +0.156 HD
ENDROOT
BRANCH  17  19
ATOM     19  C   UNL     1       1.992   1.498  23.560  0.00  0.00    -0.013 A 
ATOM     21  C   UNL     1       3.249   2.034  23.284  0.00  0.00    +0.010 A 
ATOM     22  C   UNL     1       1.809   0.115  23.566  0.00  0.00    +0.010 A 
ATOM     23  C   UNL     1       4.325   1.187  23.013  0.00  0.00    +0.015 A 
ATOM     24  C   UNL     1       2.883  -0.732  23.295  0.00  0.00    +0.015 A 
ATOM     27  C   UNL     1       4.141  -0.196  23.019  0.00  0.00    +0.008 A 
BRANCH  27   1
ATOM      1  S   UNL     1       5.515  -1.277  22.672  0.00  0.00    -0.129 S 
ATOM     31  C   UNL     1       6.919  -0.287  23.258  0.00  0.00    +0.090 C 
ENDBRANCH  27   1
ENDBRANCH  17  19
BRANCH   6  20
ATOM     20  C   UNL     1      -4.251  -0.693  24.968  0.00  0.00    +0.035 A 
ATOM     25  C   UNL     1      -3.506  -1.387  25.922  0.00  0.00    +0.023 A 
ATOM     26  C   UNL     1      -4.695  -1.345  23.819  0.00  0.00    +0.023 A 
ATOM     28  C   UNL     1      -3.206  -2.735  25.725  0.00  0.00    +0.002 A 
ATOM     29  C   UNL     1      -4.394  -2.693  23.621  0.00  0.00    +0.002 A 
ATOM     30  C   UNL     1      -3.649  -3.388  24.575  0.00  0.00    +0.000 A 
ENDBRANCH   6  20
TORSDOF 3
ENDMDL
