MODEL 1
REMARK VINA RESULT:      -1.2      0.000      0.000
REMARK  Name = 45360769
REMARK  12 active torsions:
REMARK  status: ('A' for Active; 'I' for Inactive)
REMARK    1  A    between atoms: O_3  and  C_24
REMARK    2  A    between atoms: O_3  and  C_30
REMARK    3  A    between atoms: N_6  and  C_11
REMARK    4  A    between atoms: N_6  and  C_21
REMARK    5  A    between atoms: N_8  and  C_31
REMARK    6  A    between atoms: N_8  and  C_32
REMARK    7  A    between atoms: N_8  and  C_33
REMARK    8  A    between atoms: C_10  and  C_15
REMARK    9  A    between atoms: C_15  and  C_17
REMARK   10  A    between atoms: C_17  and  C_19
REMARK   11  A    between atoms: C_18  and  C_24
REMARK   12  A    between atoms: C_21  and  C_25
REMARK                            x       y       z     vdW  Elec       q    Type
REMARK                         _______ _______ _______ _____ _____    ______ ____
ROOT
ATOM      1  O   UNL     1      16.243 -10.761  24.699  0.00  0.00    -0.274 OA
ATOM      4  N   UNL     1      16.628  -8.356  27.418  0.00  0.00    -0.286 NA
ATOM      5  N   UNL     1      15.640  -8.571  24.801  0.00  0.00    -0.313 N 
ATOM      9  C   UNL     1      16.943  -9.578  26.668  0.00  0.00    +0.145 C 
ATOM     10  C   UNL     1      16.528  -7.155  26.596  0.00  0.00    +0.075 C 
ATOM     11  C   UNL     1      15.946 -10.028  28.836  0.00  0.00    +0.070 C 
ATOM     12  C   UNL     1      16.527 -10.724  27.605  0.00  0.00    +0.048 C 
ATOM     13  C   UNL     1      15.508  -8.670  28.303  0.00  0.00    +0.104 C 
ATOM     14  C   UNL     1      15.474  -7.326  25.514  0.00  0.00    +0.123 C 
ATOM     16  C   UNL     1      16.231  -9.696  25.324  0.00  0.00    +0.230 C 
ATOM     34  H   UNL     1      15.188  -8.656  23.895  0.00  0.00    +0.149 HD
ENDROOT
BRANCH  11   6
ATOM      6  N   UNL     1      14.870 -10.780  29.460  0.00  0.00    -0.308 NA
ATOM     35  H   UNL     1      13.981 -10.488  29.054  0.00  0.00    +0.123 HD
BRANCH   6  21
ATOM     21  C   UNL     1      14.833 -10.544  30.899  0.00  0.00    +0.116 C 
BRANCH  21  25
ATOM     25  C   UNL     1      14.414  -9.135  31.225  0.00  0.00    -0.033 A 
ATOM     26  C   UNL     1      13.083  -8.750  31.068  0.00  0.00    +0.007 A 
ATOM     27  C   UNL     1      15.357  -8.215  31.682  0.00  0.00    +0.007 A 
ATOM     28  C   UNL     1      12.695  -7.444  31.369  0.00  0.00    +0.023 A 
ATOM     29  C   UNL     1      14.969  -6.909  31.984  0.00  0.00    +0.023 A 
ATOM     31  C   UNL     1      13.638  -6.524  31.827  0.00  0.00    +0.029 A 
BRANCH  31   8
ATOM      8  N   UNL     1      13.245  -5.204  32.133  0.00  0.00    -0.336 N 
ATOM     32  C   UNL     1      14.142  -4.318  32.849  0.00  0.00    +0.129 C 
ATOM     33  C   UNL     1      11.942  -4.715  31.727  0.00  0.00    +0.129 C 
ENDBRANCH  31   8
ENDBRANCH  21  25
ENDBRANCH   6  21
ENDBRANCH  11   6
BRANCH  10  15
ATOM     15  C   UNL     1      16.271  -5.892  27.420  0.00  0.00    +0.029 C 
BRANCH  15  17
ATOM     17  C   UNL     1      17.402  -4.882  27.305  0.00  0.00    +0.097 C 
BRANCH  17  19
ATOM      2  O   UNL     1      16.717  -2.608  27.140  0.00  0.00    -0.276 OA
ATOM      7  N   UNL     1      16.865  -3.812  25.169  0.00  0.00    -0.296 N 
ATOM     18  C   UNL     1      16.360  -2.755  24.290  0.00  0.00    +0.102 C 
ATOM     19  C   UNL     1      16.961  -3.658  26.543  0.00  0.00    +0.216 C 
ATOM     20  C   UNL     1      16.022  -3.492  22.992  0.00  0.00    +0.026 C 
ATOM     22  C   UNL     1      17.144  -5.035  24.420  0.00  0.00    +0.108 C 
ATOM     23  C   UNL     1      17.035  -4.630  22.958  0.00  0.00    +0.021 C 
BRANCH  18  24
ATOM     24  C   UNL     1      17.404  -1.661  24.076  0.00  0.00    +0.181 C 
BRANCH  24   3
ATOM      3  O   UNL     1      17.151  -1.036  22.832  0.00  0.00    -0.381 OA
ATOM     30  C   UNL     1      15.978  -0.231  22.875  0.00  0.00    +0.194 C 
ENDBRANCH  24   3
ENDBRANCH  18  24
ENDBRANCH  17  19
ENDBRANCH  15  17
ENDBRANCH  10  15
TORSDOF 9
ENDMDL
