MODEL 1
REMARK VINA RESULT:      -1.5      0.000      0.000
REMARK  Name = 45783587
REMARK  6 active torsions:
REMARK  status: ('A' for Active; 'I' for Inactive)
REMARK    1  A    between atoms: O_1  and  C_12
REMARK    2  A    between atoms: O_1  and  C_22
REMARK    3  A    between atoms: N_3  and  C_15
REMARK    4  A    between atoms: C_8  and  C_19
REMARK    5  A    between atoms: C_15  and  C_20
REMARK    6  A    between atoms: C_21  and  C_25
REMARK                            x       y       z     vdW  Elec       q    Type
REMARK                         _______ _______ _______ _____ _____    ______ ____
ROOT
ATOM      2  O   UNL     1      -2.927 -10.597  13.573  0.00  0.00    -0.336 OA
ATOM      4  N   UNL     1      -4.713 -10.394  12.237  0.00  0.00    -0.190 NA
ATOM      5  N   UNL     1      -4.050 -10.711  14.404  0.00  0.00    -0.056 NA
ATOM     19  C   UNL     1      -3.406 -10.412  12.316  0.00  0.00    +0.245 A 
ATOM     21  C   UNL     1      -5.063 -10.580  13.543  0.00  0.00    +0.204 A 
ENDROOT
BRANCH  21  25
ATOM      6  N   UNL     1      -8.052 -10.732  15.748  0.00  0.00    -0.221 NA
ATOM     22  C   UNL     1      -9.025 -10.730  14.809  0.00  0.00    +0.215 A 
ATOM     25  C   UNL     1      -6.435 -10.630  13.953  0.00  0.00    +0.041 A 
ATOM     26  C   UNL     1      -8.785 -10.682  13.445  0.00  0.00    +0.068 A 
ATOM     27  C   UNL     1      -7.464 -10.631  13.017  0.00  0.00    +0.018 A 
ATOM     28  C   UNL     1      -6.780 -10.682  15.295  0.00  0.00    +0.126 A 
BRANCH  22   1
ATOM      1  O   UNL     1     -10.318 -10.781  15.255  0.00  0.00    -0.473 OA
BRANCH   1  12
ATOM     12  C   UNL     1     -10.720  -9.767  16.172  0.00  0.00    +0.175 C 
ATOM     13  C   UNL     1     -10.356  -8.395  15.609  0.00  0.00    +0.044 C 
ATOM     14  C   UNL     1     -10.061 -10.012  17.528  0.00  0.00    +0.044 C 
ATOM     16  C   UNL     1     -10.678  -7.279  16.598  0.00  0.00    +0.004 C 
ATOM     17  C   UNL     1     -10.383  -8.898  18.518  0.00  0.00    +0.004 C 
ATOM     18  C   UNL     1     -10.022  -7.525  17.956  0.00  0.00    +0.000 C 
ENDBRANCH   1  12
ENDBRANCH  22   1
ENDBRANCH  21  25
BRANCH  19   8
ATOM      3  N   UNL     1      -2.822  -9.351  10.141  0.00  0.00    -0.287 NA
ATOM      8  C   UNL     1      -2.375 -10.259  11.216  0.00  0.00    +0.146 C 
ATOM      9  C   UNL     1      -1.054  -9.649  11.721  0.00  0.00    +0.030 C 
ATOM     10  C   UNL     1      -0.810  -8.439  10.830  0.00  0.00    +0.017 C 
ATOM     11  C   UNL     1      -1.613  -8.746   9.582  0.00  0.00    +0.085 C 
BRANCH   3  15
ATOM     15  C   UNL     1      -3.623 -10.016   9.123  0.00  0.00    +0.121 C 
BRANCH  15  20
ATOM      7  N   UNL     1      -7.321  -9.690   8.377  0.00  0.00    -0.263 NA
ATOM     20  C   UNL     1      -5.007  -9.428   9.025  0.00  0.00    -0.015 A 
ATOM     23  C   UNL     1      -5.268  -8.137   9.468  0.00  0.00    +0.008 A 
ATOM     24  C   UNL     1      -6.057 -10.157   8.493  0.00  0.00    +0.115 A 
ATOM     29  C   UNL     1      -6.556  -7.620   9.365  0.00  0.00    +0.020 A 
ATOM     30  C   UNL     1      -7.538  -8.430   8.817  0.00  0.00    +0.111 A 
ENDBRANCH  15  20
ENDBRANCH   3  15
ENDBRANCH  19   8
TORSDOF 6
ENDMDL
MODEL 2
REMARK VINA RESULT:       1.0     14.648     18.214
REMARK  Name = 45783587
REMARK  6 active torsions:
REMARK  status: ('A' for Active; 'I' for Inactive)
REMARK    1  A    between atoms: O_1  and  C_12
REMARK    2  A    between atoms: O_1  and  C_22
REMARK    3  A    between atoms: N_3  and  C_15
REMARK    4  A    between atoms: C_8  and  C_19
REMARK    5  A    between atoms: C_15  and  C_20
REMARK    6  A    between atoms: C_21  and  C_25
REMARK                            x       y       z     vdW  Elec       q    Type
REMARK                         _______ _______ _______ _____ _____    ______ ____
ROOT
ATOM      2  O   UNL     1      -2.300   2.806  25.641  0.00  0.00    -0.336 OA
ATOM      4  N   UNL     1      -2.305   1.661  23.717  0.00  0.00    -0.190 NA
ATOM      5  N   UNL     1      -0.963   2.478  25.380  0.00  0.00    -0.056 NA
ATOM     19  C   UNL     1      -3.022   2.288  24.615  0.00  0.00    +0.245 A 
ATOM     21  C   UNL     1      -1.049   1.803  24.229  0.00  0.00    +0.204 A 
ENDROOT
BRANCH  21  25
ATOM      6  N   UNL     1       2.451   1.431  23.034  0.00  0.00    -0.221 NA
ATOM     22  C   UNL     1       2.329   0.282  22.332  0.00  0.00    +0.215 A 
ATOM     25  C   UNL     1       0.100   1.259  23.568  0.00  0.00    +0.041 A 
ATOM     26  C   UNL     1       1.144  -0.425  22.203  0.00  0.00    +0.068 A 
ATOM     27  C   UNL     1       0.013   0.079  22.836  0.00  0.00    +0.018 A 
ATOM     28  C   UNL     1       1.332   1.891  23.635  0.00  0.00    +0.126 A 
BRANCH  22   1
ATOM      1  O   UNL     1       3.456  -0.194  21.718  0.00  0.00    -0.473 OA
BRANCH   1  12
ATOM     12  C   UNL     1       4.615  -0.340  22.532  0.00  0.00    +0.175 C 
ATOM     13  C   UNL     1       4.381  -1.440  23.565  0.00  0.00    +0.044 C 
ATOM     14  C   UNL     1       4.946   0.996  23.198  0.00  0.00    +0.044 C 
ATOM     16  C   UNL     1       5.560  -1.569  24.525  0.00  0.00    +0.004 C 
ATOM     17  C   UNL     1       6.124   0.867  24.158  0.00  0.00    +0.004 C 
ATOM     18  C   UNL     1       5.892  -0.234  25.189  0.00  0.00    +0.000 C 
ENDBRANCH   1  12
ENDBRANCH  22   1
ENDBRANCH  21  25
BRANCH  19   8
ATOM      3  N   UNL     1      -5.225   1.467  25.434  0.00  0.00    -0.287 NA
ATOM      8  C   UNL     1      -4.520   2.511  24.663  0.00  0.00    +0.146 C 
ATOM      9  C   UNL     1      -4.902   3.833  25.354  0.00  0.00    +0.030 C 
ATOM     10  C   UNL     1      -5.871   3.439  26.460  0.00  0.00    +0.017 C 
ATOM     11  C   UNL     1      -6.417   2.103  25.997  0.00  0.00    +0.085 C 
BRANCH   3  15
ATOM     15  C   UNL     1      -5.555   0.291  24.641  0.00  0.00    +0.121 C 
BRANCH  15  20
ATOM      7  N   UNL     1      -2.527  -1.637  25.845  0.00  0.00    -0.263 NA
ATOM     20  C   UNL     1      -4.476  -0.758  24.718  0.00  0.00    -0.015 A 
ATOM     23  C   UNL     1      -4.411  -1.786  23.785  0.00  0.00    +0.008 A 
ATOM     24  C   UNL     1      -3.520  -0.728  25.719  0.00  0.00    +0.115 A 
ATOM     29  C   UNL     1      -3.403  -2.741  23.881  0.00  0.00    +0.020 A 
ATOM     30  C   UNL     1      -2.494  -2.622  24.920  0.00  0.00    +0.111 A 
ENDBRANCH  15  20
ENDBRANCH   3  15
ENDBRANCH  19   8
TORSDOF 6
ENDMDL
