MODEL 1
REMARK VINA RESULT:       1.4      0.000      0.000
REMARK  Name = 25389521
REMARK  9 active torsions:
REMARK  status: ('A' for Active; 'I' for Inactive)
REMARK    1  A    between atoms: O_1  and  C_15
REMARK    2  A    between atoms: O_1  and  C_20
REMARK    3  A    between atoms: N_4  and  C_18
REMARK    4  A    between atoms: N_6  and  C_25
REMARK    5  A    between atoms: C_8  and  C_14
REMARK    6  A    between atoms: C_9  and  C_15
REMARK    7  A    between atoms: C_17  and  C_19
REMARK    8  A    between atoms: C_25  and  C_27
REMARK    9  A    between atoms: C_27  and  C_32
REMARK                            x       y       z     vdW  Elec       q    Type
REMARK                         _______ _______ _______ _____ _____    ______ ____
ROOT
ATOM      3  N   UNL     1      -5.075   2.279  26.135  0.00  0.00    -0.296 NA
ATOM      7  C   UNL     1      -4.612   1.555  23.677  0.00  0.00    +0.002 C 
ATOM      8  C   UNL     1      -3.955   0.558  24.670  0.00  0.00    +0.055 C 
ATOM      9  C   UNL     1      -4.558   3.434  25.355  0.00  0.00    +0.095 C 
ATOM     10  C   UNL     1      -4.084   2.978  23.959  0.00  0.00    +0.026 C 
ATOM     11  C   UNL     1      -6.124   1.563  23.989  0.00  0.00    +0.019 C 
ATOM     12  C   UNL     1      -4.100   1.161  26.098  0.00  0.00    +0.094 C 
ATOM     13  C   UNL     1      -6.330   1.821  25.492  0.00  0.00    +0.085 C 
ENDROOT
BRANCH   8  14
ATOM      4  N   UNL     1      -2.189  -1.228  24.303  0.00  0.00    -0.270 N 
ATOM      5  N   UNL     1      -0.888  -1.433  24.043  0.00  0.00    -0.171 NA
ATOM     14  C   UNL     1      -2.535   0.089  24.384  0.00  0.00    +0.044 A 
ATOM     16  C   UNL     1      -1.378   0.795  24.162  0.00  0.00    +0.053 A 
ATOM     17  C   UNL     1      -0.397  -0.193  23.957  0.00  0.00    +0.093 A 
ATOM     18  C   UNL     1      -3.064  -2.367  24.468  0.00  0.00    +0.172 C 
BRANCH  17  19
ATOM     19  C   UNL     1       0.999   0.024  23.684  0.00  0.00    +0.003 A 
ATOM     21  C   UNL     1       1.925  -0.989  23.941  0.00  0.00    +0.018 A 
ATOM     22  C   UNL     1       1.427   1.242  23.165  0.00  0.00    +0.011 A 
ATOM     23  C   UNL     1       3.292  -0.794  23.679  0.00  0.00    -0.017 A 
ATOM     24  C   UNL     1       2.780   1.453  22.898  0.00  0.00    +0.009 A 
ATOM     26  C   UNL     1       3.725   0.445  23.150  0.00  0.00    -0.018 A 
ATOM     28  C   UNL     1       4.237  -1.802  23.931  0.00  0.00    +0.008 A 
ATOM     29  C   UNL     1       5.091   0.641  22.889  0.00  0.00    +0.008 A 
ATOM     30  C   UNL     1       5.590  -1.591  23.665  0.00  0.00    +0.001 A 
ATOM     31  C   UNL     1       6.016  -0.372  23.145  0.00  0.00    +0.001 A 
ENDBRANCH  17  19
ENDBRANCH   8  14
BRANCH   9  15
ATOM     15  C   UNL     1      -3.468   4.203  26.106  0.00  0.00    +0.252 C 
BRANCH  15   1
ATOM      1  O   UNL     1      -2.595   4.780  25.155  0.00  0.00    -0.449 OA
BRANCH   1  20
ATOM      2  O   UNL     1      -0.360   5.038  24.688  0.00  0.00    -0.226 OA
ATOM      6  N   UNL     1      -1.117   3.336  26.072  0.00  0.00    -0.281 N 
ATOM     20  C   UNL     1      -1.267   4.437  25.255  0.00  0.00    +0.400 C 
ATOM     33  H   UNL     1      -1.951   2.931  26.485  0.00  0.00    +0.152 HD
BRANCH   6  25
ATOM     25  C   UNL     1       0.159   2.731  26.376  0.00  0.00    +0.107 C 
BRANCH  25  27
ATOM     27  C   UNL     1       0.279   2.336  27.843  0.00  0.00    +0.015 C 
ATOM     32  C   UNL     1       1.629   2.704  28.443  0.00  0.00    +0.005 C 
ENDBRANCH  25  27
ENDBRANCH   6  25
ENDBRANCH   1  20
ENDBRANCH  15   1
ENDBRANCH   9  15
TORSDOF 7
ENDMDL
MODEL 2
REMARK VINA RESULT:       3.9      2.261      3.716
REMARK  Name = 25389521
REMARK  9 active torsions:
REMARK  status: ('A' for Active; 'I' for Inactive)
REMARK    1  A    between atoms: O_1  and  C_15
REMARK    2  A    between atoms: O_1  and  C_20
REMARK    3  A    between atoms: N_4  and  C_18
REMARK    4  A    between atoms: N_6  and  C_25
REMARK    5  A    between atoms: C_8  and  C_14
REMARK    6  A    between atoms: C_9  and  C_15
REMARK    7  A    between atoms: C_17  and  C_19
REMARK    8  A    between atoms: C_25  and  C_27
REMARK    9  A    between atoms: C_27  and  C_32
REMARK                            x       y       z     vdW  Elec       q    Type
REMARK                         _______ _______ _______ _____ _____    ______ ____
ROOT
ATOM      3  N   UNL     1      -5.014   3.817  24.664  0.00  0.00    -0.296 NA
ATOM      7  C   UNL     1      -2.762   3.661  25.963  0.00  0.00    +0.002 C 
ATOM      8  C   UNL     1      -2.510   3.622  24.431  0.00  0.00    +0.055 C 
ATOM      9  C   UNL     1      -5.104   2.767  25.712  0.00  0.00    +0.095 C 
ATOM     10  C   UNL     1      -3.722   2.516  26.351  0.00  0.00    +0.026 C 
ATOM     11  C   UNL     1      -3.496   4.988  26.259  0.00  0.00    +0.019 C 
ATOM     12  C   UNL     1      -3.898   3.515  23.734  0.00  0.00    +0.094 C 
ATOM     13  C   UNL     1      -4.722   5.106  25.336  0.00  0.00    +0.085 C 
ENDROOT
BRANCH   8  14
ATOM      4  N   UNL     1      -1.701   1.929  22.721  0.00  0.00    -0.270 N 
ATOM      5  N   UNL     1      -0.709   1.075  22.423  0.00  0.00    -0.171 NA
ATOM     14  C   UNL     1      -1.515   2.604  23.893  0.00  0.00    +0.044 A 
ATOM     16  C   UNL     1      -0.317   2.158  24.395  0.00  0.00    +0.053 A 
ATOM     17  C   UNL     1       0.134   1.219  23.449  0.00  0.00    +0.093 A 
ATOM     18  C   UNL     1      -2.824   2.050  21.819  0.00  0.00    +0.172 C 
BRANCH  17  19
ATOM     19  C   UNL     1       1.353   0.456  23.507  0.00  0.00    +0.003 A 
ATOM     21  C   UNL     1       2.585   1.100  23.389  0.00  0.00    +0.018 A 
ATOM     22  C   UNL     1       1.304  -0.924  23.681  0.00  0.00    +0.011 A 
ATOM     23  C   UNL     1       3.784   0.371  23.443  0.00  0.00    -0.017 A 
ATOM     24  C   UNL     1       2.484  -1.665  23.738  0.00  0.00    +0.009 A 
ATOM     26  C   UNL     1       3.733  -1.033  23.621  0.00  0.00    -0.018 A 
ATOM     28  C   UNL     1       5.033   1.003  23.326  0.00  0.00    +0.008 A 
ATOM     29  C   UNL     1       4.932  -1.763  23.675  0.00  0.00    +0.008 A 
ATOM     30  C   UNL     1       6.214   0.262  23.383  0.00  0.00    +0.001 A 
ATOM     31  C   UNL     1       6.163  -1.117  23.557  0.00  0.00    +0.001 A 
ENDBRANCH  17  19
ENDBRANCH   8  14
BRANCH   9  15
ATOM     15  C   UNL     1      -5.734   1.474  25.188  0.00  0.00    +0.252 C 
BRANCH  15   1
ATOM      1  O   UNL     1      -5.013   0.380  25.720  0.00  0.00    -0.449 OA
BRANCH   1  20
ATOM      2  O   UNL     1      -4.214  -0.130  23.627  0.00  0.00    -0.226 OA
ATOM      6  N   UNL     1      -3.822  -1.521  25.443  0.00  0.00    -0.281 N 
ATOM     20  C   UNL     1      -4.334  -0.404  24.817  0.00  0.00    +0.400 C 
ATOM     33  H   UNL     1      -3.990  -1.630  26.438  0.00  0.00    +0.152 HD
BRANCH   6  25
ATOM     25  C   UNL     1      -3.057  -2.540  24.763  0.00  0.00    +0.107 C 
BRANCH  25  27
ATOM     27  C   UNL     1      -1.577  -2.193  24.674  0.00  0.00    +0.015 C 
ATOM     32  C   UNL     1      -1.122  -1.264  25.791  0.00  0.00    +0.005 C 
ENDBRANCH  25  27
ENDBRANCH   6  25
ENDBRANCH   1  20
ENDBRANCH  15   1
ENDBRANCH   9  15
TORSDOF 7
ENDMDL
