MODEL 1
REMARK VINA RESULT:      27.9      0.000      0.000
REMARK  Name = 26763568
REMARK  2 active torsions:
REMARK  status: ('A' for Active; 'I' for Inactive)
REMARK    1  A    between atoms: C_17  and  C_20
REMARK    2  A    between atoms: C_21  and  C_23
REMARK                            x       y       z     vdW  Elec       q    Type
REMARK                         _______ _______ _______ _____ _____    ______ ____
ROOT
ATOM      3  O   UNL     1      -2.383   0.187  23.040  0.00  0.00    -0.273 OA
ATOM      4  O   UNL     1       1.676   2.029  25.883  0.00  0.00    -0.270 OA
ATOM      5  O   UNL     1      -4.627   3.507  22.452  0.00  0.00    -0.270 OA
ATOM      6  N   UNL     1      -0.173   2.150  24.498  0.00  0.00    -0.283 N 
ATOM      7  N   UNL     1      -2.889   3.005  23.932  0.00  0.00    -0.294 N 
ATOM      8  N   UNL     1      -0.197  -0.445  23.079  0.00  0.00    -0.283 N 
ATOM      9  C   UNL     1      -0.745   1.956  23.173  0.00  0.00    +0.180 C 
ATOM     10  C   UNL     1      -1.882   2.940  22.870  0.00  0.00    +0.140 C 
ATOM     11  C   UNL     1      -0.915   2.994  25.434  0.00  0.00    +0.128 C 
ATOM     12  C   UNL     1      -2.419   2.790  25.305  0.00  0.00    +0.127 C 
ATOM     13  C   UNL     1      -1.195   0.504  23.123  0.00  0.00    +0.239 C 
ATOM     14  C   UNL     1       1.104   1.712  24.839  0.00  0.00    +0.249 C 
ATOM     15  C   UNL     1       1.816   0.783  23.921  0.00  0.00    +0.059 A 
ATOM     16  C   UNL     1       1.195  -0.257  23.208  0.00  0.00    +0.046 A 
ATOM     17  C   UNL     1      -4.209   3.322  23.595  0.00  0.00    +0.247 C 
ATOM     18  C   UNL     1       3.220   0.869  23.930  0.00  0.00    +0.023 A 
ATOM     19  C   UNL     1       1.998  -1.225  22.581  0.00  0.00    +0.024 A 
ATOM     21  C   UNL     1       4.000  -0.074  23.262  0.00  0.00    -0.017 A 
ATOM     22  C   UNL     1       3.390  -1.130  22.598  0.00  0.00    +0.010 A 
ATOM     34  H   UNL     1      -0.497  -1.383  22.824  0.00  0.00    +0.155 HD
ENDROOT
BRANCH  21  23
ATOM      1 CL   UNL     1       9.942   0.364  23.340  0.00  0.00    -0.084 Cl
ATOM     23  C   UNL     1       5.443   0.034  23.280  0.00  0.00    -0.018 A 
ATOM     28  C   UNL     1       6.057   1.057  24.000  0.00  0.00    +0.010 A 
ATOM     29  C   UNL     1       6.219  -0.889  22.579  0.00  0.00    +0.010 A 
ATOM     31  C   UNL     1       7.449   1.160  24.019  0.00  0.00    +0.020 A 
ATOM     32  C   UNL     1       7.611  -0.786  22.597  0.00  0.00    +0.020 A 
ATOM     33  C   UNL     1       8.225   0.238  23.317  0.00  0.00    +0.041 A 
ENDBRANCH  21  23
BRANCH  17  20
ATOM      2  F   UNL     1      -7.035   1.320  26.990  0.00  0.00    -0.205 F 
ATOM     20  C   UNL     1      -5.192   3.445  24.683  0.00  0.00    +0.040 A 
ATOM     24  C   UNL     1      -5.658   2.302  25.333  0.00  0.00    +0.051 A 
ATOM     25  C   UNL     1      -5.658   4.703  25.064  0.00  0.00    +0.013 A 
ATOM     26  C   UNL     1      -6.589   2.417  26.366  0.00  0.00    +0.124 A 
ATOM     27  C   UNL     1      -6.590   4.818  26.096  0.00  0.00    +0.004 A 
ATOM     30  C   UNL     1      -7.055   3.676  26.747  0.00  0.00    +0.038 A 
ENDBRANCH  17  20
TORSDOF 2
ENDMDL
