MODEL 1
REMARK VINA RESULT:      -1.3      0.000      0.000
REMARK  Name = 26763115
REMARK  6 active torsions:
REMARK  status: ('A' for Active; 'I' for Inactive)
REMARK    1  A    between atoms: O_4  and  C_26
REMARK    2  A    between atoms: N_8  and  C_13
REMARK    3  A    between atoms: N_10  and  C_27
REMARK    4  A    between atoms: C_12  and  C_17
REMARK    5  A    between atoms: C_17  and  C_19
REMARK    6  A    between atoms: C_19  and  C_20
REMARK                            x       y       z     vdW  Elec       q    Type
REMARK                         _______ _______ _______ _____ _____    ______ ____
ROOT
ATOM      2  O   UNL     1      15.151  -3.351  23.008  0.00  0.00    -0.274 OA
ATOM      6  N   UNL     1      16.689  -3.766  26.166  0.00  0.00    -0.285 NA
ATOM      7  N   UNL     1      15.760  -1.764  24.552  0.00  0.00    -0.313 N 
ATOM     11  C   UNL     1      16.706  -4.005  24.720  0.00  0.00    +0.145 C 
ATOM     12  C   UNL     1      17.242  -2.445  26.464  0.00  0.00    +0.075 C 
ATOM     13  C   UNL     1      16.854  -6.087  25.924  0.00  0.00    +0.090 C 
ATOM     14  C   UNL     1      16.320  -5.472  24.623  0.00  0.00    +0.052 C 
ATOM     15  C   UNL     1      17.405  -4.909  26.732  0.00  0.00    +0.107 C 
ATOM     16  C   UNL     1      16.276  -1.413  25.867  0.00  0.00    +0.123 C 
ATOM     18  C   UNL     1      15.770  -3.042  24.027  0.00  0.00    +0.230 C 
ATOM     33  H   UNL     1      15.201  -1.066  24.072  0.00  0.00    +0.149 HD
ENDROOT
BRANCH  13   8
ATOM      5  O   UNL     1      17.186  -7.817  28.181  0.00  0.00    -0.253 OA
ATOM      8  N   UNL     1      15.813  -6.787  26.634  0.00  0.00    -0.295 N 
ATOM     10  N   UNL     1      14.864  -8.157  28.214  0.00  0.00    -0.269 N 
ATOM     23  C   UNL     1      16.060  -7.617  27.733  0.00  0.00    +0.304 C 
ATOM     34  H   UNL     1      14.864  -6.732  26.275  0.00  0.00    +0.151 HD
ATOM     35  H   UNL     1      14.013  -7.889  27.726  0.00  0.00    +0.156 HD
BRANCH  10  27
ATOM      1 CL   UNL     1      11.694 -10.256  31.666  0.00  0.00    -0.083 Cl
ATOM     27  C   UNL     1      14.687  -9.039  29.306  0.00  0.00    +0.036 A 
ATOM     28  C   UNL     1      13.425  -9.195  29.880  0.00  0.00    +0.043 A 
ATOM     29  C   UNL     1      15.774  -9.753  29.808  0.00  0.00    +0.023 A 
ATOM     30  C   UNL     1      13.250 -10.065  30.957  0.00  0.00    +0.043 A 
ATOM     31  C   UNL     1      15.600 -10.622  30.885  0.00  0.00    +0.003 A 
ATOM     32  C   UNL     1      14.338 -10.778  31.459  0.00  0.00    +0.020 A 
ENDBRANCH  10  27
ENDBRANCH  13   8
BRANCH  12  17
ATOM     17  C   UNL     1      17.404  -2.186  27.964  0.00  0.00    +0.029 C 
BRANCH  17  19
ATOM     19  C   UNL     1      17.186  -3.441  28.797  0.00  0.00    +0.097 C 
BRANCH  19  20
ATOM      3  O   UNL     1      17.130  -2.175  30.798  0.00  0.00    -0.276 OA
ATOM      9  N   UNL     1      15.560  -3.877  30.605  0.00  0.00    -0.301 N 
ATOM     20  C   UNL     1      16.628  -3.100  30.155  0.00  0.00    +0.216 C 
ATOM     21  C   UNL     1      14.944  -4.984  29.863  0.00  0.00    +0.110 C 
ATOM     22  C   UNL     1      14.934  -3.577  31.895  0.00  0.00    +0.110 C 
ATOM     24  C   UNL     1      14.904  -6.249  30.715  0.00  0.00    +0.050 C 
ATOM     25  C   UNL     1      14.897  -4.816  32.783  0.00  0.00    +0.050 C 
ATOM     26  C   UNL     1      14.232  -5.991  32.064  0.00  0.00    +0.118 C 
BRANCH  26   4
ATOM      4  O   UNL     1      14.336  -7.165  32.860  0.00  0.00    -0.392 OA
ATOM     36  H   UNL     1      13.527  -7.228  33.396  0.00  0.00    +0.210 HD
ENDBRANCH  26   4
ENDBRANCH  19  20
ENDBRANCH  17  19
ENDBRANCH  12  17
TORSDOF 6
ENDMDL
