MODEL 1
REMARK VINA RESULT:       5.2      0.000      0.000
REMARK  Name = 11882025
REMARK  10 active torsions:
REMARK  status: ('A' for Active; 'I' for Inactive)
REMARK    1  A    between atoms: S_1  and  C_21
REMARK    2  A    between atoms: S_1  and  C_32
REMARK    3  A    between atoms: N_9  and  C_14
REMARK    4  A    between atoms: N_10  and  C_20
REMARK    5  A    between atoms: N_11  and  C_29
REMARK    6  A    between atoms: C_15  and  C_18
REMARK    7  A    between atoms: C_19  and  C_21
REMARK    8  A    between atoms: C_20  and  C_23
REMARK    9  A    between atoms: C_20  and  C_25
REMARK   10  A    between atoms: C_23  and  C_24
REMARK                            x       y       z     vdW  Elec       q    Type
REMARK                         _______ _______ _______ _____ _____    ______ ____
ROOT
ATOM      5  O   UNL     1      -5.382   0.671  25.269  0.00  0.00    -0.275 OA
ATOM      8  N   UNL     1      -3.871   2.206  24.421  0.00  0.00    -0.287 N 
ATOM     14  C   UNL     1      -2.122   3.436  23.386  0.00  0.00    +0.094 C 
ATOM     15  C   UNL     1      -3.316   1.336  23.394  0.00  0.00    +0.164 C 
ATOM     16  C   UNL     1      -2.506   2.259  22.486  0.00  0.00    +0.055 C 
ATOM     17  C   UNL     1      -3.304   3.553  24.343  0.00  0.00    +0.131 C 
ATOM     19  C   UNL     1      -4.928   1.817  25.229  0.00  0.00    +0.226 C 
ENDROOT
BRANCH  14   9
ATOM      6  O   UNL     1      -1.781   3.195  26.220  0.00  0.00    -0.252 OA
ATOM      9  N   UNL     1      -0.886   3.194  24.088  0.00  0.00    -0.295 N 
ATOM     11  N   UNL     1       0.516   2.854  25.877  0.00  0.00    -0.267 N 
ATOM     22  C   UNL     1      -0.804   3.089  25.482  0.00  0.00    +0.304 C 
ATOM     40  H   UNL     1      -0.024   3.161  23.552  0.00  0.00    +0.151 HD
ATOM     42  H   UNL     1       1.212   2.796  25.138  0.00  0.00    +0.156 HD
BRANCH  11  29
ATOM      2  F   UNL     1      -0.628   1.034  27.650  0.00  0.00    -0.203 F 
ATOM      3  F   UNL     1       2.476   2.208  31.022  0.00  0.00    -0.205 F 
ATOM     29  C   UNL     1       1.013   2.688  27.191  0.00  0.00    +0.070 A 
ATOM     35  C   UNL     1       0.418   1.767  28.055  0.00  0.00    +0.147 A 
ATOM     36  C   UNL     1       2.101   3.447  27.621  0.00  0.00    +0.029 A 
ATOM     37  C   UNL     1       0.913   1.606  29.348  0.00  0.00    +0.078 A 
ATOM     38  C   UNL     1       2.595   3.284  28.916  0.00  0.00    +0.040 A 
ATOM     39  C   UNL     1       2.001   2.364  29.780  0.00  0.00    +0.126 A 
ENDBRANCH  11  29
ENDBRANCH  14   9
BRANCH  15  18
ATOM      4  O   UNL     1      -2.873  -0.439  24.928  0.00  0.00    -0.274 OA
ATOM     10  N   UNL     1      -1.146   0.339  23.575  0.00  0.00    -0.302 N 
ATOM     18  C   UNL     1      -2.446   0.309  24.054  0.00  0.00    +0.234 C 
ATOM     41  H   UNL     1      -0.927   0.943  22.788  0.00  0.00    +0.150 HD
BRANCH  10  20
ATOM     20  C   UNL     1      -0.104  -0.535  24.063  0.00  0.00    +0.163 C 
BRANCH  20  25
ATOM      7  O   UNL     1      -1.342  -2.616  23.857  0.00  0.00    -0.274 OA
ATOM     13  N   UNL     1      -0.658  -1.946  25.946  0.00  0.00    -0.328 N 
ATOM     25  C   UNL     1      -0.782  -1.795  24.580  0.00  0.00    +0.231 C 
ATOM     44  H   UNL     1      -0.171  -1.271  26.527  0.00  0.00    +0.145 HD
ATOM     45  H   UNL     1      -1.054  -2.751  26.418  0.00  0.00    +0.145 HD
ENDBRANCH  20  25
BRANCH  20  23
ATOM     23  C   UNL     1       0.918  -0.884  22.974  0.00  0.00    +0.069 C 
BRANCH  23  24
ATOM     12  N   UNL     1       3.495   1.735  22.883  0.00  0.00    -0.360 N 
ATOM     24  C   UNL     1       2.148  -0.023  23.022  0.00  0.00    -0.020 A 
ATOM     26  C   UNL     1       3.459  -0.438  23.384  0.00  0.00    +0.003 A 
ATOM     27  C   UNL     1       2.202   1.318  22.719  0.00  0.00    +0.087 A 
ATOM     28  C   UNL     1       4.285   0.684  23.288  0.00  0.00    +0.047 A 
ATOM     30  C   UNL     1       4.025  -1.665  23.785  0.00  0.00    +0.010 A 
ATOM     31  C   UNL     1       5.654   0.641  23.575  0.00  0.00    +0.026 A 
ATOM     33  C   UNL     1       5.393  -1.723  24.075  0.00  0.00    +0.001 A 
ATOM     34  C   UNL     1       6.194  -0.587  23.971  0.00  0.00    +0.002 A 
ATOM     43  H   UNL     1       3.823   2.679  22.728  0.00  0.00    +0.165 HD
ENDBRANCH  23  24
ENDBRANCH  20  23
ENDBRANCH  10  20
ENDBRANCH  15  18
BRANCH  19  21
ATOM     21  C   UNL     1      -5.514   2.898  26.102  0.00  0.00    +0.164 C 
BRANCH  21   1
ATOM      1  S   UNL     1      -4.932   4.480  25.475  0.00  0.00    -0.155 S 
ATOM     32  C   UNL     1      -6.521   5.342  25.375  0.00  0.00    +0.085 C 
ENDBRANCH  21   1
ENDBRANCH  19  21
TORSDOF 9
ENDMDL
MODEL 2
REMARK VINA RESULT:       5.5      2.465      5.994
REMARK  Name = 11882025
REMARK  10 active torsions:
REMARK  status: ('A' for Active; 'I' for Inactive)
REMARK    1  A    between atoms: S_1  and  C_21
REMARK    2  A    between atoms: S_1  and  C_32
REMARK    3  A    between atoms: N_9  and  C_14
REMARK    4  A    between atoms: N_10  and  C_20
REMARK    5  A    between atoms: N_11  and  C_29
REMARK    6  A    between atoms: C_15  and  C_18
REMARK    7  A    between atoms: C_19  and  C_21
REMARK    8  A    between atoms: C_20  and  C_23
REMARK    9  A    between atoms: C_20  and  C_25
REMARK   10  A    between atoms: C_23  and  C_24
REMARK                            x       y       z     vdW  Elec       q    Type
REMARK                         _______ _______ _______ _____ _____    ______ ____
ROOT
ATOM      5  O   UNL     1      -4.290   1.720  26.148  0.00  0.00    -0.275 OA
ATOM      8  N   UNL     1      -3.240  -0.075  25.132  0.00  0.00    -0.287 N 
ATOM     14  C   UNL     1      -1.834  -1.825  24.353  0.00  0.00    +0.094 C 
ATOM     15  C   UNL     1      -2.254  -0.299  26.179  0.00  0.00    +0.164 C 
ATOM     16  C   UNL     1      -1.641  -1.662  25.863  0.00  0.00    +0.055 C 
ATOM     17  C   UNL     1      -3.142  -1.088  24.080  0.00  0.00    +0.131 C 
ATOM     19  C   UNL     1      -4.239   0.880  25.247  0.00  0.00    +0.226 C 
ENDROOT
BRANCH  14   9
ATOM      6  O   UNL     1       0.920  -1.770  25.139  0.00  0.00    -0.252 OA
ATOM      9  N   UNL     1      -0.737  -1.262  23.608  0.00  0.00    -0.295 N 
ATOM     11  N   UNL     1       1.430  -0.660  23.135  0.00  0.00    -0.267 N 
ATOM     22  C   UNL     1       0.587  -1.275  24.064  0.00  0.00    +0.304 C 
ATOM     40  H   UNL     1      -0.941  -0.775  22.740  0.00  0.00    +0.151 HD
ATOM     42  H   UNL     1       0.995  -0.297  22.290  0.00  0.00    +0.156 HD
BRANCH  11  29
ATOM      2  F   UNL     1       2.603   1.821  22.649  0.00  0.00    -0.203 F 
ATOM      3  F   UNL     1       6.915   0.063  23.484  0.00  0.00    -0.205 F 
ATOM     29  C   UNL     1       2.830  -0.473  23.222  0.00  0.00    +0.070 A 
ATOM     35  C   UNL     1       3.386   0.783  22.973  0.00  0.00    +0.147 A 
ATOM     36  C   UNL     1       3.653  -1.547  23.559  0.00  0.00    +0.029 A 
ATOM     37  C   UNL     1       4.766   0.963  23.062  0.00  0.00    +0.078 A 
ATOM     38  C   UNL     1       5.034  -1.366  23.647  0.00  0.00    +0.040 A 
ATOM     39  C   UNL     1       5.590  -0.111  23.398  0.00  0.00    +0.126 A 
ENDBRANCH  11  29
ENDBRANCH  14   9
BRANCH  15  18
ATOM      4  O   UNL     1      -0.261   0.732  25.364  0.00  0.00    -0.274 OA
ATOM     10  N   UNL     1      -1.505   1.822  27.002  0.00  0.00    -0.302 N 
ATOM     18  C   UNL     1      -1.229   0.793  26.116  0.00  0.00    +0.234 C 
ATOM     41  H   UNL     1      -2.383   1.806  27.513  0.00  0.00    +0.150 HD
BRANCH  10  20
ATOM     20  C   UNL     1      -0.659   2.983  27.153  0.00  0.00    +0.163 C 
BRANCH  20  25
ATOM      7  O   UNL     1       0.826   2.223  28.920  0.00  0.00    -0.274 OA
ATOM     13  N   UNL     1       1.647   2.363  26.778  0.00  0.00    -0.328 N 
ATOM     25  C   UNL     1       0.662   2.503  27.734  0.00  0.00    +0.231 C 
ATOM     44  H   UNL     1       1.489   2.575  25.798  0.00  0.00    +0.145 HD
ATOM     45  H   UNL     1       2.573   2.036  27.030  0.00  0.00    +0.145 HD
ENDBRANCH  20  25
BRANCH  20  23
ATOM     23  C   UNL     1      -0.427   3.709  25.821  0.00  0.00    +0.069 C 
BRANCH  23  24
ATOM     12  N   UNL     1      -3.669   4.751  24.436  0.00  0.00    -0.360 N 
ATOM     24  C   UNL     1      -1.694   3.944  25.049  0.00  0.00    -0.020 A 
ATOM     26  C   UNL     1      -2.087   3.294  23.846  0.00  0.00    +0.003 A 
ATOM     27  C   UNL     1      -2.688   4.834  25.387  0.00  0.00    +0.087 A 
ATOM     28  C   UNL     1      -3.328   3.819  23.483  0.00  0.00    +0.047 A 
ATOM     30  C   UNL     1      -1.501   2.307  23.028  0.00  0.00    +0.010 A 
ATOM     31  C   UNL     1      -4.018   3.404  22.338  0.00  0.00    +0.026 A 
ATOM     33  C   UNL     1      -2.180   1.882  21.880  0.00  0.00    +0.001 A 
ATOM     34  C   UNL     1      -3.419   2.423  21.541  0.00  0.00    +0.002 A 
ATOM     43  H   UNL     1      -4.521   5.295  24.435  0.00  0.00    +0.165 HD
ENDBRANCH  23  24
ENDBRANCH  20  23
ENDBRANCH  10  20
ENDBRANCH  15  18
BRANCH  19  21
ATOM     21  C   UNL     1      -5.295   0.852  24.171  0.00  0.00    +0.164 C 
BRANCH  21   1
ATOM      1  S   UNL     1      -6.613   1.969  24.670  0.00  0.00    -0.155 S 
ATOM     32  C   UNL     1      -6.611   1.626  26.448  0.00  0.00    +0.085 C 
ENDBRANCH  21   1
ENDBRANCH  19  21
TORSDOF 9
ENDMDL
MODEL 3
REMARK VINA RESULT:       5.6      1.758      2.494
REMARK  Name = 11882025
REMARK  10 active torsions:
REMARK  status: ('A' for Active; 'I' for Inactive)
REMARK    1  A    between atoms: S_1  and  C_21
REMARK    2  A    between atoms: S_1  and  C_32
REMARK    3  A    between atoms: N_9  and  C_14
REMARK    4  A    between atoms: N_10  and  C_20
REMARK    5  A    between atoms: N_11  and  C_29
REMARK    6  A    between atoms: C_15  and  C_18
REMARK    7  A    between atoms: C_19  and  C_21
REMARK    8  A    between atoms: C_20  and  C_23
REMARK    9  A    between atoms: C_20  and  C_25
REMARK   10  A    between atoms: C_23  and  C_24
REMARK                            x       y       z     vdW  Elec       q    Type
REMARK                         _______ _______ _______ _____ _____    ______ ____
ROOT
ATOM      5  O   UNL     1      -3.272  -0.841  23.065  0.00  0.00    -0.275 OA
ATOM      8  N   UNL     1      -3.843   1.287  23.775  0.00  0.00    -0.287 N 
ATOM     14  C   UNL     1      -4.082   3.596  24.281  0.00  0.00    +0.094 C 
ATOM     15  C   UNL     1      -3.080   2.004  22.764  0.00  0.00    +0.164 C 
ATOM     16  C   UNL     1      -3.571   3.448  22.845  0.00  0.00    +0.055 C 
ATOM     17  C   UNL     1      -4.614   2.205  24.614  0.00  0.00    +0.131 C 
ATOM     19  C   UNL     1      -3.938  -0.097  23.788  0.00  0.00    +0.226 C 
ENDROOT
BRANCH  14   9
ATOM      6  O   UNL     1      -2.473   1.877  25.911  0.00  0.00    -0.252 OA
ATOM      9  N   UNL     1      -3.034   3.999  25.185  0.00  0.00    -0.295 N 
ATOM     11  N   UNL     1      -1.349   3.768  26.730  0.00  0.00    -0.267 N 
ATOM     22  C   UNL     1      -2.291   3.091  25.950  0.00  0.00    +0.304 C 
ATOM     40  H   UNL     1      -2.869   4.991  25.322  0.00  0.00    +0.151 HD
ATOM     42  H   UNL     1      -1.328   4.781  26.647  0.00  0.00    +0.156 HD
BRANCH  11  29
ATOM      2  F   UNL     1       0.973   2.513  25.835  0.00  0.00    -0.203 F 
ATOM      3  F   UNL     1       2.322   1.610  30.279  0.00  0.00    -0.205 F 
ATOM     29  C   UNL     1      -0.411   3.215  27.633  0.00  0.00    +0.070 A 
ATOM     35  C   UNL     1       0.743   2.594  27.153  0.00  0.00    +0.147 A 
ATOM     36  C   UNL     1      -0.641   3.294  29.006  0.00  0.00    +0.029 A 
ATOM     37  C   UNL     1       1.666   2.052  28.047  0.00  0.00    +0.078 A 
ATOM     38  C   UNL     1       0.282   2.751  29.900  0.00  0.00    +0.040 A 
ATOM     39  C   UNL     1       1.436   2.130  29.420  0.00  0.00    +0.126 A 
ENDBRANCH  11  29
ENDBRANCH  14   9
BRANCH  15  18
ATOM      4  O   UNL     1      -0.841   2.823  22.891  0.00  0.00    -0.274 OA
ATOM     10  N   UNL     1      -1.294   0.661  23.627  0.00  0.00    -0.302 N 
ATOM     18  C   UNL     1      -1.622   1.899  23.098  0.00  0.00    +0.234 C 
ATOM     41  H   UNL     1      -2.040   0.003  23.835  0.00  0.00    +0.150 HD
BRANCH  10  20
ATOM     20  C   UNL     1       0.051   0.297  24.010  0.00  0.00    +0.163 C 
BRANCH  20  25
ATOM      7  O   UNL     1       0.388  -1.980  24.792  0.00  0.00    -0.274 OA
ATOM     13  N   UNL     1      -0.679  -0.489  26.176  0.00  0.00    -0.328 N 
ATOM     25  C   UNL     1      -0.062  -0.855  24.998  0.00  0.00    +0.231 C 
ATOM     44  H   UNL     1      -1.024   0.451  26.342  0.00  0.00    +0.145 HD
ATOM     45  H   UNL     1      -0.807  -1.159  26.926  0.00  0.00    +0.145 HD
ENDBRANCH  20  25
BRANCH  20  23
ATOM     23  C   UNL     1       0.907  -0.112  22.805  0.00  0.00    +0.069 C 
BRANCH  23  24
ATOM     12  N   UNL     1       4.030   1.824  22.709  0.00  0.00    -0.360 N 
ATOM     24  C   UNL     1       2.304   0.437  22.862  0.00  0.00    -0.020 A 
ATOM     26  C   UNL     1       3.474  -0.261  23.270  0.00  0.00    +0.003 A 
ATOM     27  C   UNL     1       2.679   1.717  22.523  0.00  0.00    +0.087 A 
ATOM     28  C   UNL     1       4.542   0.631  23.165  0.00  0.00    +0.047 A 
ATOM     30  C   UNL     1       3.727  -1.573  23.721  0.00  0.00    +0.010 A 
ATOM     31  C   UNL     1       5.857   0.277  23.490  0.00  0.00    +0.026 A 
ATOM     33  C   UNL     1       5.036  -1.941  24.049  0.00  0.00    +0.001 A 
ATOM     34  C   UNL     1       6.084  -1.029  23.935  0.00  0.00    +0.002 A 
ATOM     43  H   UNL     1       4.574   2.658  22.537  0.00  0.00    +0.165 HD
ENDBRANCH  23  24
ENDBRANCH  20  23
ENDBRANCH  10  20
ENDBRANCH  15  18
BRANCH  19  21
ATOM     21  C   UNL     1      -4.922  -0.673  24.774  0.00  0.00    +0.164 C 
BRANCH  21   1
ATOM      1  S   UNL     1      -3.981  -1.423  26.110  0.00  0.00    -0.155 S 
ATOM     32  C   UNL     1      -3.327  -2.857  25.221  0.00  0.00    +0.085 C 
ENDBRANCH  21   1
ENDBRANCH  19  21
TORSDOF 9
ENDMDL
MODEL 4
REMARK VINA RESULT:       5.9      2.518      5.201
REMARK  Name = 11882025
REMARK  10 active torsions:
REMARK  status: ('A' for Active; 'I' for Inactive)
REMARK    1  A    between atoms: S_1  and  C_21
REMARK    2  A    between atoms: S_1  and  C_32
REMARK    3  A    between atoms: N_9  and  C_14
REMARK    4  A    between atoms: N_10  and  C_20
REMARK    5  A    between atoms: N_11  and  C_29
REMARK    6  A    between atoms: C_15  and  C_18
REMARK    7  A    between atoms: C_19  and  C_21
REMARK    8  A    between atoms: C_20  and  C_23
REMARK    9  A    between atoms: C_20  and  C_25
REMARK   10  A    between atoms: C_23  and  C_24
REMARK                            x       y       z     vdW  Elec       q    Type
REMARK                         _______ _______ _______ _____ _____    ______ ____
ROOT
ATOM      5  O   UNL     1      -5.701   1.016  25.299  0.00  0.00    -0.275 OA
ATOM      8  N   UNL     1      -3.950   1.116  23.788  0.00  0.00    -0.287 N 
ATOM     14  C   UNL     1      -2.091   0.804  22.341  0.00  0.00    +0.094 C 
ATOM     15  C   UNL     1      -3.835  -0.320  23.580  0.00  0.00    +0.164 C 
ATOM     16  C   UNL     1      -2.935  -0.474  22.356  0.00  0.00    +0.055 C 
ATOM     17  C   UNL     1      -3.030   1.856  22.923  0.00  0.00    +0.131 C 
ATOM     19  C   UNL     1      -4.942   1.672  24.581  0.00  0.00    +0.226 C 
ENDROOT
BRANCH  14   9
ATOM      6  O   UNL     1       0.527   0.168  21.370  0.00  0.00    -0.252 OA
ATOM      9  N   UNL     1      -0.891   0.663  23.128  0.00  0.00    -0.295 N 
ATOM     11  N   UNL     1       1.330   0.279  23.573  0.00  0.00    -0.267 N 
ATOM     22  C   UNL     1       0.356   0.349  22.574  0.00  0.00    +0.304 C 
ATOM     40  H   UNL     1      -0.965   0.732  24.138  0.00  0.00    +0.151 HD
ATOM     42  H   UNL     1       1.022   0.454  24.527  0.00  0.00    +0.156 HD
BRANCH  11  29
ATOM      2  F   UNL     1       3.136   2.200  22.670  0.00  0.00    -0.203 F 
ATOM      3  F   UNL     1       6.724  -0.866  23.004  0.00  0.00    -0.205 F 
ATOM     29  C   UNL     1       2.707  -0.011  23.426  0.00  0.00    +0.070 A 
ATOM     35  C   UNL     1       3.586   0.974  22.971  0.00  0.00    +0.147 A 
ATOM     36  C   UNL     1       3.185  -1.283  23.737  0.00  0.00    +0.029 A 
ATOM     37  C   UNL     1       4.942   0.684  22.829  0.00  0.00    +0.078 A 
ATOM     38  C   UNL     1       4.542  -1.572  23.594  0.00  0.00    +0.040 A 
ATOM     39  C   UNL     1       5.421  -0.588  23.140  0.00  0.00    +0.126 A 
ENDBRANCH  11  29
ENDBRANCH  14   9
BRANCH  15  18
ATOM      4  O   UNL     1      -3.627  -1.991  25.272  0.00  0.00    -0.274 OA
ATOM     10  N   UNL     1      -2.181  -0.167  25.305  0.00  0.00    -0.302 N 
ATOM     18  C   UNL     1      -3.217  -0.935  24.799  0.00  0.00    +0.234 C 
ATOM     41  H   UNL     1      -1.871   0.645  24.779  0.00  0.00    +0.150 HD
BRANCH  10  20
ATOM     20  C   UNL     1      -1.435  -0.528  26.489  0.00  0.00    +0.163 C 
BRANCH  20  25
ATOM      7  O   UNL     1      -0.138  -1.810  24.883  0.00  0.00    -0.274 OA
ATOM     13  N   UNL     1       0.441  -1.922  27.103  0.00  0.00    -0.328 N 
ATOM     25  C   UNL     1      -0.339  -1.488  26.052  0.00  0.00    +0.231 C 
ATOM     44  H   UNL     1       0.278  -1.628  28.061  0.00  0.00    +0.145 HD
ATOM     45  H   UNL     1       1.217  -2.557  26.948  0.00  0.00    +0.145 HD
ENDBRANCH  20  25
BRANCH  20  23
ATOM     23  C   UNL     1      -0.829   0.696  27.188  0.00  0.00    +0.069 C 
BRANCH  23  24
ATOM     12  N   UNL     1       0.528   3.031  24.695  0.00  0.00    -0.360 N 
ATOM     24  C   UNL     1      -0.500   1.813  26.240  0.00  0.00    -0.020 A 
ATOM     26  C   UNL     1      -1.237   3.016  26.058  0.00  0.00    +0.003 A 
ATOM     27  C   UNL     1       0.581   1.852  25.388  0.00  0.00    +0.087 A 
ATOM     28  C   UNL     1      -0.571   3.762  25.084  0.00  0.00    +0.047 A 
ATOM     30  C   UNL     1      -2.412   3.543  26.631  0.00  0.00    +0.010 A 
ATOM     31  C   UNL     1      -1.022   5.015  24.652  0.00  0.00    +0.026 A 
ATOM     33  C   UNL     1      -2.875   4.795  26.209  0.00  0.00    +0.001 A 
ATOM     34  C   UNL     1      -2.190   5.518  25.234  0.00  0.00    +0.002 A 
ATOM     43  H   UNL     1       1.201   3.324  23.999  0.00  0.00    +0.165 HD
ENDBRANCH  23  24
ENDBRANCH  20  23
ENDBRANCH  10  20
ENDBRANCH  15  18
BRANCH  19  21
ATOM     21  C   UNL     1      -5.047   3.175  24.536  0.00  0.00    +0.164 C 
BRANCH  21   1
ATOM      1  S   UNL     1      -6.188   3.683  25.830  0.00  0.00    -0.155 S 
ATOM     32  C   UNL     1      -6.277   5.450  25.445  0.00  0.00    +0.085 C 
ENDBRANCH  21   1
ENDBRANCH  19  21
TORSDOF 9
ENDMDL
MODEL 5
REMARK VINA RESULT:       6.8      2.916      5.599
REMARK  Name = 11882025
REMARK  10 active torsions:
REMARK  status: ('A' for Active; 'I' for Inactive)
REMARK    1  A    between atoms: S_1  and  C_21
REMARK    2  A    between atoms: S_1  and  C_32
REMARK    3  A    between atoms: N_9  and  C_14
REMARK    4  A    between atoms: N_10  and  C_20
REMARK    5  A    between atoms: N_11  and  C_29
REMARK    6  A    between atoms: C_15  and  C_18
REMARK    7  A    between atoms: C_19  and  C_21
REMARK    8  A    between atoms: C_20  and  C_23
REMARK    9  A    between atoms: C_20  and  C_25
REMARK   10  A    between atoms: C_23  and  C_24
REMARK                            x       y       z     vdW  Elec       q    Type
REMARK                         _______ _______ _______ _____ _____    ______ ____
ROOT
ATOM      5  O   UNL     1      -6.118   4.054  25.685  0.00  0.00    -0.275 OA
ATOM      8  N   UNL     1      -3.827   4.023  26.010  0.00  0.00    -0.287 N 
ATOM     14  C   UNL     1      -1.458   4.198  25.967  0.00  0.00    +0.094 C 
ATOM     15  C   UNL     1      -3.518   5.100  25.082  0.00  0.00    +0.164 C 
ATOM     16  C   UNL     1      -2.066   5.473  25.375  0.00  0.00    +0.055 C 
ATOM     17  C   UNL     1      -2.627   3.558  26.708  0.00  0.00    +0.131 C 
ATOM     19  C   UNL     1      -5.129   3.641  26.294  0.00  0.00    +0.226 C 
ENDROOT
BRANCH  14   9
ATOM      6  O   UNL     1       0.937   2.634  26.113  0.00  0.00    -0.252 OA
ATOM      9  N   UNL     1      -0.932   3.330  24.943  0.00  0.00    -0.295 N 
ATOM     11  N   UNL     1       0.510   1.847  23.943  0.00  0.00    -0.267 N 
ATOM     22  C   UNL     1       0.251   2.596  25.094  0.00  0.00    +0.304 C 
ATOM     40  H   UNL     1      -1.407   3.296  24.046  0.00  0.00    +0.151 HD
ATOM     42  H   UNL     1      -0.159   1.929  23.182  0.00  0.00    +0.156 HD
BRANCH  11  29
ATOM      2  F   UNL     1       0.232  -0.923  24.086  0.00  0.00    -0.203 F 
ATOM      3  F   UNL     1       4.789  -1.543  22.978  0.00  0.00    -0.205 F 
ATOM     29  C   UNL     1       1.601   0.979  23.699  0.00  0.00    +0.070 A 
ATOM     35  C   UNL     1       1.428  -0.403  23.778  0.00  0.00    +0.147 A 
ATOM     36  C   UNL     1       2.850   1.510  23.377  0.00  0.00    +0.029 A 
ATOM     37  C   UNL     1       2.505  -1.255  23.534  0.00  0.00    +0.078 A 
ATOM     38  C   UNL     1       3.927   0.657  23.134  0.00  0.00    +0.040 A 
ATOM     39  C   UNL     1       3.755  -0.725  23.213  0.00  0.00    +0.126 A 
ENDBRANCH  11  29
ENDBRANCH  14   9
BRANCH  15  18
ATOM      4  O   UNL     1      -3.911   5.346  22.741  0.00  0.00    -0.274 OA
ATOM     10  N   UNL     1      -3.573   3.213  23.609  0.00  0.00    -0.302 N 
ATOM     18  C   UNL     1      -3.684   4.592  23.682  0.00  0.00    +0.234 C 
ATOM     41  H   UNL     1      -3.297   2.698  24.440  0.00  0.00    +0.150 HD
BRANCH  10  20
ATOM     20  C   UNL     1      -3.716   2.473  22.376  0.00  0.00    +0.163 C 
BRANCH  20  25
ATOM      7  O   UNL     1      -1.338   2.941  22.202  0.00  0.00    -0.274 OA
ATOM     13  N   UNL     1      -2.345   1.734  20.527  0.00  0.00    -0.328 N 
ATOM     25  C   UNL     1      -2.347   2.438  21.714  0.00  0.00    +0.231 C 
ATOM     44  H   UNL     1      -3.182   1.303  20.148  0.00  0.00    +0.145 HD
ATOM     45  H   UNL     1      -1.493   1.622  19.990  0.00  0.00    +0.145 HD
ENDBRANCH  20  25
BRANCH  20  23
ATOM     23  C   UNL     1      -4.236   1.049  22.611  0.00  0.00    +0.069 C 
BRANCH  23  24
ATOM     12  N   UNL     1      -2.369   0.007  25.600  0.00  0.00    -0.360 N 
ATOM     24  C   UNL     1      -3.569   0.361  23.767  0.00  0.00    -0.020 A 
ATOM     26  C   UNL     1      -3.622  -1.027  24.073  0.00  0.00    +0.003 A 
ATOM     27  C   UNL     1      -2.791   0.971  24.725  0.00  0.00    +0.087 A 
ATOM     28  C   UNL     1      -2.861  -1.222  25.227  0.00  0.00    +0.047 A 
ATOM     30  C   UNL     1      -4.247  -2.141  23.475  0.00  0.00    +0.010 A 
ATOM     31  C   UNL     1      -2.693  -2.480  25.817  0.00  0.00    +0.026 A 
ATOM     33  C   UNL     1      -4.087  -3.405  24.054  0.00  0.00    +0.001 A 
ATOM     34  C   UNL     1      -3.322  -3.570  25.208  0.00  0.00    +0.002 A 
ATOM     43  H   UNL     1      -1.781   0.175  26.405  0.00  0.00    +0.165 HD
ENDBRANCH  23  24
ENDBRANCH  20  23
ENDBRANCH  10  20
ENDBRANCH  15  18
BRANCH  19  21
ATOM     21  C   UNL     1      -5.287   2.650  27.419  0.00  0.00    +0.164 C 
BRANCH  21   1
ATOM      1  S   UNL     1      -6.581   1.492  26.950  0.00  0.00    -0.155 S 
ATOM     32  C   UNL     1      -6.387   1.570  25.152  0.00  0.00    +0.085 C 
ENDBRANCH  21   1
ENDBRANCH  19  21
TORSDOF 9
ENDMDL
MODEL 6
REMARK VINA RESULT:       7.0      2.546      5.125
REMARK  Name = 11882025
REMARK  10 active torsions:
REMARK  status: ('A' for Active; 'I' for Inactive)
REMARK    1  A    between atoms: S_1  and  C_21
REMARK    2  A    between atoms: S_1  and  C_32
REMARK    3  A    between atoms: N_9  and  C_14
REMARK    4  A    between atoms: N_10  and  C_20
REMARK    5  A    between atoms: N_11  and  C_29
REMARK    6  A    between atoms: C_15  and  C_18
REMARK    7  A    between atoms: C_19  and  C_21
REMARK    8  A    between atoms: C_20  and  C_23
REMARK    9  A    between atoms: C_20  and  C_25
REMARK   10  A    between atoms: C_23  and  C_24
REMARK                            x       y       z     vdW  Elec       q    Type
REMARK                         _______ _______ _______ _____ _____    ______ ____
ROOT
ATOM      5  O   UNL     1      -2.377   5.453  24.549  0.00  0.00    -0.275 OA
ATOM      8  N   UNL     1      -1.478   3.898  26.009  0.00  0.00    -0.287 N 
ATOM     14  C   UNL     1      -0.254   2.249  27.203  0.00  0.00    +0.094 C 
ATOM     15  C   UNL     1      -0.145   3.882  25.425  0.00  0.00    +0.164 C 
ATOM     16  C   UNL     1       0.726   3.147  26.442  0.00  0.00    +0.055 C 
ATOM     17  C   UNL     1      -1.548   3.056  27.203  0.00  0.00    +0.131 C 
ATOM     19  C   UNL     1      -2.471   4.757  25.562  0.00  0.00    +0.226 C 
ENDROOT
BRANCH  14   9
ATOM      6  O   UNL     1      -2.668   1.203  26.070  0.00  0.00    -0.252 OA
ATOM      9  N   UNL     1      -0.420   0.970  26.559  0.00  0.00    -0.295 N 
ATOM     11  N   UNL     1      -1.499  -0.742  25.470  0.00  0.00    -0.267 N 
ATOM     22  C   UNL     1      -1.640   0.531  26.029  0.00  0.00    +0.304 C 
ATOM     40  H   UNL     1       0.368   0.330  26.545  0.00  0.00    +0.151 HD
ATOM     42  H   UNL     1      -0.575  -1.165  25.521  0.00  0.00    +0.156 HD
BRANCH  11  29
ATOM      2  F   UNL     1      -1.150  -3.476  25.056  0.00  0.00    -0.203 F 
ATOM      3  F   UNL     1      -5.395  -3.811  22.995  0.00  0.00    -0.205 F 
ATOM     29  C   UNL     1      -2.491  -1.528  24.838  0.00  0.00    +0.070 A 
ATOM     35  C   UNL     1      -2.286  -2.895  24.646  0.00  0.00    +0.147 A 
ATOM     36  C   UNL     1      -3.676  -0.932  24.407  0.00  0.00    +0.029 A 
ATOM     37  C   UNL     1      -3.267  -3.665  24.023  0.00  0.00    +0.078 A 
ATOM     38  C   UNL     1      -4.657  -1.704  23.784  0.00  0.00    +0.040 A 
ATOM     39  C   UNL     1      -4.452  -3.071  23.592  0.00  0.00    +0.126 A 
ENDBRANCH  11  29
ENDBRANCH  14   9
BRANCH  15  18
ATOM      4  O   UNL     1       0.466   3.500  23.149  0.00  0.00    -0.274 OA
ATOM     10  N   UNL     1      -1.089   2.086  24.151  0.00  0.00    -0.302 N 
ATOM     18  C   UNL     1      -0.201   3.149  24.118  0.00  0.00    +0.234 C 
ATOM     41  H   UNL     1      -1.522   1.836  25.036  0.00  0.00    +0.150 HD
BRANCH  10  20
ATOM     20  C   UNL     1      -1.344   1.234  23.013  0.00  0.00    +0.163 C 
BRANCH  20  25
ATOM      7  O   UNL     1      -3.399   2.480  22.654  0.00  0.00    -0.274 OA
ATOM     13  N   UNL     1      -2.148   1.874  20.825  0.00  0.00    -0.328 N 
ATOM     25  C   UNL     1      -2.418   1.914  22.177  0.00  0.00    +0.231 C 
ATOM     44  H   UNL     1      -1.320   1.424  20.447  0.00  0.00    +0.145 HD
ATOM     45  H   UNL     1      -2.778   2.303  20.156  0.00  0.00    +0.145 HD
ENDBRANCH  20  25
BRANCH  20  23
ATOM     23  C   UNL     1      -0.083   0.994  22.173  0.00  0.00    +0.069 C 
BRANCH  23  24
ATOM     12  N   UNL     1       1.739  -1.658  23.950  0.00  0.00    -0.360 N 
ATOM     24  C   UNL     1       0.895   0.063  22.831  0.00  0.00    -0.020 A 
ATOM     26  C   UNL     1       2.308   0.216  22.885  0.00  0.00    +0.003 A 
ATOM     27  C   UNL     1       0.575  -1.100  23.496  0.00  0.00    +0.087 A 
ATOM     28  C   UNL     1       2.813  -0.876  23.592  0.00  0.00    +0.047 A 
ATOM     30  C   UNL     1       3.209   1.185  22.397  0.00  0.00    +0.010 A 
ATOM     31  C   UNL     1       4.180  -1.051  23.838  0.00  0.00    +0.026 A 
ATOM     33  C   UNL     1       4.579   1.024  22.636  0.00  0.00    +0.001 A 
ATOM     34  C   UNL     1       5.055  -0.078  23.345  0.00  0.00    +0.002 A 
ATOM     43  H   UNL     1       1.801  -2.521  24.474  0.00  0.00    +0.165 HD
ENDBRANCH  23  24
ENDBRANCH  20  23
ENDBRANCH  10  20
ENDBRANCH  15  18
BRANCH  19  21
ATOM     21  C   UNL     1      -3.727   4.791  26.396  0.00  0.00    +0.164 C 
BRANCH  21   1
ATOM      1  S   UNL     1      -5.103   4.337  25.331  0.00  0.00    -0.155 S 
ATOM     32  C   UNL     1      -5.489   2.720  26.049  0.00  0.00    +0.085 C 
ENDBRANCH  21   1
ENDBRANCH  19  21
TORSDOF 9
ENDMDL
MODEL 7
REMARK VINA RESULT:       7.3      2.702      6.452
REMARK  Name = 11882025
REMARK  10 active torsions:
REMARK  status: ('A' for Active; 'I' for Inactive)
REMARK    1  A    between atoms: S_1  and  C_21
REMARK    2  A    between atoms: S_1  and  C_32
REMARK    3  A    between atoms: N_9  and  C_14
REMARK    4  A    between atoms: N_10  and  C_20
REMARK    5  A    between atoms: N_11  and  C_29
REMARK    6  A    between atoms: C_15  and  C_18
REMARK    7  A    between atoms: C_19  and  C_21
REMARK    8  A    between atoms: C_20  and  C_23
REMARK    9  A    between atoms: C_20  and  C_25
REMARK   10  A    between atoms: C_23  and  C_24
REMARK                            x       y       z     vdW  Elec       q    Type
REMARK                         _______ _______ _______ _____ _____    ______ ____
ROOT
ATOM      5  O   UNL     1      -4.343   0.185  26.508  0.00  0.00    -0.275 OA
ATOM      8  N   UNL     1      -3.112  -1.092  25.021  0.00  0.00    -0.287 N 
ATOM     14  C   UNL     1      -1.538  -2.379  23.793  0.00  0.00    +0.094 C 
ATOM     15  C   UNL     1      -2.139  -1.573  25.990  0.00  0.00    +0.164 C 
ATOM     16  C   UNL     1      -1.400  -2.707  25.283  0.00  0.00    +0.055 C 
ATOM     17  C   UNL     1      -2.898  -1.694  23.705  0.00  0.00    +0.131 C 
ATOM     19  C   UNL     1      -4.194  -0.306  25.387  0.00  0.00    +0.226 C 
ENDROOT
BRANCH  14   9
ATOM      6  O   UNL     1       1.200  -2.442  24.633  0.00  0.00    -0.252 OA
ATOM      9  N   UNL     1      -0.475  -1.522  23.331  0.00  0.00    -0.295 N 
ATOM     11  N   UNL     1       1.650  -0.661  23.171  0.00  0.00    -0.267 N 
ATOM     22  C   UNL     1       0.843  -1.617  23.794  0.00  0.00    +0.304 C 
ATOM     40  H   UNL     1      -0.705  -0.771  22.687  0.00  0.00    +0.151 HD
ATOM     42  H   UNL     1       1.197  -0.048  22.498  0.00  0.00    +0.156 HD
BRANCH  11  29
ATOM      2  F   UNL     1       2.808   1.816  22.635  0.00  0.00    -0.203 F 
ATOM      3  F   UNL     1       7.069   0.221  23.931  0.00  0.00    -0.205 F 
ATOM     29  C   UNL     1       3.033  -0.433  23.363  0.00  0.00    +0.070 A 
ATOM     35  C   UNL     1       3.582   0.819  23.086  0.00  0.00    +0.147 A 
ATOM     36  C   UNL     1       3.847  -1.465  23.831  0.00  0.00    +0.029 A 
ATOM     37  C   UNL     1       4.946   1.040  23.278  0.00  0.00    +0.078 A 
ATOM     38  C   UNL     1       5.211  -1.243  24.023  0.00  0.00    +0.040 A 
ATOM     39  C   UNL     1       5.760   0.009  23.746  0.00  0.00    +0.126 A 
ENDBRANCH  11  29
ENDBRANCH  14   9
BRANCH  15  18
ATOM      4  O   UNL     1      -0.661  -0.379  27.435  0.00  0.00    -0.274 OA
ATOM     10  N   UNL     1      -1.093   0.473  25.312  0.00  0.00    -0.302 N 
ATOM     18  C   UNL     1      -1.213  -0.447  26.341  0.00  0.00    +0.234 C 
ATOM     41  H   UNL     1      -1.529   0.267  24.418  0.00  0.00    +0.150 HD
BRANCH  10  20
ATOM     20  C   UNL     1      -0.278   1.662  25.406  0.00  0.00    +0.163 C 
BRANCH  20  25
ATOM      7  O   UNL     1       0.491   3.231  23.717  0.00  0.00    -0.274 OA
ATOM     13  N   UNL     1      -1.050   1.636  23.116  0.00  0.00    -0.328 N 
ATOM     25  C   UNL     1      -0.232   2.283  24.018  0.00  0.00    +0.231 C 
ATOM     44  H   UNL     1      -1.623   0.839  23.373  0.00  0.00    +0.145 HD
ATOM     45  H   UNL     1      -1.103   1.941  22.150  0.00  0.00    +0.145 HD
ENDBRANCH  20  25
BRANCH  20  23
ATOM     23  C   UNL     1      -0.832   2.666  26.425  0.00  0.00    +0.069 C 
BRANCH  23  24
ATOM     12  N   UNL     1      -2.331   5.532  24.678  0.00  0.00    -0.360 N 
ATOM     24  C   UNL     1      -1.694   3.726  25.800  0.00  0.00    -0.020 A 
ATOM     26  C   UNL     1      -3.113   3.804  25.851  0.00  0.00    +0.003 A 
ATOM     27  C   UNL     1      -1.242   4.803  25.072  0.00  0.00    +0.087 A 
ATOM     28  C   UNL     1      -3.487   4.945  25.139  0.00  0.00    +0.047 A 
ATOM     30  C   UNL     1      -4.119   3.008  26.436  0.00  0.00    +0.010 A 
ATOM     31  C   UNL     1      -4.822   5.334  24.982  0.00  0.00    +0.026 A 
ATOM     33  C   UNL     1      -5.459   3.385  26.287  0.00  0.00    +0.001 A 
ATOM     34  C   UNL     1      -5.804   4.530  25.571  0.00  0.00    +0.002 A 
ATOM     43  H   UNL     1      -2.292   6.379  24.128  0.00  0.00    +0.165 HD
ENDBRANCH  23  24
ENDBRANCH  20  23
ENDBRANCH  10  20
ENDBRANCH  15  18
BRANCH  19  21
ATOM     21  C   UNL     1      -5.215  -0.058  24.305  0.00  0.00    +0.164 C 
BRANCH  21   1
ATOM      1  S   UNL     1      -5.235   1.709  23.967  0.00  0.00    -0.155 S 
ATOM     32  C   UNL     1      -3.661   1.841  23.082  0.00  0.00    +0.085 C 
ENDBRANCH  21   1
ENDBRANCH  19  21
TORSDOF 9
ENDMDL
MODEL 8
REMARK VINA RESULT:       7.8      2.944      5.645
REMARK  Name = 11882025
REMARK  10 active torsions:
REMARK  status: ('A' for Active; 'I' for Inactive)
REMARK    1  A    between atoms: S_1  and  C_21
REMARK    2  A    between atoms: S_1  and  C_32
REMARK    3  A    between atoms: N_9  and  C_14
REMARK    4  A    between atoms: N_10  and  C_20
REMARK    5  A    between atoms: N_11  and  C_29
REMARK    6  A    between atoms: C_15  and  C_18
REMARK    7  A    between atoms: C_19  and  C_21
REMARK    8  A    between atoms: C_20  and  C_23
REMARK    9  A    between atoms: C_20  and  C_25
REMARK   10  A    between atoms: C_23  and  C_24
REMARK                            x       y       z     vdW  Elec       q    Type
REMARK                         _______ _______ _______ _____ _____    ______ ____
ROOT
ATOM      5  O   UNL     1      -3.192   4.720  26.403  0.00  0.00    -0.275 OA
ATOM      8  N   UNL     1      -3.534   3.552  24.434  0.00  0.00    -0.287 N 
ATOM     14  C   UNL     1      -3.941   2.013  22.671  0.00  0.00    +0.094 C 
ATOM     15  C   UNL     1      -4.225   2.421  25.035  0.00  0.00    +0.164 C 
ATOM     16  C   UNL     1      -4.836   1.659  23.862  0.00  0.00    +0.055 C 
ATOM     17  C   UNL     1      -3.491   3.438  22.975  0.00  0.00    +0.131 C 
ATOM     19  C   UNL     1      -3.142   4.658  25.173  0.00  0.00    +0.226 C 
ENDROOT
BRANCH  14   9
ATOM      6  O   UNL     1      -1.166   2.695  22.864  0.00  0.00    -0.252 OA
ATOM      9  N   UNL     1      -2.822   1.112  22.554  0.00  0.00    -0.295 N 
ATOM     11  N   UNL     1      -0.625   0.439  22.506  0.00  0.00    -0.267 N 
ATOM     22  C   UNL     1      -1.489   1.526  22.661  0.00  0.00    +0.304 C 
ATOM     40  H   UNL     1      -3.006   0.140  22.320  0.00  0.00    +0.151 HD
ATOM     42  H   UNL     1      -1.055  -0.468  22.341  0.00  0.00    +0.156 HD
BRANCH  11  29
ATOM      2  F   UNL     1       0.890  -0.926  20.607  0.00  0.00    -0.203 F 
ATOM      3  F   UNL     1       4.915   0.452  22.676  0.00  0.00    -0.205 F 
ATOM     29  C   UNL     1       0.789   0.439  22.548  0.00  0.00    +0.070 A 
ATOM     35  C   UNL     1       1.519  -0.253  21.581  0.00  0.00    +0.147 A 
ATOM     36  C   UNL     1       1.452   1.136  23.558  0.00  0.00    +0.029 A 
ATOM     37  C   UNL     1       2.913  -0.249  21.625  0.00  0.00    +0.078 A 
ATOM     38  C   UNL     1       2.847   1.140  23.601  0.00  0.00    +0.040 A 
ATOM     39  C   UNL     1       3.577   0.447  22.634  0.00  0.00    +0.126 A 
ENDBRANCH  11  29
ENDBRANCH  14   9
BRANCH  15  18
ATOM      4  O   UNL     1      -3.568   0.722  26.577  0.00  0.00    -0.274 OA
ATOM     10  N   UNL     1      -1.920   1.922  25.454  0.00  0.00    -0.302 N 
ATOM     18  C   UNL     1      -3.225   1.584  25.774  0.00  0.00    +0.234 C 
ATOM     41  H   UNL     1      -1.756   2.594  24.710  0.00  0.00    +0.150 HD
BRANCH  10  20
ATOM     20  C   UNL     1      -0.769   1.280  26.047  0.00  0.00    +0.163 C 
BRANCH  20  25
ATOM      7  O   UNL     1      -0.855   2.837  27.911  0.00  0.00    -0.274 OA
ATOM     13  N   UNL     1       1.184   2.373  26.959  0.00  0.00    -0.328 N 
ATOM     25  C   UNL     1      -0.186   2.253  27.061  0.00  0.00    +0.231 C 
ATOM     44  H   UNL     1       1.726   1.865  26.267  0.00  0.00    +0.145 HD
ATOM     45  H   UNL     1       1.701   2.980  27.585  0.00  0.00    +0.145 HD
ENDBRANCH  20  25
BRANCH  20  23
ATOM     23  C   UNL     1      -1.130  -0.048  26.724  0.00  0.00    +0.069 C 
BRANCH  23  24
ATOM     12  N   UNL     1      -0.518  -2.929  24.525  0.00  0.00    -0.360 N 
ATOM     24  C   UNL     1      -1.161  -1.207  25.769  0.00  0.00    -0.020 A 
ATOM     26  C   UNL     1      -2.298  -1.704  25.074  0.00  0.00    +0.003 A 
ATOM     27  C   UNL     1      -0.081  -1.981  25.410  0.00  0.00    +0.087 A 
ATOM     28  C   UNL     1      -1.868  -2.783  24.301  0.00  0.00    +0.047 A 
ATOM     30  C   UNL     1      -3.659  -1.337  25.030  0.00  0.00    +0.010 A 
ATOM     31  C   UNL     1      -2.732  -3.518  23.481  0.00  0.00    +0.026 A 
ATOM     33  C   UNL     1      -4.534  -2.062  24.214  0.00  0.00    +0.001 A 
ATOM     34  C   UNL     1      -4.077  -3.137  23.452  0.00  0.00    +0.002 A 
ATOM     43  H   UNL     1       0.067  -3.634  24.096  0.00  0.00    +0.165 HD
ENDBRANCH  23  24
ENDBRANCH  20  23
ENDBRANCH  10  20
ENDBRANCH  15  18
BRANCH  19  21
ATOM     21  C   UNL     1      -2.619   5.825  24.373  0.00  0.00    +0.164 C 
BRANCH  21   1
ATOM      1  S   UNL     1      -0.919   6.119  24.883  0.00  0.00    -0.155 S 
ATOM     32  C   UNL     1      -0.196   4.542  24.366  0.00  0.00    +0.085 C 
ENDBRANCH  21   1
ENDBRANCH  19  21
TORSDOF 9
ENDMDL
MODEL 9
REMARK VINA RESULT:       8.2      2.547      5.176
REMARK  Name = 11882025
REMARK  10 active torsions:
REMARK  status: ('A' for Active; 'I' for Inactive)
REMARK    1  A    between atoms: S_1  and  C_21
REMARK    2  A    between atoms: S_1  and  C_32
REMARK    3  A    between atoms: N_9  and  C_14
REMARK    4  A    between atoms: N_10  and  C_20
REMARK    5  A    between atoms: N_11  and  C_29
REMARK    6  A    between atoms: C_15  and  C_18
REMARK    7  A    between atoms: C_19  and  C_21
REMARK    8  A    between atoms: C_20  and  C_23
REMARK    9  A    between atoms: C_20  and  C_25
REMARK   10  A    between atoms: C_23  and  C_24
REMARK                            x       y       z     vdW  Elec       q    Type
REMARK                         _______ _______ _______ _____ _____    ______ ____
ROOT
ATOM      5  O   UNL     1      -2.711   5.479  23.394  0.00  0.00    -0.275 OA
ATOM      8  N   UNL     1      -4.221   4.156  24.547  0.00  0.00    -0.287 N 
ATOM     14  C   UNL     1      -5.493   2.837  26.058  0.00  0.00    +0.094 C 
ATOM     15  C   UNL     1      -3.756   4.506  25.881  0.00  0.00    +0.164 C 
ATOM     16  C   UNL     1      -4.835   3.985  26.828  0.00  0.00    +0.055 C 
ATOM     17  C   UNL     1      -5.392   3.281  24.602  0.00  0.00    +0.131 C 
ATOM     19  C   UNL     1      -3.701   4.745  23.403  0.00  0.00    +0.226 C 
ENDROOT
BRANCH  14   9
ATOM      6  O   UNL     1      -4.718   0.927  24.069  0.00  0.00    -0.252 OA
ATOM      9  N   UNL     1      -4.819   1.583  26.284  0.00  0.00    -0.295 N 
ATOM     11  N   UNL     1      -3.832  -0.428  25.768  0.00  0.00    -0.267 N 
ATOM     22  C   UNL     1      -4.473   0.701  25.252  0.00  0.00    +0.304 C 
ATOM     40  H   UNL     1      -4.642   1.294  27.241  0.00  0.00    +0.151 HD
ATOM     42  H   UNL     1      -3.708  -0.463  26.777  0.00  0.00    +0.156 HD
BRANCH  11  29
ATOM      2  F   UNL     1      -1.224  -1.337  26.135  0.00  0.00    -0.203 F 
ATOM      3  F   UNL     1      -1.877  -4.803  22.982  0.00  0.00    -0.205 F 
ATOM     29  C   UNL     1      -3.330  -1.543  25.058  0.00  0.00    +0.070 A 
ATOM     35  C   UNL     1      -2.019  -1.974  25.265  0.00  0.00    +0.147 A 
ATOM     36  C   UNL     1      -4.150  -2.213  24.150  0.00  0.00    +0.029 A 
ATOM     37  C   UNL     1      -1.529  -3.075  24.563  0.00  0.00    +0.078 A 
ATOM     38  C   UNL     1      -3.659  -3.314  23.448  0.00  0.00    +0.040 A 
ATOM     39  C   UNL     1      -2.348  -3.745  23.655  0.00  0.00    +0.126 A 
ENDBRANCH  11  29
ENDBRANCH  14   9
BRANCH  15  18
ATOM      4  O   UNL     1      -2.163   3.316  27.201  0.00  0.00    -0.274 OA
ATOM     10  N   UNL     1      -1.608   3.896  25.016  0.00  0.00    -0.302 N 
ATOM     18  C   UNL     1      -2.439   3.833  26.123  0.00  0.00    +0.234 C 
ATOM     41  H   UNL     1      -1.975   4.274  24.147  0.00  0.00    +0.150 HD
BRANCH  10  20
ATOM     20  C   UNL     1      -0.273   3.342  24.998  0.00  0.00    +0.163 C 
BRANCH  20  25
ATOM      7  O   UNL     1      -1.001   1.178  25.829  0.00  0.00    -0.274 OA
ATOM     13  N   UNL     1       0.687   2.271  26.940  0.00  0.00    -0.328 N 
ATOM     25  C   UNL     1      -0.268   2.156  25.950  0.00  0.00    +0.231 C 
ATOM     44  H   UNL     1       1.302   3.075  27.014  0.00  0.00    +0.145 HD
ATOM     45  H   UNL     1       0.805   1.542  27.635  0.00  0.00    +0.145 HD
ENDBRANCH  20  25
BRANCH  20  23
ATOM     23  C   UNL     1       0.154   2.903  23.591  0.00  0.00    +0.069 C 
BRANCH  23  24
ATOM     12  N   UNL     1       0.753  -0.723  23.602  0.00  0.00    -0.360 N 
ATOM     24  C   UNL     1       0.672   1.494  23.545  0.00  0.00    -0.020 A 
ATOM     26  C   UNL     1       2.018   1.092  23.324  0.00  0.00    +0.003 A 
ATOM     27  C   UNL     1      -0.082   0.355  23.713  0.00  0.00    +0.087 A 
ATOM     28  C   UNL     1       2.042  -0.303  23.364  0.00  0.00    +0.047 A 
ATOM     30  C   UNL     1       3.224   1.785  23.091  0.00  0.00    +0.010 A 
ATOM     31  C   UNL     1       3.215  -1.044  23.183  0.00  0.00    +0.026 A 
ATOM     33  C   UNL     1       4.405   1.058  22.909  0.00  0.00    +0.001 A 
ATOM     34  C   UNL     1       4.399  -0.336  22.954  0.00  0.00    +0.002 A 
ATOM     43  H   UNL     1       0.466  -1.689  23.683  0.00  0.00    +0.165 HD
ENDBRANCH  23  24
ENDBRANCH  20  23
ENDBRANCH  10  20
ENDBRANCH  15  18
BRANCH  19  21
ATOM     21  C   UNL     1      -4.423   4.422  22.119  0.00  0.00    +0.164 C 
BRANCH  21   1
ATOM      1  S   UNL     1      -3.337   3.388  21.127  0.00  0.00    -0.155 S 
ATOM     32  C   UNL     1      -2.910   2.152  22.378  0.00  0.00    +0.085 C 
ENDBRANCH  21   1
ENDBRANCH  19  21
TORSDOF 9
ENDMDL
