MODEL 1
REMARK VINA RESULT:      -2.9      0.000      0.000
REMARK  Name = 45361543
REMARK  10 active torsions:
REMARK  status: ('A' for Active; 'I' for Inactive)
REMARK    1  A    between atoms: O_1  and  C_12
REMARK    2  A    between atoms: N_5  and  C_16
REMARK    3  A    between atoms: N_6  and  C_26
REMARK    4  A    between atoms: C_9  and  C_19
REMARK    5  A    between atoms: C_11  and  C_21
REMARK    6  A    between atoms: C_15  and  C_20
REMARK    7  A    between atoms: C_20  and  C_22
REMARK    8  A    between atoms: C_20  and  C_23
REMARK    9  A    between atoms: C_24  and  C_25
REMARK   10  A    between atoms: C_26  and  C_28
REMARK                            x       y       z     vdW  Elec       q    Type
REMARK                         _______ _______ _______ _____ _____    ______ ____
ROOT
ATOM      9  C   UNL     1      -2.909  -1.319  24.856  0.00  0.00    -0.027 C 
ATOM     10  C   UNL     1      -2.524   0.035  24.175  0.00  0.00    +0.028 C 
ATOM     11  C   UNL     1      -0.977   0.294  24.280  0.00  0.00    +0.012 C 
ATOM     12  C   UNL     1      -3.431   1.197  24.674  0.00  0.00    +0.122 C 
ATOM     13  C   UNL     1      -4.415  -1.597  24.636  0.00  0.00    +0.007 C 
ATOM     14  C   UNL     1      -2.117  -2.465  24.187  0.00  0.00    +0.009 C 
ATOM     15  C   UNL     1      -4.937   0.871  24.547  0.00  0.00    +0.029 C 
ATOM     16  C   UNL     1      -0.189  -0.900  23.671  0.00  0.00    +0.076 C 
ATOM     17  C   UNL     1      -5.309  -0.481  25.158  0.00  0.00    +0.007 C 
ATOM     18  C   UNL     1      -0.610  -2.257  24.234  0.00  0.00    +0.023 C 
ATOM     19  C   UNL     1      -2.621  -1.322  26.378  0.00  0.00    +0.011 C 
ATOM     21  C   UNL     1      -0.523   1.597  23.603  0.00  0.00    +0.010 C 
ENDROOT
BRANCH  16   5
ATOM      3  O   UNL     1       1.736  -0.205  21.657  0.00  0.00    -0.268 OA
ATOM      5  N   UNL     1       1.239  -0.749  23.855  0.00  0.00    -0.307 N 
ATOM     24  C   UNL     1       2.088  -0.410  22.815  0.00  0.00    +0.264 C 
ATOM     34  H   UNL     1       1.632  -0.957  24.769  0.00  0.00    +0.149 HD
BRANCH  24  25
ATOM      7  N   UNL     1       4.085  -1.414  23.722  0.00  0.00    -0.247 NA
ATOM      8  N   UNL     1       5.563   0.918  23.236  0.00  0.00    -0.259 NA
ATOM     25  C   UNL     1       3.530  -0.321  23.163  0.00  0.00    +0.143 A 
ATOM     27  C   UNL     1       4.256   0.824  22.924  0.00  0.00    +0.143 A 
ATOM     29  C   UNL     1       5.393  -1.320  24.036  0.00  0.00    +0.131 A 
ATOM     31  C   UNL     1       6.119  -0.174  23.797  0.00  0.00    +0.130 A 
ENDBRANCH  24  25
ENDBRANCH  16   5
BRANCH  12   1
ATOM      1  O   UNL     1      -3.197   2.360  23.879  0.00  0.00    -0.391 OA
ATOM     35  H   UNL     1      -3.407   2.142  22.955  0.00  0.00    +0.210 HD
ENDBRANCH  12   1
BRANCH  15  20
ATOM     20  C   UNL     1      -5.812   1.970  25.163  0.00  0.00    +0.077 C 
ATOM     22  C   UNL     1      -7.087   2.145  24.345  0.00  0.00    +0.017 C 
BRANCH  20  23
ATOM      2  O   UNL     1      -5.020   4.109  24.351  0.00  0.00    -0.276 OA
ATOM      6  N   UNL     1      -4.328   3.393  26.446  0.00  0.00    -0.308 N 
ATOM     23  C   UNL     1      -5.024   3.272  25.252  0.00  0.00    +0.217 C 
ATOM     36  H   UNL     1      -4.365   2.637  27.124  0.00  0.00    +0.149 HD
BRANCH   6  26
ATOM     26  C   UNL     1      -3.508   4.540  26.761  0.00  0.00    +0.178 C 
BRANCH  26  28
ATOM      4  O   UNL     1      -1.393   3.478  26.210  0.00  0.00    -0.466 OA
ATOM     28  C   UNL     1      -2.218   4.536  25.993  0.00  0.00    +0.122 A 
ATOM     30  C   UNL     1      -1.664   5.403  25.081  0.00  0.00    +0.046 A 
ATOM     32  C   UNL     1      -0.418   4.841  24.713  0.00  0.00    +0.041 A 
ATOM     33  C   UNL     1      -0.299   3.672  25.426  0.00  0.00    +0.195 A 
ENDBRANCH  26  28
ENDBRANCH   6  26
ENDBRANCH  20  23
ENDBRANCH  15  20
TORSDOF 7
ENDMDL
