MODEL 1
REMARK VINA RESULT:      27.8      0.000      0.000
REMARK  Name = 11884253
REMARK  3 active torsions:
REMARK  status: ('A' for Active; 'I' for Inactive)
REMARK    1  A    between atoms: C_11  and  C_18
REMARK    2  A    between atoms: C_27  and  C_29
REMARK    3  A    between atoms: C_32  and  C_35
REMARK                            x       y       z     vdW  Elec       q    Type
REMARK                         _______ _______ _______ _____ _____    ______ ____
ROOT
ATOM      4  O   UNL     1      -3.516   4.608  27.087  0.00  0.00    -0.275 OA
ATOM      5  O   UNL     1      -1.245   4.230  23.846  0.00  0.00    -0.273 OA
ATOM      6  O   UNL     1       0.297  -0.822  23.996  0.00  0.00    -0.270 OA
ATOM      7  N   UNL     1      -2.717   2.725  25.975  0.00  0.00    -0.298 N 
ATOM      8  N   UNL     1      -0.561   1.159  24.824  0.00  0.00    -0.283 N 
ATOM     10  N   UNL     1       0.692   3.255  23.155  0.00  0.00    -0.283 N 
ATOM     12  C   UNL     1      -0.322   2.522  25.280  0.00  0.00    +0.180 C 
ATOM     13  C   UNL     1      -1.323   2.973  26.350  0.00  0.00    +0.139 C 
ATOM     14  C   UNL     1      -2.984   1.535  25.163  0.00  0.00    +0.127 C 
ATOM     15  C   UNL     1      -1.834   0.540  25.200  0.00  0.00    +0.128 C 
ATOM     18  C   UNL     1      -3.714   3.605  26.406  0.00  0.00    +0.219 C 
ATOM     21  C   UNL     1      -0.363   3.389  24.031  0.00  0.00    +0.239 C 
ATOM     22  C   UNL     1       0.420   0.384  24.214  0.00  0.00    +0.249 C 
ATOM     23  C   UNL     1       1.679   1.038  23.767  0.00  0.00    +0.059 A 
ATOM     24  C   UNL     1       1.746   2.318  23.195  0.00  0.00    +0.046 A 
ATOM     25  C   UNL     1       2.827   0.224  23.769  0.00  0.00    +0.023 A 
ATOM     26  C   UNL     1       2.941   2.725  22.574  0.00  0.00    +0.024 A 
ATOM     27  C   UNL     1       4.018   0.662  23.193  0.00  0.00    -0.017 A 
ATOM     28  C   UNL     1       4.071   1.909  22.583  0.00  0.00    +0.010 A 
ATOM     37  H   UNL     1       0.770   3.984  22.450  0.00  0.00    +0.155 HD
ENDROOT
BRANCH  18  11
ATOM      9  N   UNL     1      -7.024   1.299  25.014  0.00  0.00    -0.316 NA
ATOM     11  C   UNL     1      -5.124   3.282  26.016  0.00  0.00    +0.078 C 
ATOM     16  C   UNL     1      -5.671   2.157  26.896  0.00  0.00    +0.028 C 
ATOM     17  C   UNL     1      -5.187   2.883  24.540  0.00  0.00    +0.028 C 
ATOM     19  C   UNL     1      -7.049   1.700  26.421  0.00  0.00    +0.081 C 
ATOM     20  C   UNL     1      -6.582   2.397  24.154  0.00  0.00    +0.081 C 
ATOM     36  H   UNL     1      -6.380   0.515  24.904  0.00  0.00    +0.122 HD
ENDBRANCH  18  11
BRANCH  27  29
ATOM     29  C   UNL     1       5.189  -0.187  23.210  0.00  0.00    -0.017 A 
ATOM     30  C   UNL     1       6.462   0.380  23.255  0.00  0.00    +0.021 A 
ATOM     31  C   UNL     1       5.044  -1.575  23.183  0.00  0.00    +0.008 A 
ATOM     32  C   UNL     1       7.591  -0.441  23.271  0.00  0.00    +0.055 A 
ATOM     33  C   UNL     1       6.172  -2.394  23.199  0.00  0.00    +0.001 A 
ATOM     34  C   UNL     1       7.445  -1.828  23.243  0.00  0.00    +0.012 A 
BRANCH  32  35
ATOM      1  F   UNL     1       9.743  -0.181  22.259  0.00  0.00    -0.166 F 
ATOM      2  F   UNL     1       8.944   1.531  23.324  0.00  0.00    -0.166 F 
ATOM      3  F   UNL     1       9.652  -0.201  24.432  0.00  0.00    -0.166 F 
ATOM     35  C   UNL     1       8.953   0.165  23.318  0.00  0.00    +0.417 C 
ENDBRANCH  32  35
ENDBRANCH  27  29
TORSDOF 3
ENDMDL
MODEL 2
REMARK VINA RESULT:      30.1      5.276     10.755
REMARK  Name = 11884253
REMARK  3 active torsions:
REMARK  status: ('A' for Active; 'I' for Inactive)
REMARK    1  A    between atoms: C_11  and  C_18
REMARK    2  A    between atoms: C_27  and  C_29
REMARK    3  A    between atoms: C_32  and  C_35
REMARK                            x       y       z     vdW  Elec       q    Type
REMARK                         _______ _______ _______ _____ _____    ______ ____
ROOT
ATOM      4  O   UNL     1       5.735  -2.425  23.131  0.00  0.00    -0.275 OA
ATOM      5  O   UNL     1       2.666  -0.778  21.213  0.00  0.00    -0.273 OA
ATOM      6  O   UNL     1       0.874   2.841  24.622  0.00  0.00    -0.270 OA
ATOM      7  N   UNL     1       4.542  -0.465  23.526  0.00  0.00    -0.298 N 
ATOM      8  N   UNL     1       2.056   0.975  23.936  0.00  0.00    -0.283 N 
ATOM     10  N   UNL     1       0.552  -0.022  21.591  0.00  0.00    -0.283 N 
ATOM     12  C   UNL     1       2.040  -0.420  23.517  0.00  0.00    +0.180 C 
ATOM     13  C   UNL     1       3.317  -1.171  23.911  0.00  0.00    +0.139 C 
ATOM     14  C   UNL     1       4.502   0.999  23.557  0.00  0.00    +0.127 C 
ATOM     15  C   UNL     1       3.337   1.528  24.380  0.00  0.00    +0.128 C 
ATOM     18  C   UNL     1       5.676  -1.199  23.164  0.00  0.00    +0.219 C 
ATOM     21  C   UNL     1       1.809  -0.399  22.014  0.00  0.00    +0.239 C 
ATOM     22  C   UNL     1       0.897   1.730  24.091  0.00  0.00    +0.249 C 
ATOM     23  C   UNL     1      -0.387   1.193  23.568  0.00  0.00    +0.059 A 
ATOM     24  C   UNL     1      -0.515   0.479  22.365  0.00  0.00    +0.046 A 
ATOM     25  C   UNL     1      -1.547   1.597  24.255  0.00  0.00    +0.023 A 
ATOM     26  C   UNL     1      -1.801   0.250  21.843  0.00  0.00    +0.024 A 
ATOM     27  C   UNL     1      -2.815   1.319  23.747  0.00  0.00    -0.017 A 
ATOM     28  C   UNL     1      -2.941   0.656  22.533  0.00  0.00    +0.010 A 
ATOM     37  H   UNL     1       0.341  -0.223  20.617  0.00  0.00    +0.155 HD
ENDROOT
BRANCH  18  11
ATOM      9  N   UNL     1       9.684   0.241  23.432  0.00  0.00    -0.316 NA
ATOM     11  C   UNL     1       6.906  -0.421  22.809  0.00  0.00    +0.078 C 
ATOM     16  C   UNL     1       8.062  -1.373  22.499  0.00  0.00    +0.028 C 
ATOM     17  C   UNL     1       7.284   0.522  23.952  0.00  0.00    +0.028 C 
ATOM     19  C   UNL     1       9.368  -0.610  22.285  0.00  0.00    +0.081 C 
ATOM     20  C   UNL     1       8.620   1.213  23.685  0.00  0.00    +0.081 C 
ATOM     36  H   UNL     1       9.798  -0.346  24.259  0.00  0.00    +0.122 HD
ENDBRANCH  18  11
BRANCH  27  29
ATOM     29  C   UNL     1      -3.995   1.738  24.472  0.00  0.00    -0.017 A 
ATOM     30  C   UNL     1      -4.277   3.096  24.620  0.00  0.00    +0.021 A 
ATOM     31  C   UNL     1      -4.851   0.783  25.021  0.00  0.00    +0.008 A 
ATOM     32  C   UNL     1      -5.415   3.499  25.321  0.00  0.00    +0.055 A 
ATOM     33  C   UNL     1      -5.988   1.187  25.721  0.00  0.00    +0.001 A 
ATOM     34  C   UNL     1      -6.271   2.544  25.870  0.00  0.00    +0.012 A 
BRANCH  32  35
ATOM      1  F   UNL     1      -5.462   5.690  24.361  0.00  0.00    -0.166 F 
ATOM      2  F   UNL     1      -7.025   5.206  25.785  0.00  0.00    -0.166 F 
ATOM      3  F   UNL     1      -4.990   5.532  26.478  0.00  0.00    -0.166 F 
ATOM     35  C   UNL     1      -5.717   4.951  25.481  0.00  0.00    +0.417 C 
ENDBRANCH  32  35
ENDBRANCH  27  29
TORSDOF 3
ENDMDL
MODEL 3
REMARK VINA RESULT:      30.3      1.968      2.625
REMARK  Name = 11884253
REMARK  3 active torsions:
REMARK  status: ('A' for Active; 'I' for Inactive)
REMARK    1  A    between atoms: C_11  and  C_18
REMARK    2  A    between atoms: C_27  and  C_29
REMARK    3  A    between atoms: C_32  and  C_35
REMARK                            x       y       z     vdW  Elec       q    Type
REMARK                         _______ _______ _______ _____ _____    ______ ____
ROOT
ATOM      4  O   UNL     1      -4.726   3.848  22.363  0.00  0.00    -0.275 OA
ATOM      5  O   UNL     1      -2.442   0.594  22.333  0.00  0.00    -0.273 OA
ATOM      6  O   UNL     1       1.276   1.657  25.935  0.00  0.00    -0.270 OA
ATOM      7  N   UNL     1      -3.105   3.088  23.852  0.00  0.00    -0.298 N 
ATOM      8  N   UNL     1      -0.434   2.125  24.450  0.00  0.00    -0.283 N 
ATOM     10  N   UNL     1      -0.253  -0.025  22.425  0.00  0.00    -0.283 N 
ATOM     12  C   UNL     1      -0.872   2.274  23.069  0.00  0.00    +0.180 C 
ATOM     13  C   UNL     1      -2.001   3.300  22.914  0.00  0.00    +0.139 C 
ATOM     14  C   UNL     1      -2.760   2.557  25.174  0.00  0.00    +0.127 C 
ATOM     15  C   UNL     1      -1.280   2.711  25.491  0.00  0.00    +0.128 C 
ATOM     18  C   UNL     1      -4.411   3.402  23.463  0.00  0.00    +0.219 C 
ATOM     21  C   UNL     1      -1.276   0.881  22.610  0.00  0.00    +0.239 C 
ATOM     22  C   UNL     1       0.814   1.614  24.794  0.00  0.00    +0.249 C 
ATOM     23  C   UNL     1       1.635   0.952  23.746  0.00  0.00    +0.059 A 
ATOM     24  C   UNL     1       1.114   0.128  22.736  0.00  0.00    +0.046 A 
ATOM     25  C   UNL     1       3.030   1.036  23.915  0.00  0.00    +0.023 A 
ATOM     26  C   UNL     1       1.999  -0.648  21.966  0.00  0.00    +0.024 A 
ATOM     27  C   UNL     1       3.895   0.296  23.110  0.00  0.00    -0.017 A 
ATOM     28  C   UNL     1       3.378  -0.557  22.144  0.00  0.00    +0.010 A 
ATOM     37  H   UNL     1      -0.503  -0.867  21.913  0.00  0.00    +0.155 HD
ENDROOT
BRANCH  18  11
ATOM      9  N   UNL     1      -6.244   2.240  27.138  0.00  0.00    -0.316 NA
ATOM     11  C   UNL     1      -5.494   3.190  24.478  0.00  0.00    +0.078 C 
ATOM     16  C   UNL     1      -5.193   3.991  25.746  0.00  0.00    +0.028 C 
ATOM     17  C   UNL     1      -5.629   1.703  24.806  0.00  0.00    +0.028 C 
ATOM     19  C   UNL     1      -6.197   3.674  26.853  0.00  0.00    +0.081 C 
ATOM     20  C   UNL     1      -6.614   1.472  25.949  0.00  0.00    +0.081 C 
ATOM     36  H   UNL     1      -5.324   1.935  27.455  0.00  0.00    +0.122 HD
ENDBRANCH  18  11
BRANCH  27  29
ATOM     29  C   UNL     1       5.327   0.401  23.296  0.00  0.00    -0.017 A 
ATOM     30  C   UNL     1       5.874   1.549  23.866  0.00  0.00    +0.021 A 
ATOM     31  C   UNL     1       6.158  -0.649  22.905  0.00  0.00    +0.008 A 
ATOM     32  C   UNL     1       7.255   1.650  24.044  0.00  0.00    +0.055 A 
ATOM     33  C   UNL     1       7.538  -0.548  23.082  0.00  0.00    +0.001 A 
ATOM     34  C   UNL     1       8.086   0.600  23.653  0.00  0.00    +0.012 A 
BRANCH  32  35
ATOM      1  F   UNL     1       7.714   3.991  23.873  0.00  0.00    -0.166 F 
ATOM      2  F   UNL     1       7.278   3.216  25.851  0.00  0.00    -0.166 F 
ATOM      3  F   UNL     1       9.178   2.754  24.901  0.00  0.00    -0.166 F 
ATOM     35  C   UNL     1       7.842   2.878  24.654  0.00  0.00    +0.417 C 
ENDBRANCH  32  35
ENDBRANCH  27  29
TORSDOF 3
ENDMDL
