MODEL 1
REMARK VINA RESULT:       3.6      0.000      0.000
REMARK  Name = 11865911
REMARK  5 active torsions:
REMARK  status: ('A' for Active; 'I' for Inactive)
REMARK    1  A    between atoms: O_5  and  C_28
REMARK    2  A    between atoms: O_5  and  C_29
REMARK    3  A    between atoms: N_9  and  C_16
REMARK    4  A    between atoms: C_19  and  C_21
REMARK    5  A    between atoms: C_27  and  C_28
REMARK                            x       y       z     vdW  Elec       q    Type
REMARK                         _______ _______ _______ _____ _____    ______ ____
ROOT
ATOM      1  O   UNL     1      -0.821   1.138  25.510  0.00  0.00    -0.273 OA
ATOM      2  O   UNL     1      -5.040  -2.481  24.142  0.00  0.00    -0.274 OA
ATOM      3  O   UNL     1       0.598   1.195  22.849  0.00  0.00    -0.275 OA
ATOM      6  N   UNL     1       0.346  -0.826  23.948  0.00  0.00    -0.288 N 
ATOM      7  N   UNL     1      -2.974   0.367  25.115  0.00  0.00    -0.287 N 
ATOM      8  N   UNL     1      -2.798  -2.583  24.408  0.00  0.00    -0.309 N 
ATOM     10  C   UNL     1      -1.110  -0.773  24.064  0.00  0.00    +0.182 C 
ATOM     11  C   UNL     1      -1.491  -2.077  24.771  0.00  0.00    +0.104 C 
ATOM     12  C   UNL     1      -3.938  -0.346  24.270  0.00  0.00    +0.164 C 
ATOM     13  C   UNL     1      -0.352  -3.022  24.397  0.00  0.00    +0.043 C 
ATOM     14  C   UNL     1       0.860  -2.104  24.434  0.00  0.00    +0.110 C 
ATOM     15  C   UNL     1      -5.300   0.240  24.690  0.00  0.00    +0.055 C 
ATOM     16  C   UNL     1      -4.964   1.618  25.251  0.00  0.00    +0.092 C 
ATOM     17  C   UNL     1      -1.592   0.356  24.957  0.00  0.00    +0.239 C 
ATOM     18  C   UNL     1      -3.633   1.368  25.945  0.00  0.00    +0.131 C 
ATOM     20  C   UNL     1      -3.978  -1.878  24.340  0.00  0.00    +0.234 C 
ATOM     21  C   UNL     1       1.068   0.126  23.243  0.00  0.00    +0.219 C 
ATOM     30  H   UNL     1      -2.893  -3.593  24.392  0.00  0.00    +0.149 HD
ENDROOT
BRANCH  21  19
ATOM     19  C   UNL     1       2.506  -0.210  22.979  0.00  0.00    +0.075 C 
ATOM     22  C   UNL     1       3.346   1.068  22.968  0.00  0.00    +0.013 C 
ATOM     23  C   UNL     1       3.010  -1.204  24.027  0.00  0.00    +0.013 C 
ATOM     24  C   UNL     1       4.832   0.764  22.795  0.00  0.00    +0.001 C 
ATOM     25  C   UNL     1       4.497  -1.502  23.853  0.00  0.00    +0.001 C 
ATOM     26  C   UNL     1       5.331  -0.225  23.846  0.00  0.00    +0.000 C 
ENDBRANCH  21  19
BRANCH  16   9
ATOM      4  O   UNL     1      -3.134   3.863  25.159  0.00  0.00    -0.273 OA
ATOM      9  N   UNL     1      -4.838   2.601  24.201  0.00  0.00    -0.309 N 
ATOM     27  C   UNL     1      -3.927   3.646  24.247  0.00  0.00    +0.239 C 
ATOM     31  H   UNL     1      -5.484   2.548  23.419  0.00  0.00    +0.149 HD
BRANCH  27  28
ATOM     28  C   UNL     1      -4.014   4.520  23.014  0.00  0.00    +0.255 C 
BRANCH  28   5
ATOM      5  O   UNL     1      -3.905   3.741  21.842  0.00  0.00    -0.374 OA
ATOM     29  C   UNL     1      -2.916   2.724  21.971  0.00  0.00    +0.194 C 
ENDBRANCH  28   5
ENDBRANCH  27  28
ENDBRANCH  16   9
TORSDOF 4
ENDMDL
MODEL 2
REMARK VINA RESULT:       5.1      2.061      4.397
REMARK  Name = 11865911
REMARK  5 active torsions:
REMARK  status: ('A' for Active; 'I' for Inactive)
REMARK    1  A    between atoms: O_5  and  C_28
REMARK    2  A    between atoms: O_5  and  C_29
REMARK    3  A    between atoms: N_9  and  C_16
REMARK    4  A    between atoms: C_19  and  C_21
REMARK    5  A    between atoms: C_27  and  C_28
REMARK                            x       y       z     vdW  Elec       q    Type
REMARK                         _______ _______ _______ _____ _____    ______ ____
ROOT
ATOM      1  O   UNL     1      -1.846   1.449  22.446  0.00  0.00    -0.273 OA
ATOM      2  O   UNL     1      -3.695   4.378  27.003  0.00  0.00    -0.274 OA
ATOM      3  O   UNL     1       0.518   0.080  23.724  0.00  0.00    -0.275 OA
ATOM      6  N   UNL     1       0.429   2.393  23.711  0.00  0.00    -0.288 N 
ATOM      7  N   UNL     1      -3.250   2.126  24.165  0.00  0.00    -0.287 N 
ATOM      8  N   UNL     1      -1.893   4.411  25.639  0.00  0.00    -0.309 N 
ATOM     10  C   UNL     1      -0.866   2.514  24.378  0.00  0.00    +0.182 C 
ATOM     11  C   UNL     1      -1.107   4.022  24.487  0.00  0.00    +0.104 C 
ATOM     12  C   UNL     1      -3.470   2.453  25.577  0.00  0.00    +0.164 C 
ATOM     13  C   UNL     1       0.305   4.601  24.496  0.00  0.00    +0.043 C 
ATOM     14  C   UNL     1       1.032   3.706  23.504  0.00  0.00    +0.110 C 
ATOM     15  C   UNL     1      -4.982   2.231  25.776  0.00  0.00    +0.055 C 
ATOM     16  C   UNL     1      -5.366   1.236  24.686  0.00  0.00    +0.092 C 
ATOM     17  C   UNL     1      -2.012   1.955  23.555  0.00  0.00    +0.239 C 
ATOM     18  C   UNL     1      -4.478   1.666  23.528  0.00  0.00    +0.131 C 
ATOM     20  C   UNL     1      -3.071   3.848  26.076  0.00  0.00    +0.234 C 
ATOM     21  C   UNL     1       1.063   1.171  23.540  0.00  0.00    +0.219 C 
ATOM     30  H   UNL     1      -1.661   5.308  26.052  0.00  0.00    +0.149 HD
ENDROOT
BRANCH  21  19
ATOM     19  C   UNL     1       2.493   1.235  23.095  0.00  0.00    +0.075 C 
ATOM     22  C   UNL     1       3.419   0.910  24.268  0.00  0.00    +0.013 C 
ATOM     23  C   UNL     1       2.718   0.278  21.922  0.00  0.00    +0.013 C 
ATOM     24  C   UNL     1       4.883   0.872  23.838  0.00  0.00    +0.001 C 
ATOM     25  C   UNL     1       4.183   0.240  21.497  0.00  0.00    +0.001 C 
ATOM     26  C   UNL     1       5.102  -0.087  22.670  0.00  0.00    +0.000 C 
ENDBRANCH  21  19
BRANCH  16   9
ATOM      4  O   UNL     1      -3.943  -0.788  23.178  0.00  0.00    -0.273 OA
ATOM      9  N   UNL     1      -5.090  -0.123  25.089  0.00  0.00    -0.309 N 
ATOM     27  C   UNL     1      -4.397  -1.024  24.293  0.00  0.00    +0.239 C 
ATOM     31  H   UNL     1      -5.467  -0.443  25.977  0.00  0.00    +0.149 HD
BRANCH  27  28
ATOM     28  C   UNL     1      -4.253  -2.372  24.967  0.00  0.00    +0.255 C 
BRANCH  28   5
ATOM      5  O   UNL     1      -3.160  -3.084  24.429  0.00  0.00    -0.374 OA
ATOM     29  C   UNL     1      -1.917  -2.460  24.736  0.00  0.00    +0.194 C 
ENDBRANCH  28   5
ENDBRANCH  27  28
ENDBRANCH  16   9
TORSDOF 4
ENDMDL
MODEL 3
REMARK VINA RESULT:       6.2      1.277      1.563
REMARK  Name = 11865911
REMARK  5 active torsions:
REMARK  status: ('A' for Active; 'I' for Inactive)
REMARK    1  A    between atoms: O_5  and  C_28
REMARK    2  A    between atoms: O_5  and  C_29
REMARK    3  A    between atoms: N_9  and  C_16
REMARK    4  A    between atoms: C_19  and  C_21
REMARK    5  A    between atoms: C_27  and  C_28
REMARK                            x       y       z     vdW  Elec       q    Type
REMARK                         _______ _______ _______ _____ _____    ______ ____
ROOT
ATOM      1  O   UNL     1      -0.585   1.601  26.028  0.00  0.00    -0.273 OA
ATOM      2  O   UNL     1      -5.564  -0.474  24.113  0.00  0.00    -0.274 OA
ATOM      3  O   UNL     1       0.803   1.951  23.373  0.00  0.00    -0.275 OA
ATOM      6  N   UNL     1       0.063  -0.154  23.987  0.00  0.00    -0.288 N 
ATOM      7  N   UNL     1      -2.862   1.482  25.594  0.00  0.00    -0.287 N 
ATOM      8  N   UNL     1      -3.416  -1.168  24.214  0.00  0.00    -0.309 N 
ATOM     10  C   UNL     1      -1.335   0.216  24.199  0.00  0.00    +0.182 C 
ATOM     11  C   UNL     1      -2.024  -1.090  24.606  0.00  0.00    +0.104 C 
ATOM     12  C   UNL     1      -3.972   1.242  24.666  0.00  0.00    +0.164 C 
ATOM     13  C   UNL     1      -1.153  -2.162  23.957  0.00  0.00    +0.043 C 
ATOM     14  C   UNL     1       0.248  -1.595  24.133  0.00  0.00    +0.110 C 
ATOM     15  C   UNL     1      -5.148   2.018  25.290  0.00  0.00    +0.055 C 
ATOM     16  C   UNL     1      -4.483   3.101  26.134  0.00  0.00    +0.092 C 
ATOM     17  C   UNL     1      -1.525   1.180  25.356  0.00  0.00    +0.239 C 
ATOM     18  C   UNL     1      -3.254   2.383  26.671  0.00  0.00    +0.131 C 
ATOM     20  C   UNL     1      -4.387  -0.207  24.381  0.00  0.00    +0.234 C 
ATOM     21  C   UNL     1       0.997   0.738  23.480  0.00  0.00    +0.219 C 
ATOM     30  H   UNL     1      -3.757  -2.093  23.971  0.00  0.00    +0.149 HD
ENDROOT
BRANCH  21  19
ATOM     19  C   UNL     1       2.307   0.143  23.060  0.00  0.00    +0.075 C 
ATOM     22  C   UNL     1       3.364   1.241  22.940  0.00  0.00    +0.013 C 
ATOM     23  C   UNL     1       2.732  -0.937  24.057  0.00  0.00    +0.013 C 
ATOM     24  C   UNL     1       4.739   0.668  22.606  0.00  0.00    +0.001 C 
ATOM     25  C   UNL     1       4.108  -1.506  23.721  0.00  0.00    +0.001 C 
ATOM     26  C   UNL     1       5.159  -0.407  23.605  0.00  0.00    +0.000 C 
ENDBRANCH  21  19
BRANCH  16   9
ATOM      4  O   UNL     1      -3.666   3.115  23.354  0.00  0.00    -0.273 OA
ATOM      9  N   UNL     1      -4.120   4.247  25.334  0.00  0.00    -0.309 N 
ATOM     27  C   UNL     1      -3.740   4.154  24.003  0.00  0.00    +0.239 C 
ATOM     31  H   UNL     1      -4.095   5.156  25.788  0.00  0.00    +0.149 HD
BRANCH  27  28
ATOM     28  C   UNL     1      -3.415   5.511  23.416  0.00  0.00    +0.255 C 
BRANCH  28   5
ATOM      5  O   UNL     1      -2.098   5.894  23.745  0.00  0.00    -0.374 OA
ATOM     29  C   UNL     1      -1.709   5.412  25.029  0.00  0.00    +0.194 C 
ENDBRANCH  28   5
ENDBRANCH  27  28
ENDBRANCH  16   9
TORSDOF 4
ENDMDL
MODEL 4
REMARK VINA RESULT:       7.0      2.075      7.211
REMARK  Name = 11865911
REMARK  5 active torsions:
REMARK  status: ('A' for Active; 'I' for Inactive)
REMARK    1  A    between atoms: O_5  and  C_28
REMARK    2  A    between atoms: O_5  and  C_29
REMARK    3  A    between atoms: N_9  and  C_16
REMARK    4  A    between atoms: C_19  and  C_21
REMARK    5  A    between atoms: C_27  and  C_28
REMARK                            x       y       z     vdW  Elec       q    Type
REMARK                         _______ _______ _______ _____ _____    ______ ____
ROOT
ATOM      1  O   UNL     1      -1.392   1.786  22.604  0.00  0.00    -0.273 OA
ATOM      2  O   UNL     1      -0.619  -3.196  25.316  0.00  0.00    -0.274 OA
ATOM      3  O   UNL     1      -1.507   3.594  25.016  0.00  0.00    -0.275 OA
ATOM      6  N   UNL     1      -3.041   1.872  24.826  0.00  0.00    -0.288 N 
ATOM      7  N   UNL     1      -0.357  -0.179  23.277  0.00  0.00    -0.287 N 
ATOM      8  N   UNL     1      -2.269  -1.664  25.114  0.00  0.00    -0.309 N 
ATOM     10  C   UNL     1      -2.065   0.791  24.698  0.00  0.00    +0.182 C 
ATOM     11  C   UNL     1      -2.908  -0.481  24.578  0.00  0.00    +0.104 C 
ATOM     12  C   UNL     1       0.056  -1.104  24.338  0.00  0.00    +0.164 C 
ATOM     13  C   UNL     1      -4.201  -0.113  25.300  0.00  0.00    +0.043 C 
ATOM     14  C   UNL     1      -4.399   1.340  24.896  0.00  0.00    +0.110 C 
ATOM     15  C   UNL     1       1.241  -1.870  23.718  0.00  0.00    +0.055 C 
ATOM     16  C   UNL     1       1.784  -0.929  22.648  0.00  0.00    +0.092 C 
ATOM     17  C   UNL     1      -1.242   0.883  23.426  0.00  0.00    +0.239 C 
ATOM     18  C   UNL     1       0.516  -0.280  22.113  0.00  0.00    +0.131 C 
ATOM     20  C   UNL     1      -0.979  -2.091  24.892  0.00  0.00    +0.234 C 
ATOM     21  C   UNL     1      -2.667   3.182  25.086  0.00  0.00    +0.219 C 
ATOM     30  H   UNL     1      -2.887  -2.349  25.536  0.00  0.00    +0.149 HD
ENDROOT
BRANCH  21  19
ATOM     19  C   UNL     1      -3.778   4.116  25.464  0.00  0.00    +0.075 C 
ATOM     22  C   UNL     1      -4.272   4.866  24.226  0.00  0.00    +0.013 C 
ATOM     23  C   UNL     1      -4.910   3.334  26.134  0.00  0.00    +0.013 C 
ATOM     24  C   UNL     1      -5.467   5.759  24.547  0.00  0.00    +0.001 C 
ATOM     25  C   UNL     1      -6.104   4.231  26.451  0.00  0.00    +0.001 C 
ATOM     26  C   UNL     1      -6.594   4.974  25.212  0.00  0.00    +0.000 C 
ENDBRANCH  21  19
BRANCH  16   9
ATOM      4  O   UNL     1       3.983   0.410  21.318  0.00  0.00    -0.273 OA
ATOM      9  N   UNL     1       2.682   0.051  23.212  0.00  0.00    -0.309 N 
ATOM     27  C   UNL     1       3.712   0.640  22.492  0.00  0.00    +0.239 C 
ATOM     31  H   UNL     1       2.581   0.278  24.198  0.00  0.00    +0.149 HD
BRANCH  27  28
ATOM     28  C   UNL     1       4.492   1.628  23.334  0.00  0.00    +0.255 C 
BRANCH  28   5
ATOM      5  O   UNL     1       5.284   0.954  24.288  0.00  0.00    -0.374 OA
ATOM     29  C   UNL     1       5.736  -0.309  23.806  0.00  0.00    +0.194 C 
ENDBRANCH  28   5
ENDBRANCH  27  28
ENDBRANCH  16   9
TORSDOF 4
ENDMDL
