MODEL 1
REMARK VINA RESULT:      -5.1      0.000      0.000
REMARK  Name = 75536893
REMARK  3 active torsions:
REMARK  status: ('A' for Active; 'I' for Inactive)
REMARK    1  A    between atoms: O_3  and  C_12
REMARK    2  A    between atoms: O_3  and  C_15
REMARK    3  A    between atoms: C_6  and  C_9
REMARK                            x       y       z     vdW  Elec       q    Type
REMARK                         _______ _______ _______ _____ _____    ______ ____
ROOT
ATOM      1  O   UNL     1      -1.907   3.941  24.400  0.00  0.00    -0.375 OA
ATOM      2  O   UNL     1       0.061  -0.769  23.766  0.00  0.00    -0.275 OA
ATOM      4  N   UNL     1      -0.230   1.426  24.513  0.00  0.00    -0.295 N 
ATOM      9  C   UNL     1       0.409   0.409  23.783  0.00  0.00    +0.219 C 
ATOM     10  C   UNL     1      -1.415   1.089  25.303  0.00  0.00    +0.154 C 
ATOM     11  C   UNL     1       0.240   2.817  24.487  0.00  0.00    +0.136 C 
ATOM     12  C   UNL     1      -2.699   1.623  24.666  0.00  0.00    +0.216 C 
ATOM     13  C   UNL     1      -0.679   3.856  25.116  0.00  0.00    +0.179 C 
ATOM     14  C   UNL     1      -2.931   3.108  24.930  0.00  0.00    +0.206 C 
ENDROOT
BRANCH   9   6
ATOM      6  C   UNL     1       1.588   0.803  22.948  0.00  0.00    +0.075 C 
ATOM      7  C   UNL     1       2.031  -0.125  21.869  0.00  0.00    +0.013 C 
ATOM      8  C   UNL     1       2.856   0.039  23.110  0.00  0.00    +0.013 C 
ENDBRANCH   9   6
BRANCH  12   3
ATOM      3  O   UNL     1      -3.794   0.889  25.209  0.00  0.00    -0.483 OA
BRANCH   3  15
ATOM      5  N   UNL     1      -3.281  -2.682  25.807  0.00  0.00    -0.260 NA
ATOM     15  C   UNL     1      -3.793  -0.463  24.995  0.00  0.00    +0.139 A 
ATOM     16  C   UNL     1      -4.273  -1.000  23.806  0.00  0.00    +0.049 A 
ATOM     17  C   UNL     1      -3.312  -1.339  25.955  0.00  0.00    +0.156 A 
ATOM     18  C   UNL     1      -4.258  -2.377  23.616  0.00  0.00    +0.023 A 
ATOM     19  C   UNL     1      -3.756  -3.168  24.637  0.00  0.00    +0.111 A 
ENDBRANCH   3  15
ENDBRANCH  12   3
TORSDOF 3
ENDMDL
MODEL 2
REMARK VINA RESULT:      -5.1      1.812      5.242
REMARK  Name = 75536893
REMARK  3 active torsions:
REMARK  status: ('A' for Active; 'I' for Inactive)
REMARK    1  A    between atoms: O_3  and  C_12
REMARK    2  A    between atoms: O_3  and  C_15
REMARK    3  A    between atoms: C_6  and  C_9
REMARK                            x       y       z     vdW  Elec       q    Type
REMARK                         _______ _______ _______ _____ _____    ______ ____
ROOT
ATOM      1  O   UNL     1       0.538  -0.471  23.285  0.00  0.00    -0.375 OA
ATOM      2  O   UNL     1      -4.091  -0.238  25.516  0.00  0.00    -0.275 OA
ATOM      4  N   UNL     1      -1.835  -0.721  25.144  0.00  0.00    -0.295 N 
ATOM      9  C   UNL     1      -3.198  -1.043  25.269  0.00  0.00    +0.219 C 
ATOM     10  C   UNL     1      -1.426   0.677  25.290  0.00  0.00    +0.154 C 
ATOM     11  C   UNL     1      -0.817  -1.737  24.848  0.00  0.00    +0.136 C 
ATOM     12  C   UNL     1      -1.038   1.303  23.950  0.00  0.00    +0.216 C 
ATOM     13  C   UNL     1       0.572  -1.223  24.494  0.00  0.00    +0.179 C 
ATOM     14  C   UNL     1       0.368   0.926  23.492  0.00  0.00    +0.206 C 
ENDROOT
BRANCH   9   6
ATOM      6  C   UNL     1      -3.583  -2.476  25.065  0.00  0.00    +0.075 C 
ATOM      7  C   UNL     1      -2.961  -3.219  23.933  0.00  0.00    +0.013 C 
ATOM      8  C   UNL     1      -4.406  -2.823  23.872  0.00  0.00    +0.013 C 
ENDBRANCH   9   6
BRANCH  12   3
ATOM      3  O   UNL     1      -1.104   2.720  24.094  0.00  0.00    -0.483 OA
BRANCH   3  15
ATOM      5  N   UNL     1      -4.650   3.498  24.534  0.00  0.00    -0.260 NA
ATOM     15  C   UNL     1      -2.249   3.227  24.645  0.00  0.00    +0.139 A 
ATOM     16  C   UNL     1      -2.213   3.963  25.823  0.00  0.00    +0.049 A 
ATOM     17  C   UNL     1      -3.482   3.025  24.044  0.00  0.00    +0.156 A 
ATOM     18  C   UNL     1      -3.393   4.466  26.360  0.00  0.00    +0.023 A 
ATOM     19  C   UNL     1      -4.574   4.209  25.682  0.00  0.00    +0.111 A 
ENDBRANCH   3  15
ENDBRANCH  12   3
TORSDOF 3
ENDMDL
MODEL 3
REMARK VINA RESULT:      -5.0      2.210      4.388
REMARK  Name = 75536893
REMARK  3 active torsions:
REMARK  status: ('A' for Active; 'I' for Inactive)
REMARK    1  A    between atoms: O_3  and  C_12
REMARK    2  A    between atoms: O_3  and  C_15
REMARK    3  A    between atoms: C_6  and  C_9
REMARK                            x       y       z     vdW  Elec       q    Type
REMARK                         _______ _______ _______ _____ _____    ______ ____
ROOT
ATOM      1  O   UNL     1      -0.146   3.449  25.957  0.00  0.00    -0.375 OA
ATOM      2  O   UNL     1      -4.539   1.389  24.250  0.00  0.00    -0.275 OA
ATOM      4  N   UNL     1      -2.629   2.727  24.387  0.00  0.00    -0.295 N 
ATOM      9  C   UNL     1      -4.012   2.483  24.428  0.00  0.00    +0.219 C 
ATOM     10  C   UNL     1      -1.722   1.605  24.139  0.00  0.00    +0.154 C 
ATOM     11  C   UNL     1      -2.066   4.065  24.609  0.00  0.00    +0.136 C 
ATOM     12  C   UNL     1      -0.963   1.192  25.400  0.00  0.00    +0.216 C 
ATOM     13  C   UNL     1      -0.555   4.145  24.784  0.00  0.00    +0.179 C 
ATOM     14  C   UNL     1       0.225   2.098  25.714  0.00  0.00    +0.206 C 
ENDROOT
BRANCH   9   6
ATOM      6  C   UNL     1      -4.903   3.647  24.734  0.00  0.00    +0.075 C 
ATOM      7  C   UNL     1      -4.890   4.203  26.117  0.00  0.00    +0.013 C 
ATOM      8  C   UNL     1      -6.075   3.426  25.626  0.00  0.00    +0.013 C 
ENDBRANCH   9   6
BRANCH  12   3
ATOM      3  O   UNL     1      -0.482  -0.137  25.207  0.00  0.00    -0.483 OA
BRANCH   3  15
ATOM      5  N   UNL     1      -2.115  -3.149  23.929  0.00  0.00    -0.260 NA
ATOM     15  C   UNL     1      -1.427  -1.111  25.035  0.00  0.00    +0.139 A 
ATOM     16  C   UNL     1      -2.622  -1.084  25.743  0.00  0.00    +0.049 A 
ATOM     17  C   UNL     1      -1.224  -2.156  24.147  0.00  0.00    +0.156 A 
ATOM     18  C   UNL     1      -3.564  -2.088  25.548  0.00  0.00    +0.023 A 
ATOM     19  C   UNL     1      -3.265  -3.088  24.637  0.00  0.00    +0.111 A 
ENDBRANCH   3  15
ENDBRANCH  12   3
TORSDOF 3
ENDMDL
MODEL 4
REMARK VINA RESULT:      -3.7     15.073     18.349
REMARK  Name = 75536893
REMARK  3 active torsions:
REMARK  status: ('A' for Active; 'I' for Inactive)
REMARK    1  A    between atoms: O_3  and  C_12
REMARK    2  A    between atoms: O_3  and  C_15
REMARK    3  A    between atoms: C_6  and  C_9
REMARK                            x       y       z     vdW  Elec       q    Type
REMARK                         _______ _______ _______ _____ _____    ______ ____
ROOT
ATOM      1  O   UNL     1      11.952   9.093  16.873  0.00  0.00    -0.375 OA
ATOM      2  O   UNL     1      13.095   8.136  21.796  0.00  0.00    -0.275 OA
ATOM      4  N   UNL     1      12.053   8.039  19.707  0.00  0.00    -0.295 N 
ATOM      9  C   UNL     1      12.127   8.357  21.074  0.00  0.00    +0.219 C 
ATOM     10  C   UNL     1      13.213   7.420  19.064  0.00  0.00    +0.154 C 
ATOM     11  C   UNL     1      10.861   8.332  18.901  0.00  0.00    +0.136 C 
ATOM     12  C   UNL     1      13.945   8.394  18.141  0.00  0.00    +0.216 C 
ATOM     13  C   UNL     1      11.003   8.168  17.394  0.00  0.00    +0.179 C 
ATOM     14  C   UNL     1      13.269   8.565  16.784  0.00  0.00    +0.206 C 
ENDROOT
BRANCH   9   6
ATOM      6  C   UNL     1      10.939   9.034  21.684  0.00  0.00    +0.075 C 
ATOM      7  C   UNL     1      10.845   9.094  23.170  0.00  0.00    +0.013 C 
ATOM      8  C   UNL     1       9.931   8.195  22.391  0.00  0.00    +0.013 C 
ENDBRANCH   9   6
BRANCH  12   3
ATOM      3  O   UNL     1      15.264   7.892  17.932  0.00  0.00    -0.483 OA
BRANCH   3  15
ATOM      5  N   UNL     1      17.199   5.778  20.202  0.00  0.00    -0.260 NA
ATOM     15  C   UNL     1      15.953   7.498  19.046  0.00  0.00    +0.139 A 
ATOM     16  C   UNL     1      16.119   8.355  20.127  0.00  0.00    +0.049 A 
ATOM     17  C   UNL     1      16.508   6.230  19.132  0.00  0.00    +0.156 A 
ATOM     18  C   UNL     1      16.825   7.927  21.246  0.00  0.00    +0.023 A 
ATOM     19  C   UNL     1      17.339   6.640  21.234  0.00  0.00    +0.111 A 
ENDBRANCH   3  15
ENDBRANCH  12   3
TORSDOF 3
ENDMDL
MODEL 5
REMARK VINA RESULT:      -3.7      2.550      5.496
REMARK  Name = 75536893
REMARK  3 active torsions:
REMARK  status: ('A' for Active; 'I' for Inactive)
REMARK    1  A    between atoms: O_3  and  C_12
REMARK    2  A    between atoms: O_3  and  C_15
REMARK    3  A    between atoms: C_6  and  C_9
REMARK                            x       y       z     vdW  Elec       q    Type
REMARK                         _______ _______ _______ _____ _____    ______ ____
ROOT
ATOM      1  O   UNL     1      -6.603   2.244  25.919  0.00  0.00    -0.375 OA
ATOM      2  O   UNL     1      -2.020   0.008  25.241  0.00  0.00    -0.275 OA
ATOM      4  N   UNL     1      -4.193   0.769  24.839  0.00  0.00    -0.295 N 
ATOM      9  C   UNL     1      -3.217  -0.214  25.076  0.00  0.00    +0.219 C 
ATOM     10  C   UNL     1      -3.784   2.175  24.806  0.00  0.00    +0.154 C 
ATOM     11  C   UNL     1      -5.609   0.433  24.649  0.00  0.00    +0.136 C 
ATOM     12  C   UNL     1      -4.241   2.934  26.052  0.00  0.00    +0.216 C 
ATOM     13  C   UNL     1      -6.590   1.597  24.650  0.00  0.00    +0.179 C 
ATOM     14  C   UNL     1      -5.710   3.347  26.002  0.00  0.00    +0.206 C 
ENDROOT
BRANCH   9   6
ATOM      6  C   UNL     1      -3.682  -1.635  25.151  0.00  0.00    +0.075 C 
ATOM      7  C   UNL     1      -2.780  -2.702  24.633  0.00  0.00    +0.013 C 
ATOM      8  C   UNL     1      -4.024  -2.336  23.882  0.00  0.00    +0.013 C 
ENDBRANCH   9   6
BRANCH  12   3
ATOM      3  O   UNL     1      -3.442   4.110  26.166  0.00  0.00    -0.483 OA
BRANCH   3  15
ATOM      5  N   UNL     1      -0.058   2.814  25.674  0.00  0.00    -0.260 NA
ATOM     15  C   UNL     1      -2.153   4.021  25.714  0.00  0.00    +0.139 A 
ATOM     16  C   UNL     1      -1.620   4.990  24.873  0.00  0.00    +0.049 A 
ATOM     17  C   UNL     1      -1.338   2.962  26.083  0.00  0.00    +0.156 A 
ATOM     18  C   UNL     1      -0.307   4.873  24.431  0.00  0.00    +0.023 A 
ATOM     19  C   UNL     1       0.426   3.777  24.857  0.00  0.00    +0.111 A 
ENDBRANCH   3  15
ENDBRANCH  12   3
TORSDOF 3
ENDMDL
MODEL 6
REMARK VINA RESULT:      -3.4      2.456      5.047
REMARK  Name = 75536893
REMARK  3 active torsions:
REMARK  status: ('A' for Active; 'I' for Inactive)
REMARK    1  A    between atoms: O_3  and  C_12
REMARK    2  A    between atoms: O_3  and  C_15
REMARK    3  A    between atoms: C_6  and  C_9
REMARK                            x       y       z     vdW  Elec       q    Type
REMARK                         _______ _______ _______ _____ _____    ______ ____
ROOT
ATOM      1  O   UNL     1      -1.557   5.431  25.299  0.00  0.00    -0.375 OA
ATOM      2  O   UNL     1      -4.065   0.955  24.933  0.00  0.00    -0.275 OA
ATOM      4  N   UNL     1      -3.353   3.136  24.489  0.00  0.00    -0.295 N 
ATOM      9  C   UNL     1      -4.277   2.164  24.912  0.00  0.00    +0.219 C 
ATOM     10  C   UNL     1      -2.022   2.703  24.061  0.00  0.00    +0.154 C 
ATOM     11  C   UNL     1      -3.673   4.568  24.488  0.00  0.00    +0.136 C 
ATOM     12  C   UNL     1      -0.947   3.053  25.090  0.00  0.00    +0.216 C 
ATOM     13  C   UNL     1      -2.513   5.524  24.247  0.00  0.00    +0.179 C 
ATOM     14  C   UNL     1      -0.505   4.512  25.030  0.00  0.00    +0.206 C 
ENDROOT
BRANCH   9   6
ATOM      6  C   UNL     1      -5.610   2.650  25.389  0.00  0.00    +0.075 C 
ATOM      7  C   UNL     1      -6.330   1.844  26.415  0.00  0.00    +0.013 C 
ATOM      8  C   UNL     1      -6.825   1.880  25.000  0.00  0.00    +0.013 C 
ENDBRANCH   9   6
BRANCH  12   3
ATOM      3  O   UNL     1       0.186   2.224  24.838  0.00  0.00    -0.483 OA
BRANCH   3  15
ATOM      5  N   UNL     1       0.207  -1.118  23.354  0.00  0.00    -0.260 NA
ATOM     15  C   UNL     1      -0.055   0.887  24.681  0.00  0.00    +0.139 A 
ATOM     16  C   UNL     1      -0.776   0.172  25.631  0.00  0.00    +0.049 A 
ATOM     17  C   UNL     1       0.411   0.201  23.570  0.00  0.00    +0.156 A 
ATOM     18  C   UNL     1      -1.006  -1.186  25.445  0.00  0.00    +0.023 A 
ATOM     19  C   UNL     1      -0.499  -1.779  24.299  0.00  0.00    +0.111 A 
ENDBRANCH   3  15
ENDBRANCH  12   3
TORSDOF 3
ENDMDL
MODEL 7
REMARK VINA RESULT:      -3.1      2.523      6.250
REMARK  Name = 75536893
REMARK  3 active torsions:
REMARK  status: ('A' for Active; 'I' for Inactive)
REMARK    1  A    between atoms: O_3  and  C_12
REMARK    2  A    between atoms: O_3  and  C_15
REMARK    3  A    between atoms: C_6  and  C_9
REMARK                            x       y       z     vdW  Elec       q    Type
REMARK                         _______ _______ _______ _____ _____    ______ ____
ROOT
ATOM      1  O   UNL     1      -0.814  -1.458  24.306  0.00  0.00    -0.375 OA
ATOM      2  O   UNL     1      -0.516   3.667  23.997  0.00  0.00    -0.275 OA
ATOM      4  N   UNL     1      -0.517   1.499  24.868  0.00  0.00    -0.295 N 
ATOM      9  C   UNL     1      -1.042   2.788  24.673  0.00  0.00    +0.219 C 
ATOM     10  C   UNL     1       0.740   1.143  24.206  0.00  0.00    +0.154 C 
ATOM     11  C   UNL     1      -1.200   0.494  25.691  0.00  0.00    +0.136 C 
ATOM     12  C   UNL     1       0.520   0.180  23.039  0.00  0.00    +0.216 C 
ATOM     13  C   UNL     1      -0.658  -0.927  25.618  0.00  0.00    +0.179 C 
ATOM     14  C   UNL     1       0.327  -1.268  23.479  0.00  0.00    +0.206 C 
ENDROOT
BRANCH   9   6
ATOM      6  C   UNL     1      -2.354   3.098  25.326  0.00  0.00    +0.075 C 
ATOM      7  C   UNL     1      -3.602   2.880  24.542  0.00  0.00    +0.013 C 
ATOM      8  C   UNL     1      -3.128   4.272  24.836  0.00  0.00    +0.013 C 
ENDBRANCH   9   6
BRANCH  12   3
ATOM      3  O   UNL     1       1.666   0.250  22.193  0.00  0.00    -0.483 OA
BRANCH   3  15
ATOM      5  N   UNL     1       5.015   0.937  23.490  0.00  0.00    -0.260 NA
ATOM     15  C   UNL     1       2.881   0.043  22.788  0.00  0.00    +0.139 A 
ATOM     16  C   UNL     1       3.233  -1.206  23.284  0.00  0.00    +0.049 A 
ATOM     17  C   UNL     1       3.800   1.073  22.914  0.00  0.00    +0.156 A 
ATOM     18  C   UNL     1       4.474  -1.386  23.884  0.00  0.00    +0.023 A 
ATOM     19  C   UNL     1       5.322  -0.293  23.961  0.00  0.00    +0.111 A 
ENDBRANCH   3  15
ENDBRANCH  12   3
TORSDOF 3
ENDMDL
MODEL 8
REMARK VINA RESULT:      -3.1      2.295      2.913
REMARK  Name = 75536893
REMARK  3 active torsions:
REMARK  status: ('A' for Active; 'I' for Inactive)
REMARK    1  A    between atoms: O_3  and  C_12
REMARK    2  A    between atoms: O_3  and  C_15
REMARK    3  A    between atoms: C_6  and  C_9
REMARK                            x       y       z     vdW  Elec       q    Type
REMARK                         _______ _______ _______ _____ _____    ______ ____
ROOT
ATOM      1  O   UNL     1      -0.689   3.783  25.251  0.00  0.00    -0.375 OA
ATOM      2  O   UNL     1       0.544  -0.202  22.242  0.00  0.00    -0.275 OA
ATOM      4  N   UNL     1       0.264   1.137  24.135  0.00  0.00    -0.295 N 
ATOM      9  C   UNL     1       1.016   0.486  23.142  0.00  0.00    +0.219 C 
ATOM     10  C   UNL     1      -1.195   1.023  24.103  0.00  0.00    +0.154 C 
ATOM     11  C   UNL     1       0.894   1.947  25.186  0.00  0.00    +0.136 C 
ATOM     12  C   UNL     1      -1.862   2.323  23.650  0.00  0.00    +0.216 C 
ATOM     13  C   UNL     1      -0.038   2.793  26.042  0.00  0.00    +0.179 C 
ATOM     14  C   UNL     1      -1.956   3.370  24.756  0.00  0.00    +0.206 C 
ENDROOT
BRANCH   9   6
ATOM      6  C   UNL     1       2.501   0.668  23.180  0.00  0.00    +0.075 C 
ATOM      7  C   UNL     1       3.288   0.312  21.966  0.00  0.00    +0.013 C 
ATOM      8  C   UNL     1       3.363  -0.548  23.192  0.00  0.00    +0.013 C 
ENDBRANCH   9   6
BRANCH  12   3
ATOM      3  O   UNL     1      -3.181   2.007  23.209  0.00  0.00    -0.483 OA
BRANCH   3  15
ATOM      5  N   UNL     1      -5.629   3.471  25.497  0.00  0.00    -0.260 NA
ATOM     15  C   UNL     1      -4.177   2.090  24.144  0.00  0.00    +0.139 A 
ATOM     16  C   UNL     1      -4.744   0.945  24.691  0.00  0.00    +0.049 A 
ATOM     17  C   UNL     1      -4.650   3.319  24.577  0.00  0.00    +0.156 A 
ATOM     18  C   UNL     1      -5.754   1.061  25.640  0.00  0.00    +0.023 A 
ATOM     19  C   UNL     1      -6.156   2.335  26.006  0.00  0.00    +0.111 A 
ENDBRANCH   3  15
ENDBRANCH  12   3
TORSDOF 3
ENDMDL
MODEL 9
REMARK VINA RESULT:      -3.1      2.276      5.911
REMARK  Name = 75536893
REMARK  3 active torsions:
REMARK  status: ('A' for Active; 'I' for Inactive)
REMARK    1  A    between atoms: O_3  and  C_12
REMARK    2  A    between atoms: O_3  and  C_15
REMARK    3  A    between atoms: C_6  and  C_9
REMARK                            x       y       z     vdW  Elec       q    Type
REMARK                         _______ _______ _______ _____ _____    ______ ____
ROOT
ATOM      1  O   UNL     1       0.363   2.526  25.532  0.00  0.00    -0.375 OA
ATOM      2  O   UNL     1      -3.628   0.019  23.471  0.00  0.00    -0.275 OA
ATOM      4  N   UNL     1      -2.210   1.750  24.143  0.00  0.00    -0.295 N 
ATOM      9  C   UNL     1      -3.384   0.980  24.195  0.00  0.00    +0.219 C 
ATOM     10  C   UNL     1      -1.171   1.386  23.179  0.00  0.00    +0.154 C 
ATOM     11  C   UNL     1      -1.983   2.890  25.041  0.00  0.00    +0.136 C 
ATOM     12  C   UNL     1       0.043   0.748  23.856  0.00  0.00    +0.216 C 
ATOM     13  C   UNL     1      -0.580   3.479  25.050  0.00  0.00    +0.179 C 
ATOM     14  C   UNL     1       0.980   1.766  24.500  0.00  0.00    +0.206 C 
ENDROOT
BRANCH   9   6
ATOM      6  C   UNL     1      -4.402   1.354  25.228  0.00  0.00    +0.075 C 
ATOM      7  C   UNL     1      -5.844   1.204  24.886  0.00  0.00    +0.013 C 
ATOM      8  C   UNL     1      -5.232   2.569  24.996  0.00  0.00    +0.013 C 
ENDBRANCH   9   6
BRANCH  12   3
ATOM      3  O   UNL     1       0.769   0.026  22.864  0.00  0.00    -0.483 OA
BRANCH   3  15
ATOM      5  N   UNL     1       4.079  -1.282  23.702  0.00  0.00    -0.260 NA
ATOM     15  C   UNL     1       2.127  -0.030  23.017  0.00  0.00    +0.139 A 
ATOM     16  C   UNL     1       2.932   1.049  22.670  0.00  0.00    +0.049 A 
ATOM     17  C   UNL     1       2.744  -1.162  23.525  0.00  0.00    +0.156 A 
ATOM     18  C   UNL     1       4.310   0.964  22.837  0.00  0.00    +0.023 A 
ATOM     19  C   UNL     1       4.829  -0.212  23.353  0.00  0.00    +0.111 A 
ENDBRANCH   3  15
ENDBRANCH  12   3
TORSDOF 3
ENDMDL
MODEL 10
REMARK VINA RESULT:      -3.0     13.878     16.734
REMARK  Name = 75536893
REMARK  3 active torsions:
REMARK  status: ('A' for Active; 'I' for Inactive)
REMARK    1  A    between atoms: O_3  and  C_12
REMARK    2  A    between atoms: O_3  and  C_15
REMARK    3  A    between atoms: C_6  and  C_9
REMARK                            x       y       z     vdW  Elec       q    Type
REMARK                         _______ _______ _______ _____ _____    ______ ____
ROOT
ATOM      1  O   UNL     1      -4.144 -10.695  16.007  0.00  0.00    -0.375 OA
ATOM      2  O   UNL     1      -8.624 -10.320  13.507  0.00  0.00    -0.275 OA
ATOM      4  N   UNL     1      -6.815  -9.811  14.897  0.00  0.00    -0.295 N 
ATOM      9  C   UNL     1      -8.149 -10.166  14.629  0.00  0.00    +0.219 C 
ATOM     10  C   UNL     1      -5.895  -9.631  13.772  0.00  0.00    +0.154 C 
ATOM     11  C   UNL     1      -6.313  -9.642  16.265  0.00  0.00    +0.136 C 
ATOM     12  C   UNL     1      -4.894 -10.781  13.661  0.00  0.00    +0.216 C 
ATOM     13  C   UNL     1      -4.805  -9.504  16.423  0.00  0.00    +0.179 C 
ATOM     14  C   UNL     1      -3.733 -10.669  14.646  0.00  0.00    +0.206 C 
ENDROOT
BRANCH   9   6
ATOM      6  C   UNL     1      -9.046 -10.389  15.806  0.00  0.00    +0.075 C 
ATOM      7  C   UNL     1     -10.491 -10.656  15.553  0.00  0.00    +0.013 C 
ATOM      8  C   UNL     1     -10.056  -9.344  16.135  0.00  0.00    +0.013 C 
ENDBRANCH   9   6
BRANCH  12   3
ATOM      3  O   UNL     1      -4.368 -10.777  12.336  0.00  0.00    -0.483 OA
BRANCH   3  15
ATOM      5  N   UNL     1      -7.122  -9.992  10.062  0.00  0.00    -0.260 NA
ATOM     15  C   UNL     1      -5.103 -10.120  11.387  0.00  0.00    +0.139 A 
ATOM     16  C   UNL     1      -4.627  -8.961  10.786  0.00  0.00    +0.049 A 
ATOM     17  C   UNL     1      -6.346 -10.591  10.993  0.00  0.00    +0.156 A 
ATOM     18  C   UNL     1      -5.395  -8.315   9.824  0.00  0.00    +0.023 A 
ATOM     19  C   UNL     1      -6.625  -8.867   9.500  0.00  0.00    +0.111 A 
ENDBRANCH   3  15
ENDBRANCH  12   3
TORSDOF 3
ENDMDL
