MODEL 1
REMARK VINA RESULT:      -4.6      0.000      0.000
REMARK  Name = 11911963
REMARK  2 active torsions:
REMARK  status: ('A' for Active; 'I' for Inactive)
REMARK    1  A    between atoms: C_16  and  C_19
REMARK    2  A    between atoms: C_17  and  C_20
REMARK                            x       y       z     vdW  Elec       q    Type
REMARK                         _______ _______ _______ _____ _____    ______ ____
ROOT
ATOM      3  O   UNL     1      14.949  -7.575  26.118  0.00  0.00    -0.267 OA
ATOM      4  O   UNL     1      11.906  -7.352  30.106  0.00  0.00    -0.270 OA
ATOM      5  N   UNL     1      13.757  -8.549  30.823  0.00  0.00    -0.297 N 
ATOM      6  N   UNL     1      15.533  -8.403  28.220  0.00  0.00    -0.311 N 
ATOM      7  C   UNL     1      14.349 -10.411  29.285  0.00  0.00    +0.027 C 
ATOM      8  C   UNL     1      16.124  -9.235  30.523  0.00  0.00    +0.054 C 
ATOM      9  C   UNL     1      15.663 -10.607  30.035  0.00  0.00    +0.018 C 
ATOM     10  C   UNL     1      13.288  -9.796  30.216  0.00  0.00    +0.113 C 
ATOM     11  C   UNL     1      14.613  -9.538  28.052  0.00  0.00    +0.130 C 
ATOM     12  C   UNL     1      15.070  -8.647  31.484  0.00  0.00    +0.117 C 
ATOM     13  C   UNL     1      16.335  -8.284  29.359  0.00  0.00    +0.027 A 
ATOM     14  C   UNL     1      17.249  -7.305  29.444  0.00  0.00    +0.022 A 
ATOM     15  C   UNL     1      15.632  -7.501  27.142  0.00  0.00    +0.260 A 
ATOM     16  C   UNL     1      13.001  -7.371  30.670  0.00  0.00    +0.247 C 
ATOM     17  C   UNL     1      16.643  -6.398  27.284  0.00  0.00    +0.053 A 
ATOM     18  C   UNL     1      17.405  -6.347  28.387  0.00  0.00    +0.016 A 
ENDROOT
BRANCH  17  20
ATOM      1  S   UNL     1      17.081  -5.921  24.647  0.00  0.00    -0.088 S 
ATOM     20  C   UNL     1      16.803  -5.420  26.255  0.00  0.00    +0.026 A 
ATOM     23  C   UNL     1      16.764  -4.045  26.359  0.00  0.00    +0.024 A 
ATOM     24  C   UNL     1      16.967  -3.379  25.104  0.00  0.00    -0.010 A 
ATOM     25  C   UNL     1      17.155  -4.299  24.068  0.00  0.00    +0.020 A 
ATOM     29  C   UNL     1      16.999  -1.999  24.789  0.00  0.00    +0.009 A 
ATOM     30  C   UNL     1      17.373  -3.878  22.741  0.00  0.00    +0.015 A 
ATOM     31  C   UNL     1      17.215  -1.579  23.474  0.00  0.00    +0.001 A 
ATOM     32  C   UNL     1      17.400  -2.510  22.462  0.00  0.00    +0.001 A 
ENDBRANCH  17  20
BRANCH  16  19
ATOM      2  F   UNL     1      15.221  -2.649  32.653  0.00  0.00    -0.205 F 
ATOM     19  C   UNL     1      13.580  -6.138  31.186  0.00  0.00    +0.037 A 
ATOM     21  C   UNL     1      13.054  -5.555  32.337  0.00  0.00    +0.016 A 
ATOM     22  C   UNL     1      14.658  -5.549  30.529  0.00  0.00    +0.016 A 
ATOM     26  C   UNL     1      13.609  -4.376  32.832  0.00  0.00    +0.039 A 
ATOM     27  C   UNL     1      15.212  -4.369  31.026  0.00  0.00    +0.039 A 
ATOM     28  C   UNL     1      14.688  -3.783  32.177  0.00  0.00    +0.123 A 
ENDBRANCH  16  19
TORSDOF 2
ENDMDL
MODEL 2
REMARK VINA RESULT:      -3.3      0.664      1.116
REMARK  Name = 11911963
REMARK  2 active torsions:
REMARK  status: ('A' for Active; 'I' for Inactive)
REMARK    1  A    between atoms: C_16  and  C_19
REMARK    2  A    between atoms: C_17  and  C_20
REMARK                            x       y       z     vdW  Elec       q    Type
REMARK                         _______ _______ _______ _____ _____    ______ ____
ROOT
ATOM      3  O   UNL     1      14.667  -7.458  25.994  0.00  0.00    -0.267 OA
ATOM      4  O   UNL     1      11.929  -7.061  30.185  0.00  0.00    -0.270 OA
ATOM      5  N   UNL     1      13.696  -8.453  30.745  0.00  0.00    -0.297 N 
ATOM      6  N   UNL     1      15.302  -8.403  28.031  0.00  0.00    -0.311 N 
ATOM      7  C   UNL     1      13.997 -10.318  29.127  0.00  0.00    +0.027 C 
ATOM      8  C   UNL     1      15.957  -9.358  30.268  0.00  0.00    +0.054 C 
ATOM      9  C   UNL     1      15.331 -10.663  29.780  0.00  0.00    +0.018 C 
ATOM     10  C   UNL     1      13.066  -9.630  30.142  0.00  0.00    +0.113 C 
ATOM     11  C   UNL     1      14.265  -9.437  27.899  0.00  0.00    +0.130 C 
ATOM     12  C   UNL     1      15.032  -8.699  31.312  0.00  0.00    +0.117 C 
ATOM     13  C   UNL     1      16.185  -8.398  29.115  0.00  0.00    +0.027 A 
ATOM     14  C   UNL     1      17.195  -7.515  29.160  0.00  0.00    +0.022 A 
ATOM     15  C   UNL     1      15.419  -7.483  26.970  0.00  0.00    +0.260 A 
ATOM     16  C   UNL     1      13.052  -7.204  30.672  0.00  0.00    +0.247 C 
ATOM     17  C   UNL     1      16.542  -6.489  27.069  0.00  0.00    +0.053 A 
ATOM     18  C   UNL     1      17.375  -6.545  28.118  0.00  0.00    +0.016 A 
ENDROOT
BRANCH  17  20
ATOM      1  S   UNL     1      16.942  -3.864  26.498  0.00  0.00    -0.088 S 
ATOM     20  C   UNL     1      16.730  -5.500  26.055  0.00  0.00    +0.026 A 
ATOM     23  C   UNL     1      16.773  -5.665  24.686  0.00  0.00    +0.024 A 
ATOM     24  C   UNL     1      16.981  -4.434  23.976  0.00  0.00    -0.010 A 
ATOM     25  C   UNL     1      17.093  -3.355  24.857  0.00  0.00    +0.020 A 
ATOM     29  C   UNL     1      17.084  -4.179  22.588  0.00  0.00    +0.009 A 
ATOM     30  C   UNL     1      17.301  -2.042  24.390  0.00  0.00    +0.015 A 
ATOM     31  C   UNL     1      17.290  -2.878  22.121  0.00  0.00    +0.001 A 
ATOM     32  C   UNL     1      17.398  -1.823  23.015  0.00  0.00    +0.001 A 
ENDBRANCH  17  20
BRANCH  16  19
ATOM      2  F   UNL     1      15.856  -2.783  32.610  0.00  0.00    -0.205 F 
ATOM     19  C   UNL     1      13.783  -6.049  31.177  0.00  0.00    +0.037 A 
ATOM     21  C   UNL     1      13.413  -5.472  32.389  0.00  0.00    +0.016 A 
ATOM     22  C   UNL     1      14.849  -5.530  30.447  0.00  0.00    +0.016 A 
ATOM     26  C   UNL     1      14.114  -4.368  32.873  0.00  0.00    +0.039 A 
ATOM     27  C   UNL     1      15.550  -4.425  30.932  0.00  0.00    +0.039 A 
ATOM     28  C   UNL     1      15.183  -3.845  32.145  0.00  0.00    +0.123 A 
ENDBRANCH  16  19
TORSDOF 2
ENDMDL
