MODEL 1
REMARK VINA RESULT:       0.6      0.000      0.000
REMARK  Name = 71693190
REMARK  13 active torsions:
REMARK  status: ('A' for Active; 'I' for Inactive)
REMARK    1  A    between atoms: O_1  and  C_32
REMARK    2  A    between atoms: O_1  and  C_33
REMARK    3  A    between atoms: N_3  and  C_14
REMARK    4  A    between atoms: N_3  and  C_20
REMARK    5  A    between atoms: C_7  and  C_11
REMARK    6  A    between atoms: C_8  and  C_14
REMARK    7  A    between atoms: C_10  and  C_15
REMARK    8  A    between atoms: C_11  and  C_16
REMARK    9  A    between atoms: C_11  and  C_17
REMARK   10  A    between atoms: C_12  and  C_18
REMARK   11  A    between atoms: C_15  and  C_19
REMARK   12  A    between atoms: C_20  and  C_23
REMARK   13  A    between atoms: C_28  and  C_32
REMARK                            x       y       z     vdW  Elec       q    Type
REMARK                         _______ _______ _______ _____ _____    ______ ____
ROOT
ATOM      7  C   UNL     1      -2.856   3.794  25.700  0.00  0.00    +0.000 C 
ATOM      8  C   UNL     1      -4.185   3.762  24.912  0.00  0.00    +0.029 C 
ATOM      9  C   UNL     1      -2.057   2.506  25.461  0.00  0.00    +0.012 C 
ATOM     10  C   UNL     1      -1.763   2.237  23.969  0.00  0.00    +0.022 C 
ATOM     12  C   UNL     1      -2.933   2.582  23.060  0.00  0.00    -0.073 C 
ATOM     13  C   UNL     1      -4.011   3.253  23.504  0.00  0.00    -0.023 C 
ATOM     18  C   UNL     1      -2.824   2.195  21.611  0.00  0.00    +0.039 C 
ENDROOT
BRANCH   7  11
ATOM     11  C   UNL     1      -2.026   5.036  25.347  0.00  0.00    -0.013 C 
ATOM     16  C   UNL     1      -2.708   5.836  24.243  0.00  0.00    +0.007 C 
ATOM     17  C   UNL     1      -0.615   4.631  24.930  0.00  0.00    +0.007 C 
ENDBRANCH   7  11
BRANCH   8  14
ATOM     14  C   UNL     1      -5.246   2.917  25.626  0.00  0.00    +0.089 C 
BRANCH  14   3
ATOM      3  N   UNL     1      -5.377   1.615  24.992  0.00  0.00    -0.311 NA
ATOM     34  H   UNL     1      -4.708   1.554  24.225  0.00  0.00    +0.122 HD
BRANCH   3  20
ATOM     20  C   UNL     1      -5.112   0.541  25.942  0.00  0.00    +0.116 C 
BRANCH  20  23
ATOM      6  N   UNL     1      -2.742  -2.595  24.200  0.00  0.00    -0.263 NA
ATOM     23  C   UNL     1      -4.282  -0.556  25.332  0.00  0.00    -0.031 A 
ATOM     26  C   UNL     1      -3.219  -1.104  26.041  0.00  0.00    +0.024 A 
ATOM     27  C   UNL     1      -4.577  -1.027  24.057  0.00  0.00    +0.024 A 
ATOM     30  C   UNL     1      -2.487  -2.112  25.436  0.00  0.00    +0.111 A 
ATOM     31  C   UNL     1      -3.782  -2.039  23.541  0.00  0.00    +0.111 A 
ENDBRANCH  20  23
ENDBRANCH   3  20
ENDBRANCH  14   3
ENDBRANCH   8  14
BRANCH  10  15
ATOM     15  C   UNL     1      -1.296   0.784  23.816  0.00  0.00    +0.082 C 
BRANCH  15  19
ATOM      4  N   UNL     1       0.867  -0.473  23.778  0.00  0.00    -0.342 N 
ATOM      5  N   UNL     1       0.992   1.690  23.280  0.00  0.00    -0.232 NA
ATOM     19  C   UNL     1       0.190   0.704  23.616  0.00  0.00    +0.109 A 
ATOM     21  C   UNL     1       2.194  -0.230  23.530  0.00  0.00    +0.067 A 
ATOM     22  C   UNL     1       2.246   1.127  23.221  0.00  0.00    +0.089 A 
ATOM     24  C   UNL     1       3.318  -1.055  23.549  0.00  0.00    +0.042 A 
ATOM     25  C   UNL     1       3.485   1.712  22.911  0.00  0.00    +0.030 A 
ATOM     28  C   UNL     1       4.544  -0.457  23.237  0.00  0.00    +0.061 A 
ATOM     29  C   UNL     1       4.628   0.901  22.923  0.00  0.00    +0.017 A 
ATOM     35  H   UNL     1       0.465  -1.365  24.034  0.00  0.00    +0.167 HD
BRANCH  28  32
ATOM      2  O   UNL     1       5.874  -2.340  23.845  0.00  0.00    -0.245 OA
ATOM     32  C   UNL     1       5.752  -1.267  23.240  0.00  0.00    +0.339 C 
BRANCH  32   1
ATOM      1  O   UNL     1       6.744  -0.694  22.491  0.00  0.00    -0.464 OA
ATOM     33  C   UNL     1       7.969  -0.388  23.166  0.00  0.00    +0.280 C 
ENDBRANCH  32   1
ENDBRANCH  28  32
ENDBRANCH  15  19
ENDBRANCH  10  15
TORSDOF 9
ENDMDL
MODEL 2
REMARK VINA RESULT:       0.7      1.619      3.077
REMARK  Name = 71693190
REMARK  13 active torsions:
REMARK  status: ('A' for Active; 'I' for Inactive)
REMARK    1  A    between atoms: O_1  and  C_32
REMARK    2  A    between atoms: O_1  and  C_33
REMARK    3  A    between atoms: N_3  and  C_14
REMARK    4  A    between atoms: N_3  and  C_20
REMARK    5  A    between atoms: C_7  and  C_11
REMARK    6  A    between atoms: C_8  and  C_14
REMARK    7  A    between atoms: C_10  and  C_15
REMARK    8  A    between atoms: C_11  and  C_16
REMARK    9  A    between atoms: C_11  and  C_17
REMARK   10  A    between atoms: C_12  and  C_18
REMARK   11  A    between atoms: C_15  and  C_19
REMARK   12  A    between atoms: C_20  and  C_23
REMARK   13  A    between atoms: C_28  and  C_32
REMARK                            x       y       z     vdW  Elec       q    Type
REMARK                         _______ _______ _______ _____ _____    ______ ____
ROOT
ATOM      7  C   UNL     1      -4.552   2.521  25.065  0.00  0.00    +0.000 C 
ATOM      8  C   UNL     1      -4.198   3.296  23.775  0.00  0.00    +0.029 C 
ATOM      9  C   UNL     1      -3.289   2.245  25.890  0.00  0.00    +0.012 C 
ATOM     10  C   UNL     1      -2.506   3.524  26.258  0.00  0.00    +0.022 C 
ATOM     12  C   UNL     1      -2.465   4.542  25.129  0.00  0.00    -0.073 C 
ATOM     13  C   UNL     1      -3.220   4.415  24.022  0.00  0.00    -0.023 C 
ATOM     18  C   UNL     1      -1.583   5.747  25.311  0.00  0.00    +0.039 C 
ENDROOT
BRANCH   7  11
ATOM     11  C   UNL     1      -5.605   3.267  25.895  0.00  0.00    -0.013 C 
ATOM     16  C   UNL     1      -6.697   2.309  26.357  0.00  0.00    +0.007 C 
ATOM     17  C   UNL     1      -6.201   4.418  25.089  0.00  0.00    +0.007 C 
ENDBRANCH   7  11
BRANCH   8  14
ATOM     14  C   UNL     1      -3.638   2.368  22.691  0.00  0.00    +0.089 C 
BRANCH  14   3
ATOM      3  N   UNL     1      -3.073   1.168  23.287  0.00  0.00    -0.311 NA
ATOM     34  H   UNL     1      -2.945   1.324  24.286  0.00  0.00    +0.122 HD
BRANCH   3  20
ATOM     20  C   UNL     1      -3.955   0.023  23.092  0.00  0.00    +0.116 C 
BRANCH  20  23
ATOM      6  N   UNL     1      -3.225  -3.072  25.988  0.00  0.00    -0.263 NA
ATOM     23  C   UNL     1      -3.699  -1.061  24.106  0.00  0.00    -0.031 A 
ATOM     26  C   UNL     1      -3.389  -0.728  25.420  0.00  0.00    +0.024 A 
ATOM     27  C   UNL     1      -3.773  -2.398  23.732  0.00  0.00    +0.024 A 
ATOM     30  C   UNL     1      -3.163  -1.762  26.315  0.00  0.00    +0.111 A 
ATOM     31  C   UNL     1      -3.529  -3.356  24.702  0.00  0.00    +0.111 A 
ENDBRANCH  20  23
ENDBRANCH   3  20
ENDBRANCH  14   3
ENDBRANCH   8  14
BRANCH  10  15
ATOM     15  C   UNL     1      -1.111   3.120  26.750  0.00  0.00    +0.082 C 
BRANCH  15  19
ATOM      4  N   UNL     1       0.851   2.654  25.269  0.00  0.00    -0.342 N 
ATOM      5  N   UNL     1      -0.814   1.185  25.166  0.00  0.00    -0.232 NA
ATOM     19  C   UNL     1      -0.386   2.294  25.726  0.00  0.00    +0.109 A 
ATOM     21  C   UNL     1       1.248   1.715  24.352  0.00  0.00    +0.067 A 
ATOM     22  C   UNL     1       0.192   0.808  24.305  0.00  0.00    +0.089 A 
ATOM     24  C   UNL     1       2.404   1.584  23.583  0.00  0.00    +0.042 A 
ATOM     25  C   UNL     1       0.277  -0.300  23.446  0.00  0.00    +0.030 A 
ATOM     28  C   UNL     1       2.473   0.474  22.732  0.00  0.00    +0.061 A 
ATOM     29  C   UNL     1       1.430  -0.452  22.664  0.00  0.00    +0.017 A 
ATOM     35  H   UNL     1       1.382   3.467  25.554  0.00  0.00    +0.167 HD
BRANCH  28  32
ATOM      2  O   UNL     1       3.629   0.095  20.683  0.00  0.00    -0.245 OA
ATOM     32  C   UNL     1       3.654   0.284  21.906  0.00  0.00    +0.339 C 
BRANCH  32   1
ATOM      1  O   UNL     1       4.802   0.340  22.649  0.00  0.00    -0.464 OA
ATOM     33  C   UNL     1       4.997  -0.697  23.616  0.00  0.00    +0.280 C 
ENDBRANCH  32   1
ENDBRANCH  28  32
ENDBRANCH  15  19
ENDBRANCH  10  15
TORSDOF 9
ENDMDL
MODEL 3
REMARK VINA RESULT:       2.2      1.410      4.221
REMARK  Name = 71693190
REMARK  13 active torsions:
REMARK  status: ('A' for Active; 'I' for Inactive)
REMARK    1  A    between atoms: O_1  and  C_32
REMARK    2  A    between atoms: O_1  and  C_33
REMARK    3  A    between atoms: N_3  and  C_14
REMARK    4  A    between atoms: N_3  and  C_20
REMARK    5  A    between atoms: C_7  and  C_11
REMARK    6  A    between atoms: C_8  and  C_14
REMARK    7  A    between atoms: C_10  and  C_15
REMARK    8  A    between atoms: C_11  and  C_16
REMARK    9  A    between atoms: C_11  and  C_17
REMARK   10  A    between atoms: C_12  and  C_18
REMARK   11  A    between atoms: C_15  and  C_19
REMARK   12  A    between atoms: C_20  and  C_23
REMARK   13  A    between atoms: C_28  and  C_32
REMARK                            x       y       z     vdW  Elec       q    Type
REMARK                         _______ _______ _______ _____ _____    ______ ____
ROOT
ATOM      7  C   UNL     1      -4.267  -0.832  23.915  0.00  0.00    +0.000 C 
ATOM      8  C   UNL     1      -4.605   0.079  25.118  0.00  0.00    +0.029 C 
ATOM      9  C   UNL     1      -3.111  -0.239  23.099  0.00  0.00    +0.012 C 
ATOM     10  C   UNL     1      -1.834   0.003  23.934  0.00  0.00    +0.022 C 
ATOM     12  C   UNL     1      -2.127   0.535  25.329  0.00  0.00    -0.073 C 
ATOM     13  C   UNL     1      -3.374   0.571  25.835  0.00  0.00    -0.023 C 
ATOM     18  C   UNL     1      -0.957   0.974  26.165  0.00  0.00    +0.039 C 
ENDROOT
BRANCH   7  11
ATOM     11  C   UNL     1      -3.950  -2.263  24.368  0.00  0.00    -0.013 C 
ATOM     16  C   UNL     1      -2.445  -2.510  24.341  0.00  0.00    +0.007 C 
ATOM     17  C   UNL     1      -4.680  -3.274  23.489  0.00  0.00    +0.007 C 
ENDBRANCH   7  11
BRANCH   8  14
ATOM     14  C   UNL     1      -5.457   1.281  24.697  0.00  0.00    +0.089 C 
BRANCH  14   3
ATOM      3  N   UNL     1      -5.810   2.089  25.852  0.00  0.00    -0.311 NA
ATOM     34  H   UNL     1      -5.243   1.794  26.646  0.00  0.00    +0.122 HD
BRANCH   3  20
ATOM     20  C   UNL     1      -5.571   3.504  25.595  0.00  0.00    +0.116 C 
BRANCH  20  23
ATOM      6  N   UNL     1      -1.431   4.300  24.745  0.00  0.00    -0.263 NA
ATOM     23  C   UNL     1      -4.122   3.783  25.297  0.00  0.00    -0.031 A 
ATOM     26  C   UNL     1      -3.251   4.125  26.326  0.00  0.00    +0.024 A 
ATOM     27  C   UNL     1      -3.649   3.697  23.992  0.00  0.00    +0.024 A 
ATOM     30  C   UNL     1      -1.927   4.372  26.000  0.00  0.00    +0.111 A 
ATOM     31  C   UNL     1      -2.307   3.964  23.771  0.00  0.00    +0.111 A 
ENDBRANCH  20  23
ENDBRANCH   3  20
ENDBRANCH  14   3
ENDBRANCH   8  14
BRANCH  10  15
ATOM     15  C   UNL     1      -0.891   0.911  23.135  0.00  0.00    +0.082 C 
BRANCH  15  19
ATOM      4  N   UNL     1       1.575   1.333  23.128  0.00  0.00    -0.342 N 
ATOM      5  N   UNL     1       0.952  -0.774  23.461  0.00  0.00    -0.232 NA
ATOM     19  C   UNL     1       0.535   0.454  23.247  0.00  0.00    +0.109 A 
ATOM     21  C   UNL     1       2.741   0.626  23.274  0.00  0.00    +0.067 A 
ATOM     22  C   UNL     1       2.326  -0.687  23.481  0.00  0.00    +0.089 A 
ATOM     24  C   UNL     1       4.081   1.009  23.245  0.00  0.00    +0.042 A 
ATOM     25  C   UNL     1       3.292  -1.689  23.671  0.00  0.00    +0.030 A 
ATOM     28  C   UNL     1       5.030  -0.001  23.436  0.00  0.00    +0.061 A 
ATOM     29  C   UNL     1       4.645  -1.327  23.646  0.00  0.00    +0.017 A 
ATOM     35  H   UNL     1       1.502   2.329  22.963  0.00  0.00    +0.167 HD
BRANCH  28  32
ATOM      2  O   UNL     1       6.946   1.286  24.034  0.00  0.00    -0.245 OA
ATOM     32  C   UNL     1       6.445   0.338  23.416  0.00  0.00    +0.339 C 
BRANCH  32   1
ATOM      1  O   UNL     1       7.157  -0.523  22.625  0.00  0.00    -0.464 OA
ATOM     33  C   UNL     1       8.580  -0.519  22.785  0.00  0.00    +0.280 C 
ENDBRANCH  32   1
ENDBRANCH  28  32
ENDBRANCH  15  19
ENDBRANCH  10  15
TORSDOF 9
ENDMDL
MODEL 4
REMARK VINA RESULT:       2.8      1.317      3.541
REMARK  Name = 71693190
REMARK  13 active torsions:
REMARK  status: ('A' for Active; 'I' for Inactive)
REMARK    1  A    between atoms: O_1  and  C_32
REMARK    2  A    between atoms: O_1  and  C_33
REMARK    3  A    between atoms: N_3  and  C_14
REMARK    4  A    between atoms: N_3  and  C_20
REMARK    5  A    between atoms: C_7  and  C_11
REMARK    6  A    between atoms: C_8  and  C_14
REMARK    7  A    between atoms: C_10  and  C_15
REMARK    8  A    between atoms: C_11  and  C_16
REMARK    9  A    between atoms: C_11  and  C_17
REMARK   10  A    between atoms: C_12  and  C_18
REMARK   11  A    between atoms: C_15  and  C_19
REMARK   12  A    between atoms: C_20  and  C_23
REMARK   13  A    between atoms: C_28  and  C_32
REMARK                            x       y       z     vdW  Elec       q    Type
REMARK                         _______ _______ _______ _____ _____    ______ ____
ROOT
ATOM      7  C   UNL     1      -3.601   2.413  23.815  0.00  0.00    +0.000 C 
ATOM      8  C   UNL     1      -4.935   2.005  24.482  0.00  0.00    +0.029 C 
ATOM      9  C   UNL     1      -2.481   1.444  24.216  0.00  0.00    +0.012 C 
ATOM     10  C   UNL     1      -2.796  -0.030  23.877  0.00  0.00    +0.022 C 
ATOM     12  C   UNL     1      -4.247  -0.403  24.135  0.00  0.00    -0.073 C 
ATOM     13  C   UNL     1      -5.185   0.521  24.416  0.00  0.00    -0.023 C 
ATOM     18  C   UNL     1      -4.625  -1.853  24.009  0.00  0.00    +0.039 C 
ENDROOT
BRANCH   7  11
ATOM     11  C   UNL     1      -3.741   2.498  22.289  0.00  0.00    -0.013 C 
ATOM     16  C   UNL     1      -2.414   2.171  21.613  0.00  0.00    +0.007 C 
ATOM     17  C   UNL     1      -4.232   3.881  21.876  0.00  0.00    +0.007 C 
ENDBRANCH   7  11
BRANCH   8  14
ATOM     14  C   UNL     1      -5.000   2.462  25.944  0.00  0.00    +0.089 C 
BRANCH  14   3
ATOM      3  N   UNL     1      -4.733   3.887  26.047  0.00  0.00    -0.311 NA
ATOM     34  H   UNL     1      -5.563   4.352  26.415  0.00  0.00    +0.122 HD
BRANCH   3  20
ATOM     20  C   UNL     1      -3.608   4.145  26.937  0.00  0.00    +0.116 C 
BRANCH  20  23
ATOM      6  N   UNL     1       0.160   3.870  24.882  0.00  0.00    -0.263 NA
ATOM     23  C   UNL     1      -2.289   4.049  26.218  0.00  0.00    -0.031 A 
ATOM     26  C   UNL     1      -1.949   4.992  25.255  0.00  0.00    +0.024 A 
ATOM     27  C   UNL     1      -1.406   3.017  26.515  0.00  0.00    +0.024 A 
ATOM     30  C   UNL     1      -0.723   4.859  24.621  0.00  0.00    +0.111 A 
ATOM     31  C   UNL     1      -0.205   2.972  25.825  0.00  0.00    +0.111 A 
ENDBRANCH  20  23
ENDBRANCH   3  20
ENDBRANCH  14   3
ENDBRANCH   8  14
BRANCH  10  15
ATOM     15  C   UNL     1      -1.805  -0.927  24.629  0.00  0.00    +0.082 C 
BRANCH  15  19
ATOM      4  N   UNL     1       0.635  -1.476  24.585  0.00  0.00    -0.342 N 
ATOM      5  N   UNL     1       0.031   0.350  23.471  0.00  0.00    -0.232 NA
ATOM     19  C   UNL     1      -0.389  -0.653  24.209  0.00  0.00    +0.109 A 
ATOM     21  C   UNL     1       1.795  -0.971  24.055  0.00  0.00    +0.067 A 
ATOM     22  C   UNL     1       1.391   0.169  23.364  0.00  0.00    +0.089 A 
ATOM     24  C   UNL     1       3.121  -1.399  24.118  0.00  0.00    +0.042 A 
ATOM     25  C   UNL     1       2.355   0.939  22.691  0.00  0.00    +0.030 A 
ATOM     28  C   UNL     1       4.067  -0.621  23.442  0.00  0.00    +0.061 A 
ATOM     29  C   UNL     1       3.693   0.527  22.740  0.00  0.00    +0.017 A 
ATOM     35  H   UNL     1       0.557  -2.311  25.152  0.00  0.00    +0.167 HD
BRANCH  28  32
ATOM      2  O   UNL     1       5.869  -2.136  23.815  0.00  0.00    -0.245 OA
ATOM     32  C   UNL     1       5.466  -1.017  23.471  0.00  0.00    +0.339 C 
BRANCH  32   1
ATOM      1  O   UNL     1       6.286   0.003  23.072  0.00  0.00    -0.464 OA
ATOM     33  C   UNL     1       7.692  -0.270  23.046  0.00  0.00    +0.280 C 
ENDBRANCH  32   1
ENDBRANCH  28  32
ENDBRANCH  15  19
ENDBRANCH  10  15
TORSDOF 9
ENDMDL
