MODEL 1
REMARK VINA RESULT:      -4.1      0.000      0.000
REMARK  Name = 45783700
REMARK  9 active torsions:
REMARK  status: ('A' for Active; 'I' for Inactive)
REMARK    1  A    between atoms: O_2  and  C_22
REMARK    2  A    between atoms: O_2  and  C_23
REMARK    3  A    between atoms: N_3  and  C_10
REMARK    4  A    between atoms: C_7  and  C_13
REMARK    5  A    between atoms: C_10  and  C_12
REMARK    6  A    between atoms: C_12  and  C_14
REMARK    7  A    between atoms: C_12  and  C_15
REMARK    8  A    between atoms: C_12  and  C_16
REMARK    9  A    between atoms: C_17  and  C_18
REMARK                            x       y       z     vdW  Elec       q    Type
REMARK                         _______ _______ _______ _____ _____    ______ ____
ROOT
ATOM      1  O   UNL     1      -1.776   2.999  24.895  0.00  0.00    -0.336 OA
ATOM      4  N   UNL     1      -1.429   1.272  23.512  0.00  0.00    -0.190 NA
ATOM      5  N   UNL     1      -0.386   2.872  24.773  0.00  0.00    -0.056 NA
ATOM     13  C   UNL     1      -2.314   2.020  24.122  0.00  0.00    +0.245 A 
ATOM     17  C   UNL     1      -0.261   1.832  23.941  0.00  0.00    +0.204 A 
ENDROOT
BRANCH  17  18
ATOM      6  N   UNL     1       3.368   1.730  23.135  0.00  0.00    -0.221 NA
ATOM     18  C   UNL     1       1.016   1.329  23.523  0.00  0.00    +0.041 A 
ATOM     19  C   UNL     1       1.164   0.011  23.107  0.00  0.00    +0.018 A 
ATOM     20  C   UNL     1       2.138   2.141  23.519  0.00  0.00    +0.126 A 
ATOM     21  C   UNL     1       2.414  -0.449  22.705  0.00  0.00    +0.068 A 
ATOM     22  C   UNL     1       3.474   0.442  22.737  0.00  0.00    +0.214 A 
BRANCH  22   2
ATOM      2  O   UNL     1       4.715   0.013  22.347  0.00  0.00    -0.480 OA
ATOM     23  C   UNL     1       5.699  -0.112  23.367  0.00  0.00    +0.279 C 
ENDBRANCH  22   2
ENDBRANCH  17  18
BRANCH  13   7
ATOM      3  N   UNL     1      -4.357   0.804  24.858  0.00  0.00    -0.291 NA
ATOM      7  C   UNL     1      -3.825   1.943  24.083  0.00  0.00    +0.146 C 
ATOM      8  C   UNL     1      -4.499   3.183  24.699  0.00  0.00    +0.030 C 
ATOM      9  C   UNL     1      -5.680   1.207  25.331  0.00  0.00    +0.085 C 
ATOM     11  C   UNL     1      -5.434   2.637  25.769  0.00  0.00    +0.017 C 
BRANCH   3  10
ATOM     10  C   UNL     1      -4.401  -0.437  24.096  0.00  0.00    +0.091 C 
BRANCH  10  12
ATOM     12  C   UNL     1      -3.506  -1.565  24.671  0.00  0.00    -0.025 C 
ATOM     14  C   UNL     1      -4.075  -2.950  24.319  0.00  0.00    +0.012 C 
ATOM     15  C   UNL     1      -2.065  -1.460  24.139  0.00  0.00    +0.012 C 
ATOM     16  C   UNL     1      -3.473  -1.421  26.205  0.00  0.00    +0.012 C 
ENDBRANCH  10  12
ENDBRANCH   3  10
ENDBRANCH  13   7
TORSDOF 5
ENDMDL
MODEL 2
REMARK VINA RESULT:      -3.2     15.555     17.339
REMARK  Name = 45783700
REMARK  9 active torsions:
REMARK  status: ('A' for Active; 'I' for Inactive)
REMARK    1  A    between atoms: O_2  and  C_22
REMARK    2  A    between atoms: O_2  and  C_23
REMARK    3  A    between atoms: N_3  and  C_10
REMARK    4  A    between atoms: C_7  and  C_13
REMARK    5  A    between atoms: C_10  and  C_12
REMARK    6  A    between atoms: C_12  and  C_14
REMARK    7  A    between atoms: C_12  and  C_15
REMARK    8  A    between atoms: C_12  and  C_16
REMARK    9  A    between atoms: C_17  and  C_18
REMARK                            x       y       z     vdW  Elec       q    Type
REMARK                         _______ _______ _______ _____ _____    ______ ____
ROOT
ATOM      1  O   UNL     1      -6.384  -8.849   9.312  0.00  0.00    -0.336 OA
ATOM      4  N   UNL     1      -6.439 -10.195  11.102  0.00  0.00    -0.190 NA
ATOM      5  N   UNL     1      -5.093  -8.827   9.855  0.00  0.00    -0.056 NA
ATOM     13  C   UNL     1      -7.112  -9.678  10.105  0.00  0.00    +0.245 A 
ATOM     17  C   UNL     1      -5.205  -9.644  10.908  0.00  0.00    +0.204 A 
ENDROOT
BRANCH  17  18
ATOM      6  N   UNL     1      -3.327 -10.652  13.955  0.00  0.00    -0.221 NA
ATOM     18  C   UNL     1      -4.106  -9.929  11.783  0.00  0.00    +0.041 A 
ATOM     19  C   UNL     1      -2.792  -9.769  11.357  0.00  0.00    +0.018 A 
ATOM     20  C   UNL     1      -4.318 -10.369  13.080  0.00  0.00    +0.126 A 
ATOM     21  C   UNL     1      -1.745 -10.051  12.229  0.00  0.00    +0.068 A 
ATOM     22  C   UNL     1      -2.064 -10.486  13.505  0.00  0.00    +0.214 A 
BRANCH  22   2
ATOM      2  O   UNL     1      -1.050 -10.771  14.382  0.00  0.00    -0.480 OA
ATOM     23  C   UNL     1      -1.217 -10.323  15.722  0.00  0.00    +0.279 C 
ENDBRANCH  22   2
ENDBRANCH  17  18
BRANCH  13   7
ATOM      3  N   UNL     1      -9.495  -9.407  10.770  0.00  0.00    -0.291 NA
ATOM      7  C   UNL     1      -8.564  -9.875   9.723  0.00  0.00    +0.146 C 
ATOM      8  C   UNL     1      -8.961  -9.082   8.464  0.00  0.00    +0.030 C 
ATOM      9  C   UNL     1     -10.715  -8.988  10.080  0.00  0.00    +0.085 C 
ATOM     11  C   UNL     1     -10.159  -8.243   8.884  0.00  0.00    +0.017 C 
BRANCH   3  10
ATOM     10  C   UNL     1      -9.760 -10.410  11.793  0.00  0.00    +0.091 C 
BRANCH  10  12
ATOM     12  C   UNL     1      -9.684  -9.869  13.244  0.00  0.00    -0.025 C 
ATOM     14  C   UNL     1      -8.235  -9.887  13.760  0.00  0.00    +0.012 C 
ATOM     15  C   UNL     1     -10.235  -8.434  13.335  0.00  0.00    +0.012 C 
ATOM     16  C   UNL     1     -10.539 -10.780  14.145  0.00  0.00    +0.012 C 
ENDBRANCH  10  12
ENDBRANCH   3  10
ENDBRANCH  13   7
TORSDOF 5
ENDMDL
MODEL 3
REMARK VINA RESULT:      -2.9      1.817      3.484
REMARK  Name = 45783700
REMARK  9 active torsions:
REMARK  status: ('A' for Active; 'I' for Inactive)
REMARK    1  A    between atoms: O_2  and  C_22
REMARK    2  A    between atoms: O_2  and  C_23
REMARK    3  A    between atoms: N_3  and  C_10
REMARK    4  A    between atoms: C_7  and  C_13
REMARK    5  A    between atoms: C_10  and  C_12
REMARK    6  A    between atoms: C_12  and  C_14
REMARK    7  A    between atoms: C_12  and  C_15
REMARK    8  A    between atoms: C_12  and  C_16
REMARK    9  A    between atoms: C_17  and  C_18
REMARK                            x       y       z     vdW  Elec       q    Type
REMARK                         _______ _______ _______ _____ _____    ______ ____
ROOT
ATOM      1  O   UNL     1      -2.926  -0.497  24.587  0.00  0.00    -0.336 OA
ATOM      4  N   UNL     1      -1.588   1.298  24.672  0.00  0.00    -0.190 NA
ATOM      5  N   UNL     1      -1.721  -0.882  23.986  0.00  0.00    -0.056 NA
ATOM     13  C   UNL     1      -2.763   0.799  24.963  0.00  0.00    +0.245 A 
ATOM     17  C   UNL     1      -0.983   0.230  24.074  0.00  0.00    +0.204 A 
ENDROOT
BRANCH  17  18
ATOM      6  N   UNL     1       2.501   1.428  23.567  0.00  0.00    -0.221 NA
ATOM     18  C   UNL     1       0.359   0.307  23.574  0.00  0.00    +0.041 A 
ATOM     19  C   UNL     1       0.829  -0.613  22.643  0.00  0.00    +0.018 A 
ATOM     20  C   UNL     1       1.227   1.299  24.001  0.00  0.00    +0.126 A 
ATOM     21  C   UNL     1       2.135  -0.513  22.174  0.00  0.00    +0.068 A 
ATOM     22  C   UNL     1       2.923   0.516  22.663  0.00  0.00    +0.214 A 
BRANCH  22   2
ATOM      2  O   UNL     1       4.213   0.635  22.217  0.00  0.00    -0.480 OA
ATOM     23  C   UNL     1       5.239   0.209  23.106  0.00  0.00    +0.279 C 
ENDBRANCH  22   2
ENDBRANCH  17  18
BRANCH  13   7
ATOM      3  N   UNL     1      -4.141   2.855  25.218  0.00  0.00    -0.291 NA
ATOM      7  C   UNL     1      -3.943   1.456  25.648  0.00  0.00    +0.146 C 
ATOM      8  C   UNL     1      -5.278   0.757  25.334  0.00  0.00    +0.030 C 
ATOM      9  C   UNL     1      -5.573   3.126  25.342  0.00  0.00    +0.085 C 
ATOM     11  C   UNL     1      -6.182   1.854  24.789  0.00  0.00    +0.017 C 
BRANCH   3  10
ATOM     10  C   UNL     1      -3.335   3.807  25.971  0.00  0.00    +0.091 C 
BRANCH  10  12
ATOM     12  C   UNL     1      -2.186   4.450  25.152  0.00  0.00    -0.025 C 
ATOM     14  C   UNL     1      -2.182   5.979  25.322  0.00  0.00    +0.012 C 
ATOM     15  C   UNL     1      -0.817   3.889  25.576  0.00  0.00    +0.012 C 
ATOM     16  C   UNL     1      -2.410   4.121  23.664  0.00  0.00    +0.012 C 
ENDBRANCH  10  12
ENDBRANCH   3  10
ENDBRANCH  13   7
TORSDOF 5
ENDMDL
MODEL 4
REMARK VINA RESULT:      -2.1      1.499      3.317
REMARK  Name = 45783700
REMARK  9 active torsions:
REMARK  status: ('A' for Active; 'I' for Inactive)
REMARK    1  A    between atoms: O_2  and  C_22
REMARK    2  A    between atoms: O_2  and  C_23
REMARK    3  A    between atoms: N_3  and  C_10
REMARK    4  A    between atoms: C_7  and  C_13
REMARK    5  A    between atoms: C_10  and  C_12
REMARK    6  A    between atoms: C_12  and  C_14
REMARK    7  A    between atoms: C_12  and  C_15
REMARK    8  A    between atoms: C_12  and  C_16
REMARK    9  A    between atoms: C_17  and  C_18
REMARK                            x       y       z     vdW  Elec       q    Type
REMARK                         _______ _______ _______ _____ _____    ______ ____
ROOT
ATOM      1  O   UNL     1      -1.271   1.090  23.613  0.00  0.00    -0.336 OA
ATOM      4  N   UNL     1       0.015  -0.602  24.319  0.00  0.00    -0.190 NA
ATOM      5  N   UNL     1       0.022   1.366  23.152  0.00  0.00    -0.056 NA
ATOM     13  C   UNL     1      -1.187  -0.085  24.289  0.00  0.00    +0.245 A 
ATOM     17  C   UNL     1       0.723   0.323  23.608  0.00  0.00    +0.204 A 
ENDROOT
BRANCH  17  18
ATOM      6  N   UNL     1       4.100  -1.223  23.425  0.00  0.00    -0.221 NA
ATOM     18  C   UNL     1       2.131   0.178  23.372  0.00  0.00    +0.041 A 
ATOM     19  C   UNL     1       2.888   1.238  22.886  0.00  0.00    +0.018 A 
ATOM     20  C   UNL     1       2.778  -1.021  23.623  0.00  0.00    +0.126 A 
ATOM     21  C   UNL     1       4.251   1.068  22.668  0.00  0.00    +0.068 A 
ATOM     22  C   UNL     1       4.804  -0.171  22.951  0.00  0.00    +0.214 A 
BRANCH  22   2
ATOM      2  O   UNL     1       6.145  -0.362  22.744  0.00  0.00    -0.480 OA
ATOM     23  C   UNL     1       7.020   0.071  23.779  0.00  0.00    +0.279 C 
ENDBRANCH  22   2
ENDBRANCH  17  18
BRANCH  13   7
ATOM      3  N   UNL     1      -3.625   0.279  24.637  0.00  0.00    -0.291 NA
ATOM      7  C   UNL     1      -2.473  -0.610  24.894  0.00  0.00    +0.146 C 
ATOM      8  C   UNL     1      -2.892  -1.972  24.311  0.00  0.00    +0.030 C 
ATOM      9  C   UNL     1      -4.809  -0.579  24.606  0.00  0.00    +0.085 C 
ATOM     11  C   UNL     1      -4.313  -1.767  23.806  0.00  0.00    +0.017 C 
BRANCH   3  10
ATOM     10  C   UNL     1      -3.750   1.352  25.615  0.00  0.00    +0.091 C 
BRANCH  10  12
ATOM     12  C   UNL     1      -4.052   2.740  24.995  0.00  0.00    -0.025 C 
ATOM     14  C   UNL     1      -3.990   2.679  23.459  0.00  0.00    +0.012 C 
ATOM     15  C   UNL     1      -5.437   3.256  25.426  0.00  0.00    +0.012 C 
ATOM     16  C   UNL     1      -2.984   3.734  25.491  0.00  0.00    +0.012 C 
ENDBRANCH  10  12
ENDBRANCH   3  10
ENDBRANCH  13   7
TORSDOF 5
ENDMDL
MODEL 5
REMARK VINA RESULT:      -1.0      1.775      2.794
REMARK  Name = 45783700
REMARK  9 active torsions:
REMARK  status: ('A' for Active; 'I' for Inactive)
REMARK    1  A    between atoms: O_2  and  C_22
REMARK    2  A    between atoms: O_2  and  C_23
REMARK    3  A    between atoms: N_3  and  C_10
REMARK    4  A    between atoms: C_7  and  C_13
REMARK    5  A    between atoms: C_10  and  C_12
REMARK    6  A    between atoms: C_12  and  C_14
REMARK    7  A    between atoms: C_12  and  C_15
REMARK    8  A    between atoms: C_12  and  C_16
REMARK    9  A    between atoms: C_17  and  C_18
REMARK                            x       y       z     vdW  Elec       q    Type
REMARK                         _______ _______ _______ _____ _____    ______ ____
ROOT
ATOM      1  O   UNL     1      -0.814   0.524  23.028  0.00  0.00    -0.336 OA
ATOM      4  N   UNL     1       0.887   1.763  23.794  0.00  0.00    -0.190 NA
ATOM      5  N   UNL     1       0.337  -0.258  22.874  0.00  0.00    -0.056 NA
ATOM     13  C   UNL     1      -0.402   1.697  23.576  0.00  0.00    +0.245 A 
ATOM     17  C   UNL     1       1.299   0.541  23.348  0.00  0.00    +0.204 A 
ENDROOT
BRANCH  17  18
ATOM      6  N   UNL     1       4.326  -1.567  23.813  0.00  0.00    -0.221 NA
ATOM     18  C   UNL     1       2.678   0.149  23.387  0.00  0.00    +0.041 A 
ATOM     19  C   UNL     1       3.687   1.048  23.060  0.00  0.00    +0.018 A 
ATOM     20  C   UNL     1       3.046  -1.135  23.754  0.00  0.00    +0.126 A 
ATOM     21  C   UNL     1       5.016   0.640  23.108  0.00  0.00    +0.068 A 
ATOM     22  C   UNL     1       5.280  -0.666  23.488  0.00  0.00    +0.214 A 
BRANCH  22   2
ATOM      2  O   UNL     1       6.581  -1.091  23.542  0.00  0.00    -0.480 OA
ATOM     23  C   UNL     1       7.567  -0.204  23.025  0.00  0.00    +0.279 C 
ENDBRANCH  22   2
ENDBRANCH  17  18
BRANCH  13   7
ATOM      3  N   UNL     1      -2.540   2.223  24.737  0.00  0.00    -0.291 NA
ATOM      7  C   UNL     1      -1.476   2.730  23.847  0.00  0.00    +0.146 C 
ATOM      8  C   UNL     1      -0.932   3.980  24.562  0.00  0.00    +0.030 C 
ATOM      9  C   UNL     1      -3.061   3.382  25.461  0.00  0.00    +0.085 C 
ATOM     11  C   UNL     1      -1.790   4.130  25.810  0.00  0.00    +0.017 C 
BRANCH   3  10
ATOM     10  C   UNL     1      -3.589   1.503  24.025  0.00  0.00    +0.091 C 
BRANCH  10  12
ATOM     12  C   UNL     1      -4.076   0.220  24.745  0.00  0.00    -0.025 C 
ATOM     14  C   UNL     1      -5.358   0.495  25.550  0.00  0.00    +0.012 C 
ATOM     15  C   UNL     1      -4.342  -0.917  23.741  0.00  0.00    +0.012 C 
ATOM     16  C   UNL     1      -2.972  -0.237  25.719  0.00  0.00    +0.012 C 
ENDBRANCH  10  12
ENDBRANCH   3  10
ENDBRANCH  13   7
TORSDOF 5
ENDMDL
