MODEL 1
REMARK VINA RESULT:      -5.5      0.000      0.000
REMARK  Name = 56774590
REMARK  7 active torsions:
REMARK  status: ('A' for Active; 'I' for Inactive)
REMARK    1  A    between atoms: O_2  and  C_8
REMARK    2  A    between atoms: N_5  and  C_10
REMARK    3  A    between atoms: N_6  and  C_21
REMARK    4  A    between atoms: C_7  and  C_8
REMARK    5  A    between atoms: C_8  and  C_12
REMARK    6  A    between atoms: C_10  and  C_14
REMARK    7  A    between atoms: C_25  and  C_26
REMARK                            x       y       z     vdW  Elec       q    Type
REMARK                         _______ _______ _______ _____ _____    ______ ____
ROOT
ATOM      1  O   UNL     1      -1.807   4.018  25.940  0.00  0.00    -0.369 OA
ATOM      3  O   UNL     1      -5.366   3.886  25.340  0.00  0.00    -0.273 OA
ATOM      5  N   UNL     1      -3.776   2.203  25.108  0.00  0.00    -0.287 N 
ATOM      7  C   UNL     1      -2.350   1.854  25.084  0.00  0.00    +0.135 C 
ATOM      9  C   UNL     1      -1.605   2.629  26.165  0.00  0.00    +0.185 C 
ATOM     11  C   UNL     1      -4.210   3.479  25.463  0.00  0.00    +0.242 C 
ATOM     13  C   UNL     1      -3.162   4.368  26.123  0.00  0.00    +0.255 C 
ENDROOT
BRANCH   7   8
ATOM      8  C   UNL     1      -1.752   2.125  23.700  0.00  0.00    +0.167 C 
BRANCH   8  12
ATOM     12  C   UNL     1      -0.406   1.468  23.533  0.00  0.00    -0.017 A 
ATOM     15  C   UNL     1       0.760   2.222  23.668  0.00  0.00    +0.008 A 
ATOM     16  C   UNL     1      -0.325   0.105  23.246  0.00  0.00    +0.008 A 
ATOM     17  C   UNL     1       2.006   1.614  23.515  0.00  0.00    +0.023 A 
ATOM     18  C   UNL     1       0.920  -0.503  23.092  0.00  0.00    +0.023 A 
ATOM     21  C   UNL     1       2.086   0.251  23.227  0.00  0.00    +0.033 A 
BRANCH  21   6
ATOM      4  O   UNL     1       4.851   1.275  23.840  0.00  0.00    -0.276 OA
ATOM      6  N   UNL     1       3.333  -0.357  23.073  0.00  0.00    -0.286 N 
ATOM     25  C   UNL     1       4.595   0.170  23.375  0.00  0.00    +0.214 C 
ATOM     26  C   UNL     1       5.699  -0.810  23.062  0.00  0.00    +0.109 C 
ATOM     28  H   UNL     1       3.311  -1.301  22.693  0.00  0.00    +0.155 HD
ENDBRANCH  21   6
ENDBRANCH   8  12
BRANCH   8   2
ATOM      2  O   UNL     1      -2.643   1.642  22.699  0.00  0.00    -0.385 OA
ATOM     27  H   UNL     1      -2.131   1.194  22.005  0.00  0.00    +0.210 HD
ENDBRANCH   8   2
ENDBRANCH   7   8
BRANCH   5  10
ATOM     10  C   UNL     1      -4.716   1.230  24.571  0.00  0.00    +0.143 C 
BRANCH  10  14
ATOM     14  C   UNL     1      -4.225  -0.179  24.739  0.00  0.00    -0.030 A 
ATOM     19  C   UNL     1      -3.636  -0.575  25.939  0.00  0.00    +0.005 A 
ATOM     20  C   UNL     1      -4.358  -1.093  23.693  0.00  0.00    +0.005 A 
ATOM     22  C   UNL     1      -3.180  -1.884  26.096  0.00  0.00    +0.000 A 
ATOM     23  C   UNL     1      -3.902  -2.402  23.848  0.00  0.00    +0.000 A 
ATOM     24  C   UNL     1      -3.313  -2.797  25.050  0.00  0.00    +0.000 A 
ENDBRANCH  10  14
ENDBRANCH   5  10
TORSDOF 6
ENDMDL
MODEL 2
REMARK VINA RESULT:      -3.8     15.225     17.520
REMARK  Name = 56774590
REMARK  7 active torsions:
REMARK  status: ('A' for Active; 'I' for Inactive)
REMARK    1  A    between atoms: O_2  and  C_8
REMARK    2  A    between atoms: N_5  and  C_10
REMARK    3  A    between atoms: N_6  and  C_21
REMARK    4  A    between atoms: C_7  and  C_8
REMARK    5  A    between atoms: C_8  and  C_12
REMARK    6  A    between atoms: C_10  and  C_14
REMARK    7  A    between atoms: C_25  and  C_26
REMARK                            x       y       z     vdW  Elec       q    Type
REMARK                         _______ _______ _______ _____ _____    ______ ____
ROOT
ATOM      1  O   UNL     1      -7.332  -7.756   8.321  0.00  0.00    -0.369 OA
ATOM      3  O   UNL     1      -9.723 -10.429   8.751  0.00  0.00    -0.273 OA
ATOM      5  N   UNL     1      -8.064  -9.696  10.209  0.00  0.00    -0.287 N 
ATOM      7  C   UNL     1      -6.880  -8.848  10.399  0.00  0.00    +0.135 C 
ATOM      9  C   UNL     1      -7.080  -7.509   9.699  0.00  0.00    +0.185 C 
ATOM     11  C   UNL     1      -8.828  -9.634   9.046  0.00  0.00    +0.242 C 
ATOM     13  C   UNL     1      -8.556  -8.434   8.145  0.00  0.00    +0.255 C 
ENDROOT
BRANCH   7   8
ATOM      8  C   UNL     1      -5.623  -9.556   9.885  0.00  0.00    +0.167 C 
BRANCH   8  12
ATOM     12  C   UNL     1      -4.665  -9.880  11.003  0.00  0.00    -0.017 A 
ATOM     15  C   UNL     1      -5.130  -9.976  12.314  0.00  0.00    +0.008 A 
ATOM     16  C   UNL     1      -3.313 -10.083  10.726  0.00  0.00    +0.008 A 
ATOM     17  C   UNL     1      -4.245 -10.277  13.349  0.00  0.00    +0.023 A 
ATOM     18  C   UNL     1      -2.426 -10.383  11.760  0.00  0.00    +0.023 A 
ATOM     21  C   UNL     1      -2.893 -10.480  13.072  0.00  0.00    +0.033 A 
BRANCH  21   6
ATOM      4  O   UNL     1      -1.041  -8.696  14.638  0.00  0.00    -0.276 OA
ATOM      6  N   UNL     1      -2.006 -10.780  14.107  0.00  0.00    -0.286 N 
ATOM     25  C   UNL     1      -1.161  -9.905  14.802  0.00  0.00    +0.214 C 
ATOM     26  C   UNL     1      -0.355 -10.625  15.855  0.00  0.00    +0.109 C 
ATOM     28  H   UNL     1      -1.975 -11.759  14.382  0.00  0.00    +0.155 HD
ENDBRANCH  21   6
ENDBRANCH   8  12
BRANCH   8   2
ATOM      2  O   UNL     1      -5.998 -10.758   9.219  0.00  0.00    -0.385 OA
ATOM     27  H   UNL     1      -6.967 -10.833   9.216  0.00  0.00    +0.210 HD
ENDBRANCH   8   2
ENDBRANCH   7   8
BRANCH   5  10
ATOM     10  C   UNL     1      -8.312 -10.736  11.197  0.00  0.00    +0.143 C 
BRANCH  10  14
ATOM     14  C   UNL     1      -8.872 -10.178  12.473  0.00  0.00    -0.030 A 
ATOM     19  C   UNL     1     -10.169  -9.667  12.502  0.00  0.00    +0.005 A 
ATOM     20  C   UNL     1      -8.094 -10.169  13.631  0.00  0.00    +0.005 A 
ATOM     22  C   UNL     1     -10.690  -9.149  13.689  0.00  0.00    +0.000 A 
ATOM     23  C   UNL     1      -8.613  -9.650  14.817  0.00  0.00    +0.000 A 
ATOM     24  C   UNL     1      -9.912  -9.140  14.845  0.00  0.00    +0.000 A 
ENDBRANCH  10  14
ENDBRANCH   5  10
TORSDOF 6
ENDMDL
MODEL 3
REMARK VINA RESULT:      -3.6      1.647      2.899
REMARK  Name = 56774590
REMARK  7 active torsions:
REMARK  status: ('A' for Active; 'I' for Inactive)
REMARK    1  A    between atoms: O_2  and  C_8
REMARK    2  A    between atoms: N_5  and  C_10
REMARK    3  A    between atoms: N_6  and  C_21
REMARK    4  A    between atoms: C_7  and  C_8
REMARK    5  A    between atoms: C_8  and  C_12
REMARK    6  A    between atoms: C_10  and  C_14
REMARK    7  A    between atoms: C_25  and  C_26
REMARK                            x       y       z     vdW  Elec       q    Type
REMARK                         _______ _______ _______ _____ _____    ______ ____
ROOT
ATOM      1  O   UNL     1      -3.343   4.040  23.387  0.00  0.00    -0.369 OA
ATOM      3  O   UNL     1      -3.355   0.448  23.011  0.00  0.00    -0.273 OA
ATOM      5  N   UNL     1      -4.232   1.746  24.732  0.00  0.00    -0.287 N 
ATOM      7  C   UNL     1      -4.328   3.078  25.341  0.00  0.00    +0.135 C 
ATOM      9  C   UNL     1      -4.465   4.139  24.255  0.00  0.00    +0.185 C 
ATOM     11  C   UNL     1      -3.620   1.550  23.496  0.00  0.00    +0.242 C 
ATOM     13  C   UNL     1      -3.352   2.815  22.688  0.00  0.00    +0.255 C 
ENDROOT
BRANCH   7   8
ATOM      8  C   UNL     1      -3.111   3.353  26.229  0.00  0.00    +0.167 C 
BRANCH   8  12
ATOM     12  C   UNL     1      -1.829   2.899  25.579  0.00  0.00    -0.017 A 
ATOM     15  C   UNL     1      -1.389   1.586  25.746  0.00  0.00    +0.008 A 
ATOM     16  C   UNL     1      -1.082   3.792  24.810  0.00  0.00    +0.008 A 
ATOM     17  C   UNL     1      -0.203   1.166  25.144  0.00  0.00    +0.023 A 
ATOM     18  C   UNL     1       0.104   3.372  24.208  0.00  0.00    +0.023 A 
ATOM     21  C   UNL     1       0.543   2.059  24.375  0.00  0.00    +0.033 A 
BRANCH  21   6
ATOM      4  O   UNL     1       1.098  -0.294  22.580  0.00  0.00    -0.276 OA
ATOM      6  N   UNL     1       1.730   1.639  23.772  0.00  0.00    -0.286 N 
ATOM     25  C   UNL     1       1.932   0.528  22.943  0.00  0.00    +0.214 C 
ATOM     26  C   UNL     1       3.369   0.420  22.494  0.00  0.00    +0.109 C 
ATOM     28  H   UNL     1       2.544   2.217  23.967  0.00  0.00    +0.155 HD
ENDBRANCH  21   6
ENDBRANCH   8  12
BRANCH   8   2
ATOM      2  O   UNL     1      -3.035   4.748  26.506  0.00  0.00    -0.385 OA
ATOM     27  H   UNL     1      -2.107   4.993  26.663  0.00  0.00    +0.210 HD
ENDBRANCH   8   2
ENDBRANCH   7   8
BRANCH   5  10
ATOM     10  C   UNL     1      -4.635   0.605  25.542  0.00  0.00    +0.143 C 
BRANCH  10  14
ATOM     14  C   UNL     1      -3.960  -0.662  25.104  0.00  0.00    -0.030 A 
ATOM     19  C   UNL     1      -2.729  -1.023  25.650  0.00  0.00    +0.005 A 
ATOM     20  C   UNL     1      -4.565  -1.480  24.150  0.00  0.00    +0.005 A 
ATOM     22  C   UNL     1      -2.102  -2.201  25.244  0.00  0.00    +0.000 A 
ATOM     23  C   UNL     1      -3.939  -2.658  23.742  0.00  0.00    +0.000 A 
ATOM     24  C   UNL     1      -2.707  -3.018  24.290  0.00  0.00    +0.000 A 
ENDBRANCH  10  14
ENDBRANCH   5  10
TORSDOF 6
ENDMDL
MODEL 4
REMARK VINA RESULT:      -1.6      1.940      3.502
REMARK  Name = 56774590
REMARK  7 active torsions:
REMARK  status: ('A' for Active; 'I' for Inactive)
REMARK    1  A    between atoms: O_2  and  C_8
REMARK    2  A    between atoms: N_5  and  C_10
REMARK    3  A    between atoms: N_6  and  C_21
REMARK    4  A    between atoms: C_7  and  C_8
REMARK    5  A    between atoms: C_8  and  C_12
REMARK    6  A    between atoms: C_10  and  C_14
REMARK    7  A    between atoms: C_25  and  C_26
REMARK                            x       y       z     vdW  Elec       q    Type
REMARK                         _______ _______ _______ _____ _____    ______ ____
ROOT
ATOM      1  O   UNL     1      -0.570  -1.377  25.294  0.00  0.00    -0.369 OA
ATOM      3  O   UNL     1      -3.814  -0.820  26.780  0.00  0.00    -0.273 OA
ATOM      5  N   UNL     1      -3.167  -0.626  24.553  0.00  0.00    -0.287 N 
ATOM      7  C   UNL     1      -2.057  -0.599  23.593  0.00  0.00    +0.135 C 
ATOM      9  C   UNL     1      -1.015  -1.645  23.971  0.00  0.00    +0.185 C 
ATOM     11  C   UNL     1      -2.966  -0.944  25.894  0.00  0.00    +0.242 C 
ATOM     13  C   UNL     1      -1.612  -1.562  26.226  0.00  0.00    +0.255 C 
ENDROOT
BRANCH   7   8
ATOM      8  C   UNL     1      -1.436   0.799  23.528  0.00  0.00    +0.167 C 
BRANCH   8  12
ATOM     12  C   UNL     1       0.061   0.740  23.359  0.00  0.00    -0.017 A 
ATOM     15  C   UNL     1       0.878   1.622  24.064  0.00  0.00    +0.008 A 
ATOM     16  C   UNL     1       0.628  -0.198  22.496  0.00  0.00    +0.008 A 
ATOM     17  C   UNL     1       2.263   1.567  23.909  0.00  0.00    +0.023 A 
ATOM     18  C   UNL     1       2.013  -0.255  22.340  0.00  0.00    +0.023 A 
ATOM     21  C   UNL     1       2.831   0.628  23.047  0.00  0.00    +0.033 A 
BRANCH  21   6
ATOM      4  O   UNL     1       4.851  -1.293  24.185  0.00  0.00    -0.276 OA
ATOM      6  N   UNL     1       4.217   0.573  22.890  0.00  0.00    -0.286 N 
ATOM     25  C   UNL     1       5.113  -0.348  23.449  0.00  0.00    +0.214 C 
ATOM     26  C   UNL     1       6.536  -0.064  23.034  0.00  0.00    +0.109 C 
ATOM     28  H   UNL     1       4.616   1.296  22.296  0.00  0.00    +0.155 HD
ENDBRANCH  21   6
ENDBRANCH   8  12
BRANCH   8   2
ATOM      2  O   UNL     1      -2.008   1.519  22.440  0.00  0.00    -0.385 OA
ATOM     27  H   UNL     1      -2.387   2.351  22.770  0.00  0.00    +0.210 HD
ENDBRANCH   8   2
ENDBRANCH   7   8
BRANCH   5  10
ATOM     10  C   UNL     1      -4.461  -0.132  24.101  0.00  0.00    +0.143 C 
BRANCH  10  14
ATOM     14  C   UNL     1      -4.762   1.235  24.643  0.00  0.00    -0.030 A 
ATOM     19  C   UNL     1      -3.978   2.325  24.263  0.00  0.00    +0.005 A 
ATOM     20  C   UNL     1      -5.825   1.416  25.527  0.00  0.00    +0.005 A 
ATOM     22  C   UNL     1      -4.259   3.596  24.766  0.00  0.00    +0.000 A 
ATOM     23  C   UNL     1      -6.106   2.686  26.030  0.00  0.00    +0.000 A 
ATOM     24  C   UNL     1      -5.322   3.776  25.650  0.00  0.00    +0.000 A 
ENDBRANCH  10  14
ENDBRANCH   5  10
TORSDOF 6
ENDMDL
