MODEL 1
REMARK VINA RESULT:      -1.1      0.000      0.000
REMARK  Name = 38029310
REMARK  13 active torsions:
REMARK  status: ('A' for Active; 'I' for Inactive)
REMARK    1  A    between atoms: S_1  and  N_6
REMARK    2  A    between atoms: S_1  and  C_22
REMARK    3  A    between atoms: N_6  and  C_16
REMARK    4  A    between atoms: N_7  and  C_23
REMARK    5  A    between atoms: C_9  and  C_13
REMARK    6  A    between atoms: C_10  and  C_16
REMARK    7  A    between atoms: C_12  and  C_17
REMARK    8  A    between atoms: C_13  and  C_18
REMARK    9  A    between atoms: C_13  and  C_19
REMARK   10  A    between atoms: C_14  and  C_20
REMARK   11  A    between atoms: C_17  and  C_21
REMARK   12  A    between atoms: C_23  and  C_25
REMARK   13  A    between atoms: C_32  and  C_33
REMARK                            x       y       z     vdW  Elec       q    Type
REMARK                         _______ _______ _______ _____ _____    ______ ____
ROOT
ATOM      9  C   UNL     1      -1.781   0.229  24.863  0.00  0.00    +0.000 C 
ATOM     10  C   UNL     1      -0.738  -0.866  24.527  0.00  0.00    +0.030 C 
ATOM     11  C   UNL     1      -2.799  -0.295  25.886  0.00  0.00    +0.012 C 
ATOM     12  C   UNL     1      -3.548  -1.542  25.376  0.00  0.00    +0.023 C 
ATOM     14  C   UNL     1      -2.600  -2.562  24.779  0.00  0.00    -0.073 C 
ATOM     15  C   UNL     1      -1.344  -2.246  24.419  0.00  0.00    -0.023 C 
ATOM     20  C   UNL     1      -3.115  -3.969  24.649  0.00  0.00    +0.039 C 
ENDROOT
BRANCH   9  13
ATOM     13  C   UNL     1      -1.116   1.501  25.398  0.00  0.00    -0.013 C 
ATOM     18  C   UNL     1      -0.146   1.161  26.525  0.00  0.00    +0.007 C 
ATOM     19  C   UNL     1      -0.400   2.240  24.273  0.00  0.00    +0.007 C 
ENDBRANCH   9  13
BRANCH  10  16
ATOM     16  C   UNL     1       0.015  -0.536  23.232  0.00  0.00    +0.113 C 
BRANCH  16   6
ATOM      6  N   UNL     1       1.462  -0.583  23.493  0.00  0.00    -0.189 NA
ATOM     34  H   UNL     1       1.717  -0.779  24.470  0.00  0.00    +0.148 HD
BRANCH   6   1
ATOM      1  S   UNL     1       2.521   0.435  22.630  0.00  0.00    +0.065 S 
ATOM      4  O   UNL     1       2.274   1.814  23.008  0.00  0.00    -0.153 OA
ATOM      5  O   UNL     1       2.515   0.051  21.232  0.00  0.00    -0.153 OA
BRANCH   1  22
ATOM      2  S   UNL     1       4.179  -1.654  23.848  0.00  0.00    -0.077 S 
ATOM     22  C   UNL     1       4.092  -0.037  23.290  0.00  0.00    +0.142 A 
ATOM     24  C   UNL     1       5.285   0.631  23.452  0.00  0.00    +0.036 A 
ATOM     26  C   UNL     1       6.285  -0.194  24.044  0.00  0.00    +0.010 A 
ATOM     27  C   UNL     1       5.817  -1.462  24.310  0.00  0.00    +0.047 A 
ENDBRANCH   1  22
ENDBRANCH   6   1
ENDBRANCH  16   6
ENDBRANCH  10  16
BRANCH  12  17
ATOM     17  C   UNL     1      -4.642  -1.157  24.374  0.00  0.00    +0.103 C 
BRANCH  17  21
ATOM      3  O   UNL     1      -4.126   0.991  23.387  0.00  0.00    -0.276 OA
ATOM      7  N   UNL     1      -5.678   0.867  25.112  0.00  0.00    -0.311 N 
ATOM     21  C   UNL     1      -4.763   0.341  24.212  0.00  0.00    +0.214 C 
ATOM     35  H   UNL     1      -6.160   0.247  25.756  0.00  0.00    +0.149 HD
BRANCH   7  23
ATOM     23  C   UNL     1      -5.995   2.275  25.184  0.00  0.00    +0.139 C 
BRANCH  23  25
ATOM     25  C   UNL     1      -4.762   3.132  25.128  0.00  0.00    -0.030 A 
ATOM     28  C   UNL     1      -4.042   3.395  26.292  0.00  0.00    +0.006 A 
ATOM     29  C   UNL     1      -4.338   3.663  23.909  0.00  0.00    +0.006 A 
ATOM     30  C   UNL     1      -2.898   4.190  26.239  0.00  0.00    +0.019 A 
ATOM     31  C   UNL     1      -3.194   4.458  23.856  0.00  0.00    +0.019 A 
ATOM     32  C   UNL     1      -2.473   4.721  25.021  0.00  0.00    +0.052 A 
BRANCH  32  33
ATOM      8  N   UNL     1      -0.349   6.199  24.921  0.00  0.00    -0.191 NA
ATOM     33  C   UNL     1      -1.301   5.537  24.966  0.00  0.00    +0.099 C 
ENDBRANCH  32  33
ENDBRANCH  23  25
ENDBRANCH   7  23
ENDBRANCH  17  21
ENDBRANCH  12  17
TORSDOF 10
ENDMDL
MODEL 2
REMARK VINA RESULT:      -0.7      1.635      3.301
REMARK  Name = 38029310
REMARK  13 active torsions:
REMARK  status: ('A' for Active; 'I' for Inactive)
REMARK    1  A    between atoms: S_1  and  N_6
REMARK    2  A    between atoms: S_1  and  C_22
REMARK    3  A    between atoms: N_6  and  C_16
REMARK    4  A    between atoms: N_7  and  C_23
REMARK    5  A    between atoms: C_9  and  C_13
REMARK    6  A    between atoms: C_10  and  C_16
REMARK    7  A    between atoms: C_12  and  C_17
REMARK    8  A    between atoms: C_13  and  C_18
REMARK    9  A    between atoms: C_13  and  C_19
REMARK   10  A    between atoms: C_14  and  C_20
REMARK   11  A    between atoms: C_17  and  C_21
REMARK   12  A    between atoms: C_23  and  C_25
REMARK   13  A    between atoms: C_32  and  C_33
REMARK                            x       y       z     vdW  Elec       q    Type
REMARK                         _______ _______ _______ _____ _____    ______ ____
ROOT
ATOM      9  C   UNL     1      -2.992  -0.959  24.906  0.00  0.00    +0.000 C 
ATOM     10  C   UNL     1      -1.886  -0.237  24.096  0.00  0.00    +0.030 C 
ATOM     11  C   UNL     1      -4.362  -0.751  24.245  0.00  0.00    +0.012 C 
ATOM     12  C   UNL     1      -4.735   0.740  24.133  0.00  0.00    +0.023 C 
ATOM     14  C   UNL     1      -3.588   1.566  23.587  0.00  0.00    -0.073 C 
ATOM     15  C   UNL     1      -2.324   1.108  23.566  0.00  0.00    -0.023 C 
ATOM     20  C   UNL     1      -3.935   2.916  23.022  0.00  0.00    +0.039 C 
ENDROOT
BRANCH   9  13
ATOM     13  C   UNL     1      -2.706  -2.457  25.048  0.00  0.00    -0.013 C 
ATOM     18  C   UNL     1      -3.920  -3.273  24.614  0.00  0.00    +0.007 C 
ATOM     19  C   UNL     1      -1.476  -2.843  24.234  0.00  0.00    +0.007 C 
ENDBRANCH   9  13
BRANCH  10  16
ATOM     16  C   UNL     1      -0.611  -0.067  24.930  0.00  0.00    +0.113 C 
BRANCH  16   6
ATOM      6  N   UNL     1       0.515  -0.692  24.218  0.00  0.00    -0.189 NA
ATOM     34  H   UNL     1       1.104  -1.304  24.798  0.00  0.00    +0.148 HD
BRANCH   6   1
ATOM      1  S   UNL     1       1.309   0.148  22.967  0.00  0.00    +0.065 S 
ATOM      4  O   UNL     1       1.153   1.576  23.175  0.00  0.00    -0.153 OA
ATOM      5  O   UNL     1       0.951  -0.446  21.693  0.00  0.00    -0.153 OA
BRANCH   1  22
ATOM      2  S   UNL     1       4.127   0.942  22.814  0.00  0.00    -0.077 S 
ATOM     22  C   UNL     1       3.001  -0.264  23.272  0.00  0.00    +0.142 A 
ATOM     24  C   UNL     1       3.619  -1.370  23.812  0.00  0.00    +0.036 A 
ATOM     26  C   UNL     1       5.036  -1.226  23.850  0.00  0.00    +0.010 A 
ATOM     27  C   UNL     1       5.447  -0.015  23.338  0.00  0.00    +0.047 A 
ENDBRANCH   1  22
ENDBRANCH   6   1
ENDBRANCH  16   6
ENDBRANCH  10  16
BRANCH  12  17
ATOM     17  C   UNL     1      -5.217   1.292  25.478  0.00  0.00    +0.103 C 
BRANCH  17  21
ATOM      3  O   UNL     1      -5.342   3.708  25.433  0.00  0.00    -0.276 OA
ATOM      7  N   UNL     1      -3.466   2.676  26.336  0.00  0.00    -0.311 N 
ATOM     21  C   UNL     1      -4.714   2.695  25.731  0.00  0.00    +0.214 C 
ATOM     35  H   UNL     1      -3.026   1.785  26.548  0.00  0.00    +0.149 HD
BRANCH   7  23
ATOM     23  C   UNL     1      -2.742   3.874  26.691  0.00  0.00    +0.139 C 
BRANCH  23  25
ATOM     25  C   UNL     1      -1.829   4.328  25.588  0.00  0.00    -0.030 A 
ATOM     28  C   UNL     1      -1.988   5.595  25.029  0.00  0.00    +0.006 A 
ATOM     29  C   UNL     1      -0.823   3.481  25.123  0.00  0.00    +0.006 A 
ATOM     30  C   UNL     1      -1.140   6.016  24.005  0.00  0.00    +0.019 A 
ATOM     31  C   UNL     1       0.025   3.902  24.099  0.00  0.00    +0.019 A 
ATOM     32  C   UNL     1      -0.134   5.170  23.540  0.00  0.00    +0.052 A 
BRANCH  32  33
ATOM      8  N   UNL     1       1.439   5.951  21.637  0.00  0.00    -0.191 NA
ATOM     33  C   UNL     1       0.735   5.601  22.490  0.00  0.00    +0.099 C 
ENDBRANCH  32  33
ENDBRANCH  23  25
ENDBRANCH   7  23
ENDBRANCH  17  21
ENDBRANCH  12  17
TORSDOF 10
ENDMDL
MODEL 3
REMARK VINA RESULT:      -0.1      1.883      5.139
REMARK  Name = 38029310
REMARK  13 active torsions:
REMARK  status: ('A' for Active; 'I' for Inactive)
REMARK    1  A    between atoms: S_1  and  N_6
REMARK    2  A    between atoms: S_1  and  C_22
REMARK    3  A    between atoms: N_6  and  C_16
REMARK    4  A    between atoms: N_7  and  C_23
REMARK    5  A    between atoms: C_9  and  C_13
REMARK    6  A    between atoms: C_10  and  C_16
REMARK    7  A    between atoms: C_12  and  C_17
REMARK    8  A    between atoms: C_13  and  C_18
REMARK    9  A    between atoms: C_13  and  C_19
REMARK   10  A    between atoms: C_14  and  C_20
REMARK   11  A    between atoms: C_17  and  C_21
REMARK   12  A    between atoms: C_23  and  C_25
REMARK   13  A    between atoms: C_32  and  C_33
REMARK                            x       y       z     vdW  Elec       q    Type
REMARK                         _______ _______ _______ _____ _____    ______ ____
ROOT
ATOM      9  C   UNL     1      -2.191   2.416  23.872  0.00  0.00    +0.000 C 
ATOM     10  C   UNL     1      -0.704   2.837  23.761  0.00  0.00    +0.030 C 
ATOM     11  C   UNL     1      -3.110   3.615  23.598  0.00  0.00    +0.012 C 
ATOM     12  C   UNL     1      -2.858   4.778  24.577  0.00  0.00    +0.023 C 
ATOM     14  C   UNL     1      -1.381   5.078  24.725  0.00  0.00    -0.073 C 
ATOM     15  C   UNL     1      -0.432   4.205  24.343  0.00  0.00    -0.023 C 
ATOM     20  C   UNL     1      -1.016   6.427  25.282  0.00  0.00    +0.039 C 
ENDROOT
BRANCH   9  13
ATOM     13  C   UNL     1      -2.530   1.271  22.913  0.00  0.00    -0.013 C 
ATOM     18  C   UNL     1      -2.463   1.753  21.466  0.00  0.00    +0.007 C 
ATOM     19  C   UNL     1      -1.587   0.094  23.135  0.00  0.00    +0.007 C 
ENDBRANCH   9  13
BRANCH  10  16
ATOM     16  C   UNL     1       0.215   1.807  24.427  0.00  0.00    +0.113 C 
BRANCH  16   6
ATOM      6  N   UNL     1       1.332   1.502  23.518  0.00  0.00    -0.189 NA
ATOM     34  H   UNL     1       1.555   2.247  22.846  0.00  0.00    +0.148 HD
BRANCH   6   1
ATOM      1  S   UNL     1       1.587  -0.095  22.981  0.00  0.00    +0.065 S 
ATOM      4  O   UNL     1       1.387  -0.154  21.545  0.00  0.00    -0.153 OA
ATOM      5  O   UNL     1       0.876  -1.009  23.854  0.00  0.00    -0.153 OA
BRANCH   1  22
ATOM      2  S   UNL     1       4.301   1.001  22.818  0.00  0.00    -0.077 S 
ATOM     22  C   UNL     1       3.312  -0.312  23.300  0.00  0.00    +0.142 A 
ATOM     24  C   UNL     1       4.045  -1.331  23.865  0.00  0.00    +0.036 A 
ATOM     26  C   UNL     1       5.438  -1.031  23.903  0.00  0.00    +0.010 A 
ATOM     27  C   UNL     1       5.715   0.206  23.366  0.00  0.00    +0.047 A 
ENDBRANCH   1  22
ENDBRANCH   6   1
ENDBRANCH  16   6
ENDBRANCH  10  16
BRANCH  12  17
ATOM     17  C   UNL     1      -3.502   4.502  25.940  0.00  0.00    +0.103 C 
BRANCH  17  21
ATOM      3  O   UNL     1      -5.844   3.970  25.649  0.00  0.00    -0.276 OA
ATOM      7  N   UNL     1      -4.310   2.252  25.962  0.00  0.00    -0.311 N 
ATOM     21  C   UNL     1      -4.694   3.578  25.830  0.00  0.00    +0.214 C 
ATOM     35  H   UNL     1      -3.330   2.026  26.106  0.00  0.00    +0.149 HD
BRANCH   7  23
ATOM     23  C   UNL     1      -5.243   1.151  25.900  0.00  0.00    +0.139 C 
BRANCH  23  25
ATOM     25  C   UNL     1      -4.610  -0.091  25.339  0.00  0.00    -0.030 A 
ATOM     28  C   UNL     1      -5.032  -0.593  24.108  0.00  0.00    +0.006 A 
ATOM     29  C   UNL     1      -3.601  -0.742  26.050  0.00  0.00    +0.006 A 
ATOM     30  C   UNL     1      -4.444  -1.745  23.587  0.00  0.00    +0.019 A 
ATOM     31  C   UNL     1      -3.013  -1.894  25.529  0.00  0.00    +0.019 A 
ATOM     32  C   UNL     1      -3.434  -2.396  24.297  0.00  0.00    +0.052 A 
BRANCH  32  33
ATOM      8  N   UNL     1      -2.343  -4.536  23.331  0.00  0.00    -0.191 NA
ATOM     33  C   UNL     1      -2.832  -3.577  23.764  0.00  0.00    +0.099 C 
ENDBRANCH  32  33
ENDBRANCH  23  25
ENDBRANCH   7  23
ENDBRANCH  17  21
ENDBRANCH  12  17
TORSDOF 10
ENDMDL
MODEL 4
REMARK VINA RESULT:       0.9      2.894      7.693
REMARK  Name = 38029310
REMARK  13 active torsions:
REMARK  status: ('A' for Active; 'I' for Inactive)
REMARK    1  A    between atoms: S_1  and  N_6
REMARK    2  A    between atoms: S_1  and  C_22
REMARK    3  A    between atoms: N_6  and  C_16
REMARK    4  A    between atoms: N_7  and  C_23
REMARK    5  A    between atoms: C_9  and  C_13
REMARK    6  A    between atoms: C_10  and  C_16
REMARK    7  A    between atoms: C_12  and  C_17
REMARK    8  A    between atoms: C_13  and  C_18
REMARK    9  A    between atoms: C_13  and  C_19
REMARK   10  A    between atoms: C_14  and  C_20
REMARK   11  A    between atoms: C_17  and  C_21
REMARK   12  A    between atoms: C_23  and  C_25
REMARK   13  A    between atoms: C_32  and  C_33
REMARK                            x       y       z     vdW  Elec       q    Type
REMARK                         _______ _______ _______ _____ _____    ______ ____
ROOT
ATOM      9  C   UNL     1      -2.283   3.722  25.191  0.00  0.00    +0.000 C 
ATOM     10  C   UNL     1      -3.442   3.834  24.169  0.00  0.00    +0.030 C 
ATOM     11  C   UNL     1      -0.979   3.329  24.483  0.00  0.00    +0.012 C 
ATOM     12  C   UNL     1      -1.103   1.986  23.737  0.00  0.00    +0.023 C 
ATOM     14  C   UNL     1      -2.370   1.918  22.910  0.00  0.00    -0.073 C 
ATOM     15  C   UNL     1      -3.399   2.760  23.107  0.00  0.00    -0.023 C 
ATOM     20  C   UNL     1      -2.409   0.886  21.816  0.00  0.00    +0.039 C 
ENDROOT
BRANCH   9  13
ATOM     13  C   UNL     1      -2.080   5.029  25.965  0.00  0.00    -0.013 C 
ATOM     18  C   UNL     1      -1.760   6.171  25.005  0.00  0.00    +0.007 C 
ATOM     19  C   UNL     1      -3.317   5.352  26.796  0.00  0.00    +0.007 C 
ENDBRANCH   9  13
BRANCH  10  16
ATOM     16  C   UNL     1      -4.805   3.805  24.870  0.00  0.00    +0.113 C 
BRANCH  16   6
ATOM      6  N   UNL     1      -4.817   2.709  25.851  0.00  0.00    -0.189 NA
ATOM     34  H   UNL     1      -3.901   2.489  26.262  0.00  0.00    +0.148 HD
BRANCH   6   1
ATOM      1  S   UNL     1      -5.887   1.397  25.657  0.00  0.00    +0.065 S 
ATOM      4  O   UNL     1      -6.620   1.558  24.415  0.00  0.00    -0.153 OA
ATOM      5  O   UNL     1      -6.600   1.177  26.900  0.00  0.00    -0.153 OA
BRANCH   1  22
ATOM      2  S   UNL     1      -4.791  -0.683  23.906  0.00  0.00    -0.077 S 
ATOM     22  C   UNL     1      -4.766   0.045  25.456  0.00  0.00    +0.142 A 
ATOM     24  C   UNL     1      -3.859  -0.560  26.297  0.00  0.00    +0.036 A 
ATOM     26  C   UNL     1      -3.174  -1.637  25.661  0.00  0.00    +0.010 A 
ATOM     27  C   UNL     1      -3.585  -1.812  24.358  0.00  0.00    +0.047 A 
ENDBRANCH   1  22
ENDBRANCH   6   1
ENDBRANCH  16   6
ENDBRANCH  10  16
BRANCH  12  17
ATOM     17  C   UNL     1      -1.018   0.805  24.710  0.00  0.00    +0.103 C 
BRANCH  17  21
ATOM      3  O   UNL     1      -0.013  -1.396  24.730  0.00  0.00    -0.276 OA
ATOM      7  N   UNL     1       0.513   0.086  23.019  0.00  0.00    -0.311 N 
ATOM     21  C   UNL     1      -0.133  -0.303  24.183  0.00  0.00    +0.214 C 
ATOM     35  H   UNL     1       0.346   1.014  22.640  0.00  0.00    +0.149 HD
BRANCH   7  23
ATOM     23  C   UNL     1       1.423  -0.772  22.297  0.00  0.00    +0.139 C 
BRANCH  23  25
ATOM     25  C   UNL     1       2.854  -0.524  22.682  0.00  0.00    -0.030 A 
ATOM     28  C   UNL     1       3.484   0.659  22.298  0.00  0.00    +0.006 A 
ATOM     29  C   UNL     1       3.552  -1.478  23.423  0.00  0.00    +0.006 A 
ATOM     30  C   UNL     1       4.812   0.889  22.656  0.00  0.00    +0.019 A 
ATOM     31  C   UNL     1       4.880  -1.248  23.782  0.00  0.00    +0.019 A 
ATOM     32  C   UNL     1       5.510  -0.064  23.398  0.00  0.00    +0.052 A 
BRANCH  32  33
ATOM      8  N   UNL     1       7.976   0.362  24.063  0.00  0.00    -0.191 NA
ATOM     33  C   UNL     1       6.871   0.171  23.765  0.00  0.00    +0.099 C 
ENDBRANCH  32  33
ENDBRANCH  23  25
ENDBRANCH   7  23
ENDBRANCH  17  21
ENDBRANCH  12  17
TORSDOF 10
ENDMDL
MODEL 5
REMARK VINA RESULT:       1.0      2.790      7.052
REMARK  Name = 38029310
REMARK  13 active torsions:
REMARK  status: ('A' for Active; 'I' for Inactive)
REMARK    1  A    between atoms: S_1  and  N_6
REMARK    2  A    between atoms: S_1  and  C_22
REMARK    3  A    between atoms: N_6  and  C_16
REMARK    4  A    between atoms: N_7  and  C_23
REMARK    5  A    between atoms: C_9  and  C_13
REMARK    6  A    between atoms: C_10  and  C_16
REMARK    7  A    between atoms: C_12  and  C_17
REMARK    8  A    between atoms: C_13  and  C_18
REMARK    9  A    between atoms: C_13  and  C_19
REMARK   10  A    between atoms: C_14  and  C_20
REMARK   11  A    between atoms: C_17  and  C_21
REMARK   12  A    between atoms: C_23  and  C_25
REMARK   13  A    between atoms: C_32  and  C_33
REMARK                            x       y       z     vdW  Elec       q    Type
REMARK                         _______ _______ _______ _____ _____    ______ ____
ROOT
ATOM      9  C   UNL     1      -3.293   1.038  23.718  0.00  0.00    +0.000 C 
ATOM     10  C   UNL     1      -4.601   0.616  24.432  0.00  0.00    +0.030 C 
ATOM     11  C   UNL     1      -2.508  -0.199  23.261  0.00  0.00    +0.012 C 
ATOM     12  C   UNL     1      -2.144  -1.127  24.437  0.00  0.00    +0.023 C 
ATOM     14  C   UNL     1      -3.331  -1.375  25.344  0.00  0.00    -0.073 C 
ATOM     15  C   UNL     1      -4.426  -0.595  25.319  0.00  0.00    -0.023 C 
ATOM     20  C   UNL     1      -3.251  -2.572  26.251  0.00  0.00    +0.039 C 
ENDROOT
BRANCH   9  13
ATOM     13  C   UNL     1      -3.569   1.950  22.519  0.00  0.00    -0.013 C 
ATOM     18  C   UNL     1      -3.936   3.354  22.992  0.00  0.00    +0.007 C 
ATOM     19  C   UNL     1      -2.358   1.992  21.593  0.00  0.00    +0.007 C 
ENDBRANCH   9  13
BRANCH  10  16
ATOM     16  C   UNL     1      -5.182   1.772  25.255  0.00  0.00    +0.113 C 
BRANCH  16   6
ATOM      6  N   UNL     1      -4.134   2.306  26.138  0.00  0.00    -0.189 NA
ATOM     34  H   UNL     1      -3.859   1.681  26.907  0.00  0.00    +0.148 HD
BRANCH   6   1
ATOM      1  S   UNL     1      -4.061   3.976  26.467  0.00  0.00    +0.065 S 
ATOM      4  O   UNL     1      -3.936   4.178  27.898  0.00  0.00    -0.153 OA
ATOM      5  O   UNL     1      -5.107   4.653  25.724  0.00  0.00    -0.153 OA
BRANCH   1  22
ATOM      2  S   UNL     1      -1.323   3.202  25.758  0.00  0.00    -0.077 S 
ATOM     22  C   UNL     1      -2.523   4.424  25.718  0.00  0.00    +0.142 A 
ATOM     24  C   UNL     1      -2.076   5.569  25.096  0.00  0.00    +0.036 A 
ATOM     26  C   UNL     1      -0.729   5.442  24.647  0.00  0.00    +0.010 A 
ATOM     27  C   UNL     1      -0.200   4.205  24.942  0.00  0.00    +0.047 A 
ENDBRANCH   1  22
ENDBRANCH   6   1
ENDBRANCH  16   6
ENDBRANCH  10  16
BRANCH  12  17
ATOM     17  C   UNL     1      -0.954  -0.573  25.229  0.00  0.00    +0.103 C 
BRANCH  17  21
ATOM      3  O   UNL     1       0.500   1.263  24.622  0.00  0.00    -0.276 OA
ATOM      7  N   UNL     1       0.301  -0.559  23.194  0.00  0.00    -0.311 N 
ATOM     21  C   UNL     1       0.024   0.165  24.344  0.00  0.00    +0.214 C 
ATOM     35  H   UNL     1      -0.140  -1.463  23.053  0.00  0.00    +0.149 HD
BRANCH   7  23
ATOM     23  C   UNL     1       1.203  -0.094  22.166  0.00  0.00    +0.139 C 
BRANCH  23  25
ATOM     25  C   UNL     1       2.636  -0.126  22.618  0.00  0.00    -0.030 A 
ATOM     28  C   UNL     1       3.145  -1.266  23.240  0.00  0.00    +0.006 A 
ATOM     29  C   UNL     1       3.455   0.984  22.416  0.00  0.00    +0.006 A 
ATOM     30  C   UNL     1       4.474  -1.295  23.659  0.00  0.00    +0.019 A 
ATOM     31  C   UNL     1       4.785   0.955  22.835  0.00  0.00    +0.019 A 
ATOM     32  C   UNL     1       5.295  -0.185  23.456  0.00  0.00    +0.052 A 
BRANCH  32  33
ATOM      8  N   UNL     1       7.764  -0.238  24.235  0.00  0.00    -0.191 NA
ATOM     33  C   UNL     1       6.657  -0.214  23.886  0.00  0.00    +0.099 C 
ENDBRANCH  32  33
ENDBRANCH  23  25
ENDBRANCH   7  23
ENDBRANCH  17  21
ENDBRANCH  12  17
TORSDOF 10
ENDMDL
MODEL 6
REMARK VINA RESULT:       1.2      2.655      5.709
REMARK  Name = 38029310
REMARK  13 active torsions:
REMARK  status: ('A' for Active; 'I' for Inactive)
REMARK    1  A    between atoms: S_1  and  N_6
REMARK    2  A    between atoms: S_1  and  C_22
REMARK    3  A    between atoms: N_6  and  C_16
REMARK    4  A    between atoms: N_7  and  C_23
REMARK    5  A    between atoms: C_9  and  C_13
REMARK    6  A    between atoms: C_10  and  C_16
REMARK    7  A    between atoms: C_12  and  C_17
REMARK    8  A    between atoms: C_13  and  C_18
REMARK    9  A    between atoms: C_13  and  C_19
REMARK   10  A    between atoms: C_14  and  C_20
REMARK   11  A    between atoms: C_17  and  C_21
REMARK   12  A    between atoms: C_23  and  C_25
REMARK   13  A    between atoms: C_32  and  C_33
REMARK                            x       y       z     vdW  Elec       q    Type
REMARK                         _______ _______ _______ _____ _____    ______ ____
ROOT
ATOM      9  C   UNL     1      -2.798   2.292  24.209  0.00  0.00    +0.000 C 
ATOM     10  C   UNL     1      -3.224   3.633  24.855  0.00  0.00    +0.030 C 
ATOM     11  C   UNL     1      -4.030   1.523  23.709  0.00  0.00    +0.012 C 
ATOM     12  C   UNL     1      -5.030   1.222  24.843  0.00  0.00    +0.023 C 
ATOM     14  C   UNL     1      -5.295   2.446  25.696  0.00  0.00    -0.073 C 
ATOM     15  C   UNL     1      -4.486   3.519  25.679  0.00  0.00    -0.023 C 
ATOM     20  C   UNL     1      -6.542   2.426  26.538  0.00  0.00    +0.039 C 
ENDROOT
BRANCH   9  13
ATOM     13  C   UNL     1      -1.815   2.504  23.054  0.00  0.00    -0.013 C 
ATOM     18  C   UNL     1      -2.516   2.299  21.714  0.00  0.00    +0.007 C 
ATOM     19  C   UNL     1      -1.196   3.895  23.132  0.00  0.00    +0.007 C 
ENDBRANCH   9  13
BRANCH  10  16
ATOM     16  C   UNL     1      -2.099   4.212  25.722  0.00  0.00    +0.113 C 
BRANCH  16   6
ATOM      6  N   UNL     1      -1.641   3.181  26.666  0.00  0.00    -0.189 NA
ATOM     34  H   UNL     1      -1.874   3.366  27.650  0.00  0.00    +0.148 HD
BRANCH   6   1
ATOM      1  S   UNL     1      -0.182   2.348  26.382  0.00  0.00    +0.065 S 
ATOM      4  O   UNL     1       0.608   3.083  25.412  0.00  0.00    -0.153 OA
ATOM      5  O   UNL     1      -0.470   0.943  26.173  0.00  0.00    -0.153 OA
BRANCH   1  22
ATOM      2  S   UNL     1       2.289   2.864  27.873  0.00  0.00    -0.077 S 
ATOM     22  C   UNL     1       0.621   2.483  27.952  0.00  0.00    +0.142 A 
ATOM     24  C   UNL     1       0.182   2.345  29.250  0.00  0.00    +0.036 A 
ATOM     26  C   UNL     1       1.229   2.554  30.194  0.00  0.00    +0.010 A 
ATOM     27  C   UNL     1       2.427   2.845  29.580  0.00  0.00    +0.047 A 
ENDBRANCH   1  22
ENDBRANCH   6   1
ENDBRANCH  16   6
ENDBRANCH  10  16
BRANCH  12  17
ATOM     17  C   UNL     1      -4.553   0.047  25.702  0.00  0.00    +0.103 C 
BRANCH  17  21
ATOM      3  O   UNL     1      -4.384  -1.616  23.953  0.00  0.00    -0.276 OA
ATOM      7  N   UNL     1      -2.548  -1.198  25.316  0.00  0.00    -0.311 N 
ATOM     21  C   UNL     1      -3.852  -1.011  24.880  0.00  0.00    +0.214 C 
ATOM     35  H   UNL     1      -2.196  -0.646  26.092  0.00  0.00    +0.149 HD
BRANCH   7  23
ATOM     23  C   UNL     1      -1.644  -2.151  24.715  0.00  0.00    +0.139 C 
BRANCH  23  25
ATOM     25  C   UNL     1      -0.409  -1.488  24.173  0.00  0.00    -0.030 A 
ATOM     28  C   UNL     1       0.848  -1.870  24.639  0.00  0.00    +0.006 A 
ATOM     29  C   UNL     1      -0.521  -0.491  23.204  0.00  0.00    +0.006 A 
ATOM     30  C   UNL     1       1.994  -1.255  24.136  0.00  0.00    +0.019 A 
ATOM     31  C   UNL     1       0.625   0.124  22.701  0.00  0.00    +0.019 A 
ATOM     32  C   UNL     1       1.883  -0.258  23.166  0.00  0.00    +0.052 A 
BRANCH  32  33
ATOM      8  N   UNL     1       4.011   0.884  22.233  0.00  0.00    -0.191 NA
ATOM     33  C   UNL     1       3.057   0.372  22.651  0.00  0.00    +0.099 C 
ENDBRANCH  32  33
ENDBRANCH  23  25
ENDBRANCH   7  23
ENDBRANCH  17  21
ENDBRANCH  12  17
TORSDOF 10
ENDMDL
MODEL 7
REMARK VINA RESULT:       2.2      2.577      6.870
REMARK  Name = 38029310
REMARK  13 active torsions:
REMARK  status: ('A' for Active; 'I' for Inactive)
REMARK    1  A    between atoms: S_1  and  N_6
REMARK    2  A    between atoms: S_1  and  C_22
REMARK    3  A    between atoms: N_6  and  C_16
REMARK    4  A    between atoms: N_7  and  C_23
REMARK    5  A    between atoms: C_9  and  C_13
REMARK    6  A    between atoms: C_10  and  C_16
REMARK    7  A    between atoms: C_12  and  C_17
REMARK    8  A    between atoms: C_13  and  C_18
REMARK    9  A    between atoms: C_13  and  C_19
REMARK   10  A    between atoms: C_14  and  C_20
REMARK   11  A    between atoms: C_17  and  C_21
REMARK   12  A    between atoms: C_23  and  C_25
REMARK   13  A    between atoms: C_32  and  C_33
REMARK                            x       y       z     vdW  Elec       q    Type
REMARK                         _______ _______ _______ _____ _____    ______ ____
ROOT
ATOM      9  C   UNL     1      -3.648   2.963  25.269  0.00  0.00    +0.000 C 
ATOM     10  C   UNL     1      -4.321   1.787  24.518  0.00  0.00    +0.030 C 
ATOM     11  C   UNL     1      -3.226   4.059  24.280  0.00  0.00    +0.012 C 
ATOM     12  C   UNL     1      -2.244   3.536  23.214  0.00  0.00    +0.023 C 
ATOM     14  C   UNL     1      -2.712   2.226  22.614  0.00  0.00    -0.073 C 
ATOM     15  C   UNL     1      -3.650   1.464  23.203  0.00  0.00    -0.023 C 
ATOM     20  C   UNL     1      -2.108   1.832  21.294  0.00  0.00    +0.039 C 
ENDROOT
BRANCH   9  13
ATOM     13  C   UNL     1      -4.571   3.556  26.338  0.00  0.00    -0.013 C 
ATOM     18  C   UNL     1      -3.788   4.490  27.257  0.00  0.00    +0.007 C 
ATOM     19  C   UNL     1      -5.737   4.291  25.686  0.00  0.00    +0.007 C 
ENDBRANCH   9  13
BRANCH  10  16
ATOM     16  C   UNL     1      -4.367   0.527  25.390  0.00  0.00    +0.113 C 
BRANCH  16   6
ATOM      6  N   UNL     1      -5.023  -0.554  24.638  0.00  0.00    -0.189 NA
ATOM     34  H   UNL     1      -5.953  -0.819  24.989  0.00  0.00    +0.148 HD
BRANCH   6   1
ATOM      1  S   UNL     1      -4.094  -1.806  23.953  0.00  0.00    +0.065 S 
ATOM      4  O   UNL     1      -3.797  -1.481  22.570  0.00  0.00    -0.153 OA
ATOM      5  O   UNL     1      -4.696  -3.083  24.287  0.00  0.00    -0.153 OA
BRANCH   1  22
ATOM      2  S   UNL     1      -1.269  -2.546  24.206  0.00  0.00    -0.077 S 
ATOM     22  C   UNL     1      -2.591  -1.687  24.875  0.00  0.00    +0.142 A 
ATOM     24  C   UNL     1      -2.248  -1.035  26.039  0.00  0.00    +0.036 A 
ATOM     26  C   UNL     1      -0.882  -1.245  26.388  0.00  0.00    +0.010 A 
ATOM     27  C   UNL     1      -0.234  -2.048  25.476  0.00  0.00    +0.047 A 
ENDBRANCH   1  22
ENDBRANCH   6   1
ENDBRANCH  16   6
ENDBRANCH  10  16
BRANCH  12  17
ATOM     17  C   UNL     1      -0.828   3.403  23.786  0.00  0.00    +0.103 C 
BRANCH  17  21
ATOM      3  O   UNL     1      -0.776   1.374  25.103  0.00  0.00    -0.276 OA
ATOM      7  N   UNL     1       0.263   1.416  23.025  0.00  0.00    -0.311 N 
ATOM     21  C   UNL     1      -0.463   1.963  24.072  0.00  0.00    +0.214 C 
ATOM     35  H   UNL     1       0.470   1.984  22.208  0.00  0.00    +0.149 HD
BRANCH   7  23
ATOM     23  C   UNL     1       0.747   0.055  23.026  0.00  0.00    +0.139 C 
BRANCH  23  25
ATOM     25  C   UNL     1       2.246  -0.008  23.105  0.00  0.00    -0.030 A 
ATOM     28  C   UNL     1       3.010   1.102  22.747  0.00  0.00    +0.006 A 
ATOM     29  C   UNL     1       2.873  -1.178  23.534  0.00  0.00    +0.006 A 
ATOM     30  C   UNL     1       4.402   1.043  22.821  0.00  0.00    +0.019 A 
ATOM     31  C   UNL     1       4.264  -1.237  23.608  0.00  0.00    +0.019 A 
ATOM     32  C   UNL     1       5.029  -0.127  23.251  0.00  0.00    +0.052 A 
BRANCH  32  33
ATOM      8  N   UNL     1       7.613  -0.237  23.385  0.00  0.00    -0.191 NA
ATOM     33  C   UNL     1       6.455  -0.188  23.326  0.00  0.00    +0.099 C 
ENDBRANCH  32  33
ENDBRANCH  23  25
ENDBRANCH   7  23
ENDBRANCH  17  21
ENDBRANCH  12  17
TORSDOF 10
ENDMDL
MODEL 8
REMARK VINA RESULT:       2.3      2.029      3.795
REMARK  Name = 38029310
REMARK  13 active torsions:
REMARK  status: ('A' for Active; 'I' for Inactive)
REMARK    1  A    between atoms: S_1  and  N_6
REMARK    2  A    between atoms: S_1  and  C_22
REMARK    3  A    between atoms: N_6  and  C_16
REMARK    4  A    between atoms: N_7  and  C_23
REMARK    5  A    between atoms: C_9  and  C_13
REMARK    6  A    between atoms: C_10  and  C_16
REMARK    7  A    between atoms: C_12  and  C_17
REMARK    8  A    between atoms: C_13  and  C_18
REMARK    9  A    between atoms: C_13  and  C_19
REMARK   10  A    between atoms: C_14  and  C_20
REMARK   11  A    between atoms: C_17  and  C_21
REMARK   12  A    between atoms: C_23  and  C_25
REMARK   13  A    between atoms: C_32  and  C_33
REMARK                            x       y       z     vdW  Elec       q    Type
REMARK                         _______ _______ _______ _____ _____    ______ ____
ROOT
ATOM      9  C   UNL     1      -2.959  -0.997  24.740  0.00  0.00    +0.000 C 
ATOM     10  C   UNL     1      -1.797  -0.231  24.060  0.00  0.00    +0.030 C 
ATOM     11  C   UNL     1      -4.254  -0.834  23.932  0.00  0.00    +0.012 C 
ATOM     12  C   UNL     1      -4.666   0.643  23.781  0.00  0.00    +0.023 C 
ATOM     14  C   UNL     1      -3.497   1.513  23.368  0.00  0.00    -0.073 C 
ATOM     15  C   UNL     1      -2.222   1.101  23.487  0.00  0.00    -0.023 C 
ATOM     20  C   UNL     1      -3.828   2.853  22.771  0.00  0.00    +0.039 C 
ENDROOT
BRANCH   9  13
ATOM     13  C   UNL     1      -2.636  -2.485  24.910  0.00  0.00    -0.013 C 
ATOM     18  C   UNL     1      -3.859  -3.335  24.578  0.00  0.00    +0.007 C 
ATOM     19  C   UNL     1      -1.452  -2.875  24.032  0.00  0.00    +0.007 C 
ENDBRANCH   9  13
BRANCH  10  16
ATOM     16  C   UNL     1      -0.629  -0.020  25.030  0.00  0.00    +0.113 C 
BRANCH  16   6
ATOM      6  N   UNL     1       0.597  -0.572  24.433  0.00  0.00    -0.189 NA
ATOM     34  H   UNL     1       1.232  -1.029  25.099  0.00  0.00    +0.148 HD
BRANCH   6   1
ATOM      1  S   UNL     1       1.333   0.211  23.110  0.00  0.00    +0.065 S 
ATOM      4  O   UNL     1       1.224   1.648  23.284  0.00  0.00    -0.153 OA
ATOM      5  O   UNL     1       0.883  -0.410  21.880  0.00  0.00    -0.153 OA
BRANCH   1  22
ATOM      2  S   UNL     1       4.154   0.956  22.823  0.00  0.00    -0.077 S 
ATOM     22  C   UNL     1       3.030  -0.235  23.325  0.00  0.00    +0.142 A 
ATOM     24  C   UNL     1       3.653  -1.359  23.821  0.00  0.00    +0.036 A 
ATOM     26  C   UNL     1       5.073  -1.241  23.788  0.00  0.00    +0.010 A 
ATOM     27  C   UNL     1       5.480  -0.032  23.269  0.00  0.00    +0.047 A 
ENDBRANCH   1  22
ENDBRANCH   6   1
ENDBRANCH  16   6
ENDBRANCH  10  16
BRANCH  12  17
ATOM     17  C   UNL     1      -5.315   1.169  25.066  0.00  0.00    +0.103 C 
BRANCH  17  21
ATOM      3  O   UNL     1      -5.558   3.551  25.413  0.00  0.00    -0.276 OA
ATOM      7  N   UNL     1      -3.485   2.553  25.741  0.00  0.00    -0.311 N 
ATOM     21  C   UNL     1      -4.834   2.559  25.419  0.00  0.00    +0.214 C 
ATOM     35  H   UNL     1      -2.969   1.678  25.721  0.00  0.00    +0.149 HD
BRANCH   7  23
ATOM     23  C   UNL     1      -2.758   3.743  26.117  0.00  0.00    +0.139 C 
BRANCH  23  25
ATOM     25  C   UNL     1      -1.415   3.419  26.706  0.00  0.00    -0.030 A 
ATOM     28  C   UNL     1      -0.299   3.307  25.877  0.00  0.00    +0.006 A 
ATOM     29  C   UNL     1      -1.285   3.230  28.082  0.00  0.00    +0.006 A 
ATOM     30  C   UNL     1       0.948   3.006  26.425  0.00  0.00    +0.019 A 
ATOM     31  C   UNL     1      -0.038   2.929  28.630  0.00  0.00    +0.019 A 
ATOM     32  C   UNL     1       1.079   2.818  27.801  0.00  0.00    +0.052 A 
BRANCH  32  33
ATOM      8  N   UNL     1       3.393   2.258  28.818  0.00  0.00    -0.191 NA
ATOM     33  C   UNL     1       2.356   2.509  28.362  0.00  0.00    +0.099 C 
ENDBRANCH  32  33
ENDBRANCH  23  25
ENDBRANCH   7  23
ENDBRANCH  17  21
ENDBRANCH  12  17
TORSDOF 10
ENDMDL
MODEL 9
REMARK VINA RESULT:       2.5      2.644      6.551
REMARK  Name = 38029310
REMARK  13 active torsions:
REMARK  status: ('A' for Active; 'I' for Inactive)
REMARK    1  A    between atoms: S_1  and  N_6
REMARK    2  A    between atoms: S_1  and  C_22
REMARK    3  A    between atoms: N_6  and  C_16
REMARK    4  A    between atoms: N_7  and  C_23
REMARK    5  A    between atoms: C_9  and  C_13
REMARK    6  A    between atoms: C_10  and  C_16
REMARK    7  A    between atoms: C_12  and  C_17
REMARK    8  A    between atoms: C_13  and  C_18
REMARK    9  A    between atoms: C_13  and  C_19
REMARK   10  A    between atoms: C_14  and  C_20
REMARK   11  A    between atoms: C_17  and  C_21
REMARK   12  A    between atoms: C_23  and  C_25
REMARK   13  A    between atoms: C_32  and  C_33
REMARK                            x       y       z     vdW  Elec       q    Type
REMARK                         _______ _______ _______ _____ _____    ______ ____
ROOT
ATOM      9  C   UNL     1      -3.061   0.204  23.824  0.00  0.00    +0.000 C 
ATOM     10  C   UNL     1      -3.602   0.269  25.274  0.00  0.00    +0.030 C 
ATOM     11  C   UNL     1      -3.436  -1.135  23.172  0.00  0.00    +0.012 C 
ATOM     12  C   UNL     1      -2.879  -2.341  23.954  0.00  0.00    +0.023 C 
ATOM     14  C   UNL     1      -3.142  -2.215  25.441  0.00  0.00    -0.073 C 
ATOM     15  C   UNL     1      -3.477  -1.044  26.012  0.00  0.00    -0.023 C 
ATOM     20  C   UNL     1      -3.055  -3.478  26.253  0.00  0.00    +0.039 C 
ENDROOT
BRANCH   9  13
ATOM     13  C   UNL     1      -3.586   1.362  22.970  0.00  0.00    -0.013 C 
ATOM     18  C   UNL     1      -4.512   2.253  23.793  0.00  0.00    +0.007 C 
ATOM     19  C   UNL     1      -2.425   2.169  22.400  0.00  0.00    +0.007 C 
ENDBRANCH   9  13
BRANCH  10  16
ATOM     16  C   UNL     1      -2.904   1.373  26.077  0.00  0.00    +0.113 C 
BRANCH  16   6
ATOM      6  N   UNL     1      -1.452   1.138  26.056  0.00  0.00    -0.189 NA
ATOM     34  H   UNL     1      -1.159   0.221  26.417  0.00  0.00    +0.148 HD
BRANCH   6   1
ATOM      1  S   UNL     1      -0.372   2.429  26.321  0.00  0.00    +0.065 S 
ATOM      4  O   UNL     1       0.745   2.315  25.401  0.00  0.00    -0.153 OA
ATOM      5  O   UNL     1      -0.132   2.563  27.745  0.00  0.00    -0.153 OA
BRANCH   1  22
ATOM      2  S   UNL     1      -0.606   4.832  24.658  0.00  0.00    -0.077 S 
ATOM     22  C   UNL     1      -1.344   3.820  25.826  0.00  0.00    +0.142 A 
ATOM     24  C   UNL     1      -2.593   4.273  26.187  0.00  0.00    +0.036 A 
ATOM     26  C   UNL     1      -2.951   5.467  25.495  0.00  0.00    +0.010 A 
ATOM     27  C   UNL     1      -1.960   5.880  24.632  0.00  0.00    +0.047 A 
ENDBRANCH   1  22
ENDBRANCH   6   1
ENDBRANCH  16   6
ENDBRANCH  10  16
BRANCH  12  17
ATOM     17  C   UNL     1      -1.385  -2.538  23.675  0.00  0.00    +0.103 C 
BRANCH  17  21
ATOM      3  O   UNL     1      -0.273  -1.104  25.275  0.00  0.00    -0.276 OA
ATOM      7  N   UNL     1      -0.193  -0.574  23.014  0.00  0.00    -0.311 N 
ATOM     21  C   UNL     1      -0.563  -1.344  24.107  0.00  0.00    +0.214 C 
ATOM     35  H   UNL     1      -0.479  -0.857  22.082  0.00  0.00    +0.149 HD
BRANCH   7  23
ATOM     23  C   UNL     1       0.597   0.630  23.129  0.00  0.00    +0.139 C 
BRANCH  23  25
ATOM     25  C   UNL     1       2.070   0.338  23.132  0.00  0.00    -0.030 A 
ATOM     28  C   UNL     1       2.529  -0.931  23.482  0.00  0.00    +0.006 A 
ATOM     29  C   UNL     1       2.979   1.338  22.784  0.00  0.00    +0.006 A 
ATOM     30  C   UNL     1       3.897  -1.201  23.484  0.00  0.00    +0.019 A 
ATOM     31  C   UNL     1       4.347   1.068  22.785  0.00  0.00    +0.019 A 
ATOM     32  C   UNL     1       4.806  -0.202  23.135  0.00  0.00    +0.052 A 
BRANCH  32  33
ATOM      8  N   UNL     1       7.347  -0.703  23.140  0.00  0.00    -0.191 NA
ATOM     33  C   UNL     1       6.208  -0.479  23.138  0.00  0.00    +0.099 C 
ENDBRANCH  32  33
ENDBRANCH  23  25
ENDBRANCH   7  23
ENDBRANCH  17  21
ENDBRANCH  12  17
TORSDOF 10
ENDMDL
MODEL 10
REMARK VINA RESULT:       2.7      2.060      5.447
REMARK  Name = 38029310
REMARK  13 active torsions:
REMARK  status: ('A' for Active; 'I' for Inactive)
REMARK    1  A    between atoms: S_1  and  N_6
REMARK    2  A    between atoms: S_1  and  C_22
REMARK    3  A    between atoms: N_6  and  C_16
REMARK    4  A    between atoms: N_7  and  C_23
REMARK    5  A    between atoms: C_9  and  C_13
REMARK    6  A    between atoms: C_10  and  C_16
REMARK    7  A    between atoms: C_12  and  C_17
REMARK    8  A    between atoms: C_13  and  C_18
REMARK    9  A    between atoms: C_13  and  C_19
REMARK   10  A    between atoms: C_14  and  C_20
REMARK   11  A    between atoms: C_17  and  C_21
REMARK   12  A    between atoms: C_23  and  C_25
REMARK   13  A    between atoms: C_32  and  C_33
REMARK                            x       y       z     vdW  Elec       q    Type
REMARK                         _______ _______ _______ _____ _____    ______ ____
ROOT
ATOM      9  C   UNL     1      -2.763   2.569  24.191  0.00  0.00    +0.000 C 
ATOM     10  C   UNL     1      -1.682   2.599  23.083  0.00  0.00    +0.030 C 
ATOM     11  C   UNL     1      -2.930   3.962  24.815  0.00  0.00    +0.012 C 
ATOM     12  C   UNL     1      -1.617   4.488  25.428  0.00  0.00    +0.023 C 
ATOM     14  C   UNL     1      -0.445   4.303  24.487  0.00  0.00    -0.073 C 
ATOM     15  C   UNL     1      -0.496   3.465  23.436  0.00  0.00    -0.023 C 
ATOM     20  C   UNL     1       0.776   5.140  24.754  0.00  0.00    +0.039 C 
ENDROOT
BRANCH   9  13
ATOM     13  C   UNL     1      -4.111   2.074  23.658  0.00  0.00    -0.013 C 
ATOM     18  C   UNL     1      -5.184   2.188  24.736  0.00  0.00    +0.007 C 
ATOM     19  C   UNL     1      -4.510   2.860  22.413  0.00  0.00    +0.007 C 
ENDBRANCH   9  13
BRANCH  10  16
ATOM     16  C   UNL     1      -1.198   1.184  22.743  0.00  0.00    +0.113 C 
BRANCH  16   6
ATOM      6  N   UNL     1       0.270   1.145  22.830  0.00  0.00    -0.189 NA
ATOM     34  H   UNL     1       0.740   2.021  22.567  0.00  0.00    +0.148 HD
BRANCH   6   1
ATOM      1  S   UNL     1       1.111  -0.294  22.477  0.00  0.00    +0.065 S 
ATOM      4  O   UNL     1       1.031  -0.557  21.052  0.00  0.00    -0.153 OA
ATOM      5  O   UNL     1       0.724  -1.316  23.430  0.00  0.00    -0.153 OA
BRANCH   1  22
ATOM      2  S   UNL     1       3.729  -1.095  23.526  0.00  0.00    -0.077 S 
ATOM     22  C   UNL     1       2.778   0.160  22.853  0.00  0.00    +0.142 A 
ATOM     24  C   UNL     1       3.489   1.332  22.717  0.00  0.00    +0.036 A 
ATOM     26  C   UNL     1       4.833   1.198  23.172  0.00  0.00    +0.010 A 
ATOM     27  C   UNL     1       5.097  -0.071  23.637  0.00  0.00    +0.047 A 
ENDBRANCH   1  22
ENDBRANCH   6   1
ENDBRANCH  16   6
ENDBRANCH  10  16
BRANCH  12  17
ATOM     17  C   UNL     1      -1.340   3.832  26.785  0.00  0.00    +0.103 C 
BRANCH  17  21
ATOM      3  O   UNL     1       0.700   2.534  26.700  0.00  0.00    -0.276 OA
ATOM      7  N   UNL     1      -1.349   1.463  26.461  0.00  0.00    -0.311 N 
ATOM     21  C   UNL     1      -0.527   2.564  26.649  0.00  0.00    +0.214 C 
ATOM     35  H   UNL     1      -2.357   1.588  26.437  0.00  0.00    +0.149 HD
BRANCH   7  23
ATOM     23  C   UNL     1      -0.843   0.120  26.299  0.00  0.00    +0.139 C 
BRANCH  23  25
ATOM     25  C   UNL     1      -1.820  -0.765  25.577  0.00  0.00    -0.030 A 
ATOM     28  C   UNL     1      -1.365  -1.889  24.889  0.00  0.00    +0.006 A 
ATOM     29  C   UNL     1      -3.181  -0.461  25.595  0.00  0.00    +0.006 A 
ATOM     30  C   UNL     1      -2.272  -2.710  24.219  0.00  0.00    +0.019 A 
ATOM     31  C   UNL     1      -4.088  -1.281  24.926  0.00  0.00    +0.019 A 
ATOM     32  C   UNL     1      -3.634  -2.406  24.238  0.00  0.00    +0.052 A 
BRANCH  32  33
ATOM      8  N   UNL     1      -5.318  -3.930  22.993  0.00  0.00    -0.191 NA
ATOM     33  C   UNL     1      -4.564  -3.247  23.551  0.00  0.00    +0.099 C 
ENDBRANCH  32  33
ENDBRANCH  23  25
ENDBRANCH   7  23
ENDBRANCH  17  21
ENDBRANCH  12  17
TORSDOF 10
ENDMDL
