MODEL 1
REMARK VINA RESULT:      17.0      0.000      0.000
REMARK  Name = 44716859
REMARK  9 active torsions:
REMARK  status: ('A' for Active; 'I' for Inactive)
REMARK    1  A    between atoms: O_3  and  C_15
REMARK    2  A    between atoms: O_4  and  C_20
REMARK    3  A    between atoms: N_8  and  C_26
REMARK    4  A    between atoms: C_10  and  C_18
REMARK    5  A    between atoms: C_12  and  C_20
REMARK    6  A    between atoms: C_12  and  C_21
REMARK    7  A    between atoms: C_13  and  C_23
REMARK    8  A    between atoms: C_23  and  C_24
REMARK    9  A    between atoms: C_27  and  C_30
REMARK                            x       y       z     vdW  Elec       q    Type
REMARK                         _______ _______ _______ _____ _____    ______ ____
ROOT
ATOM      1  S   UNL     1       0.279   2.067  26.009  0.00  0.00    -0.057 S 
ATOM      6  O   UNL     1       2.034   0.418  21.995  0.00  0.00    -0.270 OA
ATOM      7  N   UNL     1      -0.257   1.650  23.513  0.00  0.00    -0.229 NA
ATOM      9  N   UNL     1       1.940   1.014  24.274  0.00  0.00    -0.261 N 
ATOM     10  C   UNL     1      -3.880   2.748  24.244  0.00  0.00    -0.019 C 
ATOM     11  C   UNL     1      -3.428   3.750  25.396  0.00  0.00    +0.011 C 
ATOM     12  C   UNL     1      -4.572   4.466  26.212  0.00  0.00    +0.021 C 
ATOM     13  C   UNL     1      -2.624   2.493  23.290  0.00  0.00    +0.054 C 
ATOM     14  C   UNL     1      -5.006   3.406  23.403  0.00  0.00    +0.010 C 
ATOM     15  C   UNL     1      -5.634   5.024  25.224  0.00  0.00    +0.123 C 
ATOM     16  C   UNL     1      -2.318   3.124  26.289  0.00  0.00    +0.049 C 
ATOM     17  C   UNL     1      -6.143   3.980  24.237  0.00  0.00    +0.032 C 
ATOM     18  C   UNL     1      -4.396   1.395  24.791  0.00  0.00    +0.012 C 
ATOM     19  C   UNL     1      -1.383   2.204  24.095  0.00  0.00    +0.058 A 
ATOM     21  C   UNL     1      -3.967   5.680  26.974  0.00  0.00    +0.016 C 
ATOM     22  C   UNL     1      -1.261   2.511  25.434  0.00  0.00    +0.015 A 
ATOM     25  C   UNL     1       0.679   1.525  24.430  0.00  0.00    +0.165 A 
ATOM     27  C   UNL     1       2.552   0.498  23.104  0.00  0.00    +0.250 C 
ATOM     42  H   UNL     1       2.491   1.061  25.125  0.00  0.00    +0.157 HD
ENDROOT
BRANCH  27  30
ATOM      2  F   UNL     1       5.797  -2.969  24.153  0.00  0.00    -0.205 F 
ATOM     30  C   UNL     1       3.957   0.036  23.248  0.00  0.00    +0.040 A 
ATOM     33  C   UNL     1       4.223  -1.275  23.641  0.00  0.00    +0.051 A 
ATOM     34  C   UNL     1       5.009   0.914  22.989  0.00  0.00    +0.013 A 
ATOM     36  C   UNL     1       5.543  -1.709  23.776  0.00  0.00    +0.124 A 
ATOM     37  C   UNL     1       6.328   0.481  23.124  0.00  0.00    +0.004 A 
ATOM     38  C   UNL     1       6.595  -0.831  23.518  0.00  0.00    +0.038 A 
ENDBRANCH  27  30
BRANCH  15   3
ATOM      3  O   UNL     1      -6.748   5.564  25.935  0.00  0.00    -0.391 OA
ATOM     39  H   UNL     1      -7.337   5.985  25.285  0.00  0.00    +0.210 HD
ENDBRANCH  15   3
BRANCH  12  20
ATOM     20  C   UNL     1      -5.234   3.586  27.295  0.00  0.00    +0.165 C 
BRANCH  20   4
ATOM      4  O   UNL     1      -6.231   2.808  26.669  0.00  0.00    -0.394 OA
ATOM     40  H   UNL     1      -6.832   2.494  27.366  0.00  0.00    +0.209 HD
ENDBRANCH  20   4
ENDBRANCH  12  20
BRANCH  13  23
ATOM     23  C   UNL     1      -2.851   1.430  22.207  0.00  0.00    +0.106 C 
BRANCH  23  24
ATOM      5  O   UNL     1      -4.034  -0.650  22.484  0.00  0.00    -0.275 OA
ATOM      8  N   UNL     1      -2.069  -0.248  23.704  0.00  0.00    -0.285 N 
ATOM     24  C   UNL     1      -3.080   0.053  22.797  0.00  0.00    +0.218 C 
ATOM     41  H   UNL     1      -1.346   0.451  23.862  0.00  0.00    +0.155 HD
BRANCH   8  26
ATOM     26  C   UNL     1      -1.918  -1.431  24.466  0.00  0.00    +0.033 A 
ATOM     28  C   UNL     1      -3.043  -2.163  24.848  0.00  0.00    +0.023 A 
ATOM     29  C   UNL     1      -0.645  -1.867  24.835  0.00  0.00    +0.023 A 
ATOM     31  C   UNL     1      -2.895  -3.329  25.599  0.00  0.00    +0.002 A 
ATOM     32  C   UNL     1      -0.497  -3.033  25.585  0.00  0.00    +0.002 A 
ATOM     35  C   UNL     1      -1.622  -3.764  25.967  0.00  0.00    +0.000 A 
ENDBRANCH   8  26
ENDBRANCH  23  24
ENDBRANCH  13  23
TORSDOF 7
ENDMDL
MODEL 2
REMARK VINA RESULT:      19.7      2.925      5.195
REMARK  Name = 44716859
REMARK  9 active torsions:
REMARK  status: ('A' for Active; 'I' for Inactive)
REMARK    1  A    between atoms: O_3  and  C_15
REMARK    2  A    between atoms: O_4  and  C_20
REMARK    3  A    between atoms: N_8  and  C_26
REMARK    4  A    between atoms: C_10  and  C_18
REMARK    5  A    between atoms: C_12  and  C_20
REMARK    6  A    between atoms: C_12  and  C_21
REMARK    7  A    between atoms: C_13  and  C_23
REMARK    8  A    between atoms: C_23  and  C_24
REMARK    9  A    between atoms: C_27  and  C_30
REMARK                            x       y       z     vdW  Elec       q    Type
REMARK                         _______ _______ _______ _____ _____    ______ ____
ROOT
ATOM      1  S   UNL     1       1.569  -1.692  22.878  0.00  0.00    -0.057 S 
ATOM      6  O   UNL     1       4.758   1.518  24.077  0.00  0.00    -0.270 OA
ATOM      7  N   UNL     1       1.880   0.637  23.960  0.00  0.00    -0.229 NA
ATOM      9  N   UNL     1       3.875  -0.487  23.207  0.00  0.00    -0.261 N 
ATOM     10  C   UNL     1      -1.961   0.951  24.075  0.00  0.00    -0.019 C 
ATOM     11  C   UNL     1      -2.164  -0.619  24.245  0.00  0.00    +0.011 C 
ATOM     12  C   UNL     1      -3.647  -1.156  24.234  0.00  0.00    +0.021 C 
ATOM     13  C   UNL     1      -0.478   1.312  24.548  0.00  0.00    +0.054 C 
ATOM     14  C   UNL     1      -2.962   1.701  24.993  0.00  0.00    +0.010 C 
ATOM     15  C   UNL     1      -4.520  -0.268  25.163  0.00  0.00    +0.123 C 
ATOM     16  C   UNL     1      -1.200  -1.419  23.320  0.00  0.00    +0.049 C 
ATOM     17  C   UNL     1      -4.401   1.221  24.857  0.00  0.00    +0.032 C 
ATOM     18  C   UNL     1      -2.169   1.431  22.618  0.00  0.00    +0.012 C 
ATOM     19  C   UNL     1       0.526   0.355  23.958  0.00  0.00    +0.058 A 
ATOM     21  C   UNL     1      -3.669  -2.597  24.817  0.00  0.00    +0.016 C 
ATOM     22  C   UNL     1       0.182  -0.872  23.429  0.00  0.00    +0.015 A 
ATOM     25  C   UNL     1       2.525  -0.369  23.408  0.00  0.00    +0.165 A 
ATOM     27  C   UNL     1       4.907   0.427  23.537  0.00  0.00    +0.250 C 
ATOM     42  H   UNL     1       4.134  -1.379  22.796  0.00  0.00    +0.157 HD
ENDROOT
BRANCH  27  30
ATOM      2  F   UNL     1       9.723   0.933  23.981  0.00  0.00    -0.205 F 
ATOM     30  C   UNL     1       6.292  -0.002  23.213  0.00  0.00    +0.040 A 
ATOM     33  C   UNL     1       7.378   0.680  23.759  0.00  0.00    +0.051 A 
ATOM     34  C   UNL     1       6.506  -1.087  22.364  0.00  0.00    +0.013 A 
ATOM     36  C   UNL     1       8.680   0.278  23.456  0.00  0.00    +0.124 A 
ATOM     37  C   UNL     1       7.806  -1.490  22.059  0.00  0.00    +0.004 A 
ATOM     38  C   UNL     1       8.893  -0.807  22.605  0.00  0.00    +0.038 A 
ENDBRANCH  27  30
BRANCH  15   3
ATOM      3  O   UNL     1      -5.894  -0.645  25.075  0.00  0.00    -0.391 OA
ATOM     39  H   UNL     1      -6.306  -0.097  24.385  0.00  0.00    +0.210 HD
ENDBRANCH  15   3
BRANCH  12  20
ATOM     20  C   UNL     1      -4.277  -1.268  22.827  0.00  0.00    +0.165 C 
BRANCH  20   4
ATOM      4  O   UNL     1      -4.787  -2.576  22.686  0.00  0.00    -0.394 OA
ATOM     40  H   UNL     1      -4.027  -3.171  22.571  0.00  0.00    +0.209 HD
ENDBRANCH  20   4
ENDBRANCH  12  20
BRANCH  13  23
ATOM     23  C   UNL     1      -0.070   2.772  24.310  0.00  0.00    +0.106 C 
BRANCH  23  24
ATOM      5  O   UNL     1       0.392   4.673  25.714  0.00  0.00    -0.275 OA
ATOM      8  N   UNL     1       0.757   2.501  26.526  0.00  0.00    -0.285 N 
ATOM     24  C   UNL     1       0.381   3.455  25.585  0.00  0.00    +0.218 C 
ATOM     41  H   UNL     1       0.697   1.521  26.261  0.00  0.00    +0.155 HD
BRANCH   8  26
ATOM     26  C   UNL     1       1.235   2.726  27.839  0.00  0.00    +0.033 A 
ATOM     28  C   UNL     1       0.403   2.491  28.934  0.00  0.00    +0.023 A 
ATOM     29  C   UNL     1       2.538   3.183  28.039  0.00  0.00    +0.023 A 
ATOM     31  C   UNL     1       0.874   2.713  30.228  0.00  0.00    +0.002 A 
ATOM     32  C   UNL     1       3.009   3.404  29.333  0.00  0.00    +0.002 A 
ATOM     35  C   UNL     1       2.177   3.169  30.428  0.00  0.00    +0.000 A 
ENDBRANCH   8  26
ENDBRANCH  23  24
ENDBRANCH  13  23
TORSDOF 7
ENDMDL
