MODEL 1
REMARK VINA RESULT:      -6.1      0.000      0.000
REMARK  Name = 75367112
REMARK  10 active torsions:
REMARK  status: ('A' for Active; 'I' for Inactive)
REMARK    1  A    between atoms: O_3  and  C_8
REMARK    2  A    between atoms: N_5  and  C_7
REMARK    3  A    between atoms: N_5  and  C_10
REMARK    4  A    between atoms: N_6  and  C_12
REMARK    5  A    between atoms: C_9  and  C_12
REMARK    6  A    between atoms: C_15  and  C_16
REMARK    7  A    between atoms: C_15  and  C_18
REMARK    8  A    between atoms: C_15  and  C_19
REMARK    9  A    between atoms: C_15  and  C_20
REMARK   10  A    between atoms: C_16  and  C_17
REMARK                            x       y       z     vdW  Elec       q    Type
REMARK                         _______ _______ _______ _____ _____    ______ ____
ROOT
ATOM      1  O   UNL     1      -1.181   2.036  23.050  0.00  0.00    -0.371 OA
ATOM      7  C   UNL     1      -2.980   3.372  23.838  0.00  0.00    +0.111 C 
ATOM      8  C   UNL     1      -2.084   3.008  25.008  0.00  0.00    +0.164 C 
ATOM      9  C   UNL     1      -0.790   2.655  24.287  0.00  0.00    +0.165 C 
ATOM     11  C   UNL     1      -2.568   2.332  22.809  0.00  0.00    +0.181 C 
ENDROOT
BRANCH   8   3
ATOM      3  O   UNL     1      -1.907   4.080  25.914  0.00  0.00    -0.388 OA
ATOM     22  H   UNL     1      -2.695   4.648  25.873  0.00  0.00    +0.210 HD
ENDBRANCH   8   3
BRANCH   7   5
ATOM      5  N   UNL     1      -4.399   3.324  24.153  0.00  0.00    -0.302 NA
ATOM     21  H   UNL     1      -4.910   3.145  23.288  0.00  0.00    +0.123 HD
BRANCH   5  10
ATOM      2  O   UNL     1      -6.579   1.896  25.974  0.00  0.00    -0.377 OA
ATOM     10  C   UNL     1      -4.641   2.303  25.180  0.00  0.00    +0.106 C 
ATOM     13  C   UNL     1      -5.865   1.479  24.783  0.00  0.00    +0.180 C 
ATOM     14  C   UNL     1      -5.555   2.884  26.260  0.00  0.00    +0.180 C 
ENDBRANCH   5  10
ENDBRANCH   7   5
BRANCH   9  12
ATOM     12  C   UNL     1       0.097   1.708  25.076  0.00  0.00    +0.138 C 
BRANCH  12   6
ATOM      4  O   UNL     1       0.179  -0.747  23.542  0.00  0.00    -0.276 OA
ATOM      6  N   UNL     1      -0.583   0.468  25.370  0.00  0.00    -0.313 N 
ATOM     17  C   UNL     1      -0.485  -0.660  24.573  0.00  0.00    +0.214 C 
ATOM     23  H   UNL     1      -1.153   0.434  26.211  0.00  0.00    +0.149 HD
BRANCH  17  16
ATOM     16  C   UNL     1      -1.303  -1.830  25.093  0.00  0.00    +0.102 C 
BRANCH  16  15
ATOM     15  C   UNL     1      -2.833  -1.685  24.903  0.00  0.00    -0.029 C 
ATOM     18  C   UNL     1      -3.159  -0.767  23.714  0.00  0.00    +0.011 C 
ATOM     19  C   UNL     1      -3.508  -1.135  26.170  0.00  0.00    +0.011 C 
ATOM     20  C   UNL     1      -3.411  -3.083  24.612  0.00  0.00    +0.011 C 
ENDBRANCH  16  15
ENDBRANCH  17  16
ENDBRANCH  12   6
ENDBRANCH   9  12
TORSDOF 7
ENDMDL
MODEL 2
REMARK VINA RESULT:      -5.9      1.871      4.708
REMARK  Name = 75367112
REMARK  10 active torsions:
REMARK  status: ('A' for Active; 'I' for Inactive)
REMARK    1  A    between atoms: O_3  and  C_8
REMARK    2  A    between atoms: N_5  and  C_7
REMARK    3  A    between atoms: N_5  and  C_10
REMARK    4  A    between atoms: N_6  and  C_12
REMARK    5  A    between atoms: C_9  and  C_12
REMARK    6  A    between atoms: C_15  and  C_16
REMARK    7  A    between atoms: C_15  and  C_18
REMARK    8  A    between atoms: C_15  and  C_19
REMARK    9  A    between atoms: C_15  and  C_20
REMARK   10  A    between atoms: C_16  and  C_17
REMARK                            x       y       z     vdW  Elec       q    Type
REMARK                         _______ _______ _______ _____ _____    ______ ____
ROOT
ATOM      1  O   UNL     1      -0.883   1.282  25.887  0.00  0.00    -0.371 OA
ATOM      7  C   UNL     1      -0.658  -0.909  24.997  0.00  0.00    +0.111 C 
ATOM      8  C   UNL     1      -0.274   0.100  23.931  0.00  0.00    +0.164 C 
ATOM      9  C   UNL     1       0.037   1.323  24.783  0.00  0.00    +0.165 C 
ATOM     11  C   UNL     1      -1.445  -0.040  25.964  0.00  0.00    +0.181 C 
ENDROOT
BRANCH   8   3
ATOM      3  O   UNL     1       0.845  -0.309  23.169  0.00  0.00    -0.388 OA
ATOM     22  H   UNL     1       1.635  -0.257  23.734  0.00  0.00    +0.210 HD
ENDBRANCH   8   3
BRANCH   7   5
ATOM      5  N   UNL     1      -1.430  -2.031  24.488  0.00  0.00    -0.302 NA
ATOM     21  H   UNL     1      -0.995  -2.892  24.821  0.00  0.00    +0.123 HD
BRANCH   5  10
ATOM      2  O   UNL     1      -4.472  -2.493  23.687  0.00  0.00    -0.377 OA
ATOM     10  C   UNL     1      -2.829  -1.898  24.912  0.00  0.00    +0.106 C 
ATOM     13  C   UNL     1      -3.573  -3.192  24.585  0.00  0.00    +0.180 C 
ATOM     14  C   UNL     1      -3.647  -1.302  23.766  0.00  0.00    +0.180 C 
ENDBRANCH   5  10
ENDBRANCH   7   5
BRANCH   9  12
ATOM     12  C   UNL     1      -0.121   2.634  24.032  0.00  0.00    +0.138 C 
BRANCH  12   6
ATOM      4  O   UNL     1      -2.533   2.012  22.552  0.00  0.00    -0.276 OA
ATOM      6  N   UNL     1      -1.438   3.197  24.225  0.00  0.00    -0.313 N 
ATOM     17  C   UNL     1      -2.537   2.837  23.464  0.00  0.00    +0.214 C 
ATOM     23  H   UNL     1      -1.549   3.885  24.965  0.00  0.00    +0.149 HD
BRANCH  17  16
ATOM     16  C   UNL     1      -3.803   3.580  23.858  0.00  0.00    +0.102 C 
BRANCH  16  15
ATOM     15  C   UNL     1      -4.358   3.217  25.257  0.00  0.00    -0.029 C 
ATOM     18  C   UNL     1      -3.397   3.667  26.368  0.00  0.00    +0.011 C 
ATOM     19  C   UNL     1      -4.612   1.706  25.386  0.00  0.00    +0.011 C 
ATOM     20  C   UNL     1      -5.699   3.952  25.443  0.00  0.00    +0.011 C 
ENDBRANCH  16  15
ENDBRANCH  17  16
ENDBRANCH  12   6
ENDBRANCH   9  12
TORSDOF 7
ENDMDL
MODEL 3
REMARK VINA RESULT:      -5.2      1.951      4.137
REMARK  Name = 75367112
REMARK  10 active torsions:
REMARK  status: ('A' for Active; 'I' for Inactive)
REMARK    1  A    between atoms: O_3  and  C_8
REMARK    2  A    between atoms: N_5  and  C_7
REMARK    3  A    between atoms: N_5  and  C_10
REMARK    4  A    between atoms: N_6  and  C_12
REMARK    5  A    between atoms: C_9  and  C_12
REMARK    6  A    between atoms: C_15  and  C_16
REMARK    7  A    between atoms: C_15  and  C_18
REMARK    8  A    between atoms: C_15  and  C_19
REMARK    9  A    between atoms: C_15  and  C_20
REMARK   10  A    between atoms: C_16  and  C_17
REMARK                            x       y       z     vdW  Elec       q    Type
REMARK                         _______ _______ _______ _____ _____    ______ ____
ROOT
ATOM      1  O   UNL     1      -4.773   3.713  26.380  0.00  0.00    -0.371 OA
ATOM      7  C   UNL     1      -2.864   4.264  25.079  0.00  0.00    +0.111 C 
ATOM      8  C   UNL     1      -3.656   3.184  24.364  0.00  0.00    +0.164 C 
ATOM      9  C   UNL     1      -5.023   3.344  25.013  0.00  0.00    +0.165 C 
ATOM     11  C   UNL     1      -3.407   4.148  26.494  0.00  0.00    +0.181 C 
ENDROOT
BRANCH   8   3
ATOM      3  O   UNL     1      -3.710   3.382  22.965  0.00  0.00    -0.388 OA
ATOM     22  H   UNL     1      -2.814   3.592  22.651  0.00  0.00    +0.210 HD
ENDBRANCH   8   3
BRANCH   7   5
ATOM      5  N   UNL     1      -1.424   4.075  25.008  0.00  0.00    -0.302 NA
ATOM     21  H   UNL     1      -0.989   4.697  25.691  0.00  0.00    +0.123 HD
BRANCH   5  10
ATOM      2  O   UNL     1       0.878   1.883  25.063  0.00  0.00    -0.377 OA
ATOM     10  C   UNL     1      -1.101   2.661  25.237  0.00  0.00    +0.106 C 
ATOM     13  C   UNL     1       0.149   2.572  26.111  0.00  0.00    +0.180 C 
ATOM     14  C   UNL     1      -0.185   2.169  24.116  0.00  0.00    +0.180 C 
ENDBRANCH   5  10
ENDBRANCH   7   5
BRANCH   9  12
ATOM     12  C   UNL     1      -5.862   2.079  24.968  0.00  0.00    +0.138 C 
BRANCH  12   6
ATOM      4  O   UNL     1      -3.824   0.469  23.684  0.00  0.00    -0.276 OA
ATOM      6  N   UNL     1      -5.150   0.954  25.530  0.00  0.00    -0.313 N 
ATOM     17  C   UNL     1      -4.188   0.241  24.836  0.00  0.00    +0.214 C 
ATOM     23  H   UNL     1      -5.372   0.689  26.486  0.00  0.00    +0.149 HD
BRANCH  17  16
ATOM     16  C   UNL     1      -3.595  -0.902  25.644  0.00  0.00    +0.102 C 
BRANCH  16  15
ATOM     15  C   UNL     1      -3.177  -2.137  24.809  0.00  0.00    -0.029 C 
ATOM     18  C   UNL     1      -1.764  -1.961  24.229  0.00  0.00    +0.011 C 
ATOM     19  C   UNL     1      -4.166  -2.402  23.662  0.00  0.00    +0.011 C 
ATOM     20  C   UNL     1      -3.172  -3.363  25.741  0.00  0.00    +0.011 C 
ENDBRANCH  16  15
ENDBRANCH  17  16
ENDBRANCH  12   6
ENDBRANCH   9  12
TORSDOF 7
ENDMDL
MODEL 4
REMARK VINA RESULT:      -5.2      1.725      4.183
REMARK  Name = 75367112
REMARK  10 active torsions:
REMARK  status: ('A' for Active; 'I' for Inactive)
REMARK    1  A    between atoms: O_3  and  C_8
REMARK    2  A    between atoms: N_5  and  C_7
REMARK    3  A    between atoms: N_5  and  C_10
REMARK    4  A    between atoms: N_6  and  C_12
REMARK    5  A    between atoms: C_9  and  C_12
REMARK    6  A    between atoms: C_15  and  C_16
REMARK    7  A    between atoms: C_15  and  C_18
REMARK    8  A    between atoms: C_15  and  C_19
REMARK    9  A    between atoms: C_15  and  C_20
REMARK   10  A    between atoms: C_16  and  C_17
REMARK                            x       y       z     vdW  Elec       q    Type
REMARK                         _______ _______ _______ _____ _____    ______ ____
ROOT
ATOM      1  O   UNL     1      -2.213  -2.074  25.292  0.00  0.00    -0.371 OA
ATOM      7  C   UNL     1      -3.951  -0.860  24.223  0.00  0.00    +0.111 C 
ATOM      8  C   UNL     1      -2.673  -0.044  24.168  0.00  0.00    +0.164 C 
ATOM      9  C   UNL     1      -1.625  -1.128  24.383  0.00  0.00    +0.165 C 
ATOM     11  C   UNL     1      -3.633  -1.846  25.334  0.00  0.00    +0.181 C 
ENDROOT
BRANCH   8   3
ATOM      3  O   UNL     1      -2.499   0.618  22.931  0.00  0.00    -0.388 OA
ATOM     22  H   UNL     1      -1.554   0.599  22.704  0.00  0.00    +0.210 HD
ENDBRANCH   8   3
BRANCH   7   5
ATOM      5  N   UNL     1      -5.139  -0.065  24.495  0.00  0.00    -0.302 NA
ATOM     21  H   UNL     1      -5.802  -0.651  25.004  0.00  0.00    +0.123 HD
BRANCH   5  10
ATOM      2  O   UNL     1      -6.036   2.849  25.395  0.00  0.00    -0.377 OA
ATOM     10  C   UNL     1      -4.762   1.145  25.236  0.00  0.00    +0.106 C 
ATOM     13  C   UNL     1      -5.941   1.586  26.101  0.00  0.00    +0.180 C 
ATOM     14  C   UNL     1      -5.099   2.375  24.393  0.00  0.00    +0.180 C 
ENDBRANCH   5  10
ENDBRANCH   7   5
BRANCH   9  12
ATOM     12  C   UNL     1      -0.325  -0.599  24.963  0.00  0.00    +0.138 C 
BRANCH  12   6
ATOM      4  O   UNL     1       0.968   1.851  24.115  0.00  0.00    -0.276 OA
ATOM      6  N   UNL     1      -0.495   0.722  25.524  0.00  0.00    -0.313 N 
ATOM     17  C   UNL     1       0.170   1.840  25.051  0.00  0.00    +0.214 C 
ATOM     23  H   UNL     1      -1.145   0.821  26.299  0.00  0.00    +0.149 HD
BRANCH  17  16
ATOM     16  C   UNL     1      -0.174   3.106  25.816  0.00  0.00    +0.102 C 
BRANCH  16  15
ATOM     15  C   UNL     1      -1.342   3.928  25.217  0.00  0.00    -0.029 C 
ATOM     18  C   UNL     1      -2.532   3.989  26.188  0.00  0.00    +0.011 C 
ATOM     19  C   UNL     1      -1.811   3.342  23.875  0.00  0.00    +0.011 C 
ATOM     20  C   UNL     1      -0.837   5.363  24.971  0.00  0.00    +0.011 C 
ENDBRANCH  16  15
ENDBRANCH  17  16
ENDBRANCH  12   6
ENDBRANCH   9  12
TORSDOF 7
ENDMDL
MODEL 5
REMARK VINA RESULT:      -5.1      1.985      5.932
REMARK  Name = 75367112
REMARK  10 active torsions:
REMARK  status: ('A' for Active; 'I' for Inactive)
REMARK    1  A    between atoms: O_3  and  C_8
REMARK    2  A    between atoms: N_5  and  C_7
REMARK    3  A    between atoms: N_5  and  C_10
REMARK    4  A    between atoms: N_6  and  C_12
REMARK    5  A    between atoms: C_9  and  C_12
REMARK    6  A    between atoms: C_15  and  C_16
REMARK    7  A    between atoms: C_15  and  C_18
REMARK    8  A    between atoms: C_15  and  C_19
REMARK    9  A    between atoms: C_15  and  C_20
REMARK   10  A    between atoms: C_16  and  C_17
REMARK                            x       y       z     vdW  Elec       q    Type
REMARK                         _______ _______ _______ _____ _____    ______ ____
ROOT
ATOM      1  O   UNL     1      -3.191  -1.985  24.432  0.00  0.00    -0.371 OA
ATOM      7  C   UNL     1      -0.955  -1.452  25.029  0.00  0.00    +0.111 C 
ATOM      8  C   UNL     1      -1.794  -0.188  25.075  0.00  0.00    +0.164 C 
ATOM      9  C   UNL     1      -3.195  -0.771  25.202  0.00  0.00    +0.165 C 
ATOM     11  C   UNL     1      -1.825  -2.361  24.178  0.00  0.00    +0.181 C 
ENDROOT
BRANCH   8   3
ATOM      3  O   UNL     1      -1.469   0.644  26.171  0.00  0.00    -0.388 OA
ATOM     22  H   UNL     1      -2.290   0.861  26.645  0.00  0.00    +0.210 HD
ENDBRANCH   8   3
BRANCH   7   5
ATOM      5  N   UNL     1       0.372  -1.251  24.468  0.00  0.00    -0.302 NA
ATOM     21  H   UNL     1       0.690  -2.140  24.080  0.00  0.00    +0.123 HD
BRANCH   5  10
ATOM      2  O   UNL     1       2.076   0.790  22.724  0.00  0.00    -0.377 OA
ATOM     10  C   UNL     1       0.325  -0.176  23.468  0.00  0.00    +0.106 C 
ATOM     13  C   UNL     1       1.386  -0.444  22.401  0.00  0.00    +0.180 C 
ATOM     14  C   UNL     1       1.251   0.958  23.907  0.00  0.00    +0.180 C 
ENDBRANCH   5  10
ENDBRANCH   7   5
BRANCH   9  12
ATOM     12  C   UNL     1      -4.281   0.158  24.689  0.00  0.00    +0.138 C 
BRANCH  12   6
ATOM      4  O   UNL     1      -5.283   2.739  25.540  0.00  0.00    -0.276 OA
ATOM      6  N   UNL     1      -3.748   1.459  24.354  0.00  0.00    -0.313 N 
ATOM     17  C   UNL     1      -4.298   2.645  24.810  0.00  0.00    +0.214 C 
ATOM     23  H   UNL     1      -2.924   1.489  23.760  0.00  0.00    +0.149 HD
BRANCH  17  16
ATOM     16  C   UNL     1      -3.560   3.875  24.308  0.00  0.00    +0.102 C 
BRANCH  16  15
ATOM     15  C   UNL     1      -2.271   4.221  25.094  0.00  0.00    -0.029 C 
ATOM     18  C   UNL     1      -1.966   5.726  25.022  0.00  0.00    +0.011 C 
ATOM     19  C   UNL     1      -1.062   3.432  24.566  0.00  0.00    +0.011 C 
ATOM     20  C   UNL     1      -2.495   3.839  26.569  0.00  0.00    +0.011 C 
ENDBRANCH  16  15
ENDBRANCH  17  16
ENDBRANCH  12   6
ENDBRANCH   9  12
TORSDOF 7
ENDMDL
MODEL 6
REMARK VINA RESULT:      -4.2      2.029      4.854
REMARK  Name = 75367112
REMARK  10 active torsions:
REMARK  status: ('A' for Active; 'I' for Inactive)
REMARK    1  A    between atoms: O_3  and  C_8
REMARK    2  A    between atoms: N_5  and  C_7
REMARK    3  A    between atoms: N_5  and  C_10
REMARK    4  A    between atoms: N_6  and  C_12
REMARK    5  A    between atoms: C_9  and  C_12
REMARK    6  A    between atoms: C_15  and  C_16
REMARK    7  A    between atoms: C_15  and  C_18
REMARK    8  A    between atoms: C_15  and  C_19
REMARK    9  A    between atoms: C_15  and  C_20
REMARK   10  A    between atoms: C_16  and  C_17
REMARK                            x       y       z     vdW  Elec       q    Type
REMARK                         _______ _______ _______ _____ _____    ______ ____
ROOT
ATOM      1  O   UNL     1      -1.187   2.360  26.416  0.00  0.00    -0.371 OA
ATOM      7  C   UNL     1       0.373   2.892  24.706  0.00  0.00    +0.111 C 
ATOM      8  C   UNL     1      -0.911   3.666  24.465  0.00  0.00    +0.164 C 
ATOM      9  C   UNL     1      -1.538   3.634  25.851  0.00  0.00    +0.165 C 
ATOM     11  C   UNL     1      -0.107   1.800  25.647  0.00  0.00    +0.181 C 
ENDROOT
BRANCH   8   3
ATOM      3  O   UNL     1      -0.676   4.989  24.023  0.00  0.00    -0.388 OA
ATOM     22  H   UNL     1      -0.201   4.948  23.175  0.00  0.00    +0.210 HD
ENDBRANCH   8   3
BRANCH   7   5
ATOM      5  N   UNL     1       0.975   2.367  23.491  0.00  0.00    -0.302 NA
ATOM     21  H   UNL     1       1.669   3.041  23.165  0.00  0.00    +0.123 HD
BRANCH   5  10
ATOM      2  O   UNL     1       2.326  -0.215  22.220  0.00  0.00    -0.377 OA
ATOM     10  C   UNL     1       1.548   1.042  23.759  0.00  0.00    +0.106 C 
ATOM     13  C   UNL     1       2.856   0.899  22.982  0.00  0.00    +0.180 C 
ATOM     14  C   UNL     1       0.996   0.042  22.742  0.00  0.00    +0.180 C 
ENDBRANCH   5  10
ENDBRANCH   7   5
BRANCH   9  12
ATOM     12  C   UNL     1      -3.048   3.788  25.831  0.00  0.00    +0.138 C 
BRANCH  12   6
ATOM      4  O   UNL     1      -3.913   2.466  23.403  0.00  0.00    -0.276 OA
ATOM      6  N   UNL     1      -3.708   2.507  25.718  0.00  0.00    -0.313 N 
ATOM     17  C   UNL     1      -4.087   1.953  24.507  0.00  0.00    +0.214 C 
ATOM     23  H   UNL     1      -3.889   1.996  26.577  0.00  0.00    +0.149 HD
BRANCH  17  16
ATOM     16  C   UNL     1      -4.771   0.604  24.658  0.00  0.00    +0.102 C 
BRANCH  16  15
ATOM     15  C   UNL     1      -3.813  -0.611  24.659  0.00  0.00    -0.029 C 
ATOM     18  C   UNL     1      -4.378  -1.763  23.813  0.00  0.00    +0.011 C 
ATOM     19  C   UNL     1      -3.543  -1.114  26.087  0.00  0.00    +0.011 C 
ATOM     20  C   UNL     1      -2.475  -0.163  24.040  0.00  0.00    +0.011 C 
ENDBRANCH  16  15
ENDBRANCH  17  16
ENDBRANCH  12   6
ENDBRANCH   9  12
TORSDOF 7
ENDMDL
MODEL 7
REMARK VINA RESULT:      -2.9      1.997      3.898
REMARK  Name = 75367112
REMARK  10 active torsions:
REMARK  status: ('A' for Active; 'I' for Inactive)
REMARK    1  A    between atoms: O_3  and  C_8
REMARK    2  A    between atoms: N_5  and  C_7
REMARK    3  A    between atoms: N_5  and  C_10
REMARK    4  A    between atoms: N_6  and  C_12
REMARK    5  A    between atoms: C_9  and  C_12
REMARK    6  A    between atoms: C_15  and  C_16
REMARK    7  A    between atoms: C_15  and  C_18
REMARK    8  A    between atoms: C_15  and  C_19
REMARK    9  A    between atoms: C_15  and  C_20
REMARK   10  A    between atoms: C_16  and  C_17
REMARK                            x       y       z     vdW  Elec       q    Type
REMARK                         _______ _______ _______ _____ _____    ______ ____
ROOT
ATOM      1  O   UNL     1      -5.589   1.982  25.073  0.00  0.00    -0.371 OA
ATOM      7  C   UNL     1      -3.636   3.314  25.293  0.00  0.00    +0.111 C 
ATOM      8  C   UNL     1      -3.231   1.898  24.928  0.00  0.00    +0.164 C 
ATOM      9  C   UNL     1      -4.525   1.369  24.326  0.00  0.00    +0.165 C 
ATOM     11  C   UNL     1      -5.052   3.101  25.800  0.00  0.00    +0.181 C 
ENDROOT
BRANCH   8   3
ATOM      3  O   UNL     1      -2.163   1.857  24.001  0.00  0.00    -0.388 OA
ATOM     22  H   UNL     1      -2.057   0.939  23.697  0.00  0.00    +0.210 HD
ENDBRANCH   8   3
BRANCH   7   5
ATOM      5  N   UNL     1      -2.768   3.933  26.282  0.00  0.00    -0.302 NA
ATOM     21  H   UNL     1      -2.273   3.190  26.779  0.00  0.00    +0.123 HD
BRANCH   5  10
ATOM      2  O   UNL     1      -0.664   4.342  23.934  0.00  0.00    -0.377 OA
ATOM     10  C   UNL     1      -1.860   4.877  25.618  0.00  0.00    +0.106 C 
ATOM     13  C   UNL     1      -2.042   4.761  24.105  0.00  0.00    +0.180 C 
ATOM     14  C   UNL     1      -0.516   4.190  25.370  0.00  0.00    +0.180 C 
ENDBRANCH   5  10
ENDBRANCH   7   5
BRANCH   9  12
ATOM     12  C   UNL     1      -4.649  -0.143  24.404  0.00  0.00    +0.138 C 
BRANCH  12   6
ATOM      4  O   UNL     1      -4.077  -2.978  24.561  0.00  0.00    -0.276 OA
ATOM      6  N   UNL     1      -3.361  -0.786  24.276  0.00  0.00    -0.313 N 
ATOM     17  C   UNL     1      -3.184  -2.156  24.367  0.00  0.00    +0.214 C 
ATOM     23  H   UNL     1      -2.556  -0.191  24.102  0.00  0.00    +0.149 HD
BRANCH  17  16
ATOM     16  C   UNL     1      -1.734  -2.580  24.207  0.00  0.00    +0.102 C 
BRANCH  16  15
ATOM     15  C   UNL     1      -0.714  -1.701  24.970  0.00  0.00    -0.029 C 
ATOM     18  C   UNL     1      -0.099  -0.637  24.046  0.00  0.00    +0.011 C 
ATOM     19  C   UNL     1       0.410  -2.549  25.587  0.00  0.00    +0.011 C 
ATOM     20  C   UNL     1      -1.462  -0.983  26.110  0.00  0.00    +0.011 C 
ENDBRANCH  16  15
ENDBRANCH  17  16
ENDBRANCH  12   6
ENDBRANCH   9  12
TORSDOF 7
ENDMDL
MODEL 8
REMARK VINA RESULT:      -2.7     15.089     17.480
REMARK  Name = 75367112
REMARK  10 active torsions:
REMARK  status: ('A' for Active; 'I' for Inactive)
REMARK    1  A    between atoms: O_3  and  C_8
REMARK    2  A    between atoms: N_5  and  C_7
REMARK    3  A    between atoms: N_5  and  C_10
REMARK    4  A    between atoms: N_6  and  C_12
REMARK    5  A    between atoms: C_9  and  C_12
REMARK    6  A    between atoms: C_15  and  C_16
REMARK    7  A    between atoms: C_15  and  C_18
REMARK    8  A    between atoms: C_15  and  C_19
REMARK    9  A    between atoms: C_15  and  C_20
REMARK   10  A    between atoms: C_16  and  C_17
REMARK                            x       y       z     vdW  Elec       q    Type
REMARK                         _______ _______ _______ _____ _____    ______ ____
ROOT
ATOM      1  O   UNL     1      -7.423  -8.996  12.925  0.00  0.00    -0.371 OA
ATOM      7  C   UNL     1      -5.672  -9.878  11.585  0.00  0.00    +0.111 C 
ATOM      8  C   UNL     1      -6.974 -10.561  11.210  0.00  0.00    +0.164 C 
ATOM      9  C   UNL     1      -7.992  -9.556  11.730  0.00  0.00    +0.165 C 
ATOM     11  C   UNL     1      -6.017  -9.300  12.947  0.00  0.00    +0.181 C 
ENDROOT
BRANCH   8   3
ATOM      3  O   UNL     1      -7.101 -10.767   9.817  0.00  0.00    -0.388 OA
ATOM     22  H   UNL     1      -7.983 -10.463   9.542  0.00  0.00    +0.210 HD
ENDBRANCH   8   3
BRANCH   7   5
ATOM      5  N   UNL     1      -4.531 -10.780  11.626  0.00  0.00    -0.302 NA
ATOM     21  H   UNL     1      -4.885 -11.738  11.646  0.00  0.00    +0.123 HD
BRANCH   5  10
ATOM      2  O   UNL     1      -2.487  -8.742  10.293  0.00  0.00    -0.377 OA
ATOM     10  C   UNL     1      -3.656 -10.518  10.477  0.00  0.00    +0.106 C 
ATOM     13  C   UNL     1      -2.309 -10.004  10.984  0.00  0.00    +0.180 C 
ATOM     14  C   UNL     1      -3.868  -9.080  10.002  0.00  0.00    +0.180 C 
ENDBRANCH   5  10
ENDBRANCH   7   5
BRANCH   9  12
ATOM     12  C   UNL     1      -9.341 -10.176  12.047  0.00  0.00    +0.138 C 
BRANCH  12   6
ATOM      4  O   UNL     1     -10.702  -8.693  14.130  0.00  0.00    -0.276 OA
ATOM      6  N   UNL     1      -9.447 -10.525  13.445  0.00  0.00    -0.313 N 
ATOM     17  C   UNL     1     -10.121  -9.749  14.373  0.00  0.00    +0.214 C 
ATOM     23  H   UNL     1      -9.006 -11.390  13.747  0.00  0.00    +0.149 HD
BRANCH  17  16
ATOM     16  C   UNL     1     -10.077 -10.328  15.777  0.00  0.00    +0.102 C 
BRANCH  16  15
ATOM     15  C   UNL     1      -9.299  -9.473  16.806  0.00  0.00    -0.029 C 
ATOM     18  C   UNL     1      -9.839  -8.035  16.853  0.00  0.00    +0.011 C 
ATOM     19  C   UNL     1      -7.795  -9.441  16.488  0.00  0.00    +0.011 C 
ATOM     20  C   UNL     1      -9.489 -10.110  18.196  0.00  0.00    +0.011 C 
ENDBRANCH  16  15
ENDBRANCH  17  16
ENDBRANCH  12   6
ENDBRANCH   9  12
TORSDOF 7
ENDMDL
MODEL 9
REMARK VINA RESULT:      -2.7      1.795      4.606
REMARK  Name = 75367112
REMARK  10 active torsions:
REMARK  status: ('A' for Active; 'I' for Inactive)
REMARK    1  A    between atoms: O_3  and  C_8
REMARK    2  A    between atoms: N_5  and  C_7
REMARK    3  A    between atoms: N_5  and  C_10
REMARK    4  A    between atoms: N_6  and  C_12
REMARK    5  A    between atoms: C_9  and  C_12
REMARK    6  A    between atoms: C_15  and  C_16
REMARK    7  A    between atoms: C_15  and  C_18
REMARK    8  A    between atoms: C_15  and  C_19
REMARK    9  A    between atoms: C_15  and  C_20
REMARK   10  A    between atoms: C_16  and  C_17
REMARK                            x       y       z     vdW  Elec       q    Type
REMARK                         _______ _______ _______ _____ _____    ______ ____
ROOT
ATOM      1  O   UNL     1      -1.330   3.118  26.384  0.00  0.00    -0.371 OA
ATOM      7  C   UNL     1       0.090   1.585  25.254  0.00  0.00    +0.111 C 
ATOM      8  C   UNL     1      -0.328   2.678  24.287  0.00  0.00    +0.164 C 
ATOM      9  C   UNL     1      -0.741   3.781  25.252  0.00  0.00    +0.165 C 
ATOM     11  C   UNL     1      -0.962   1.728  26.342  0.00  0.00    +0.181 C 
ENDROOT
BRANCH   8   3
ATOM      3  O   UNL     1       0.727   3.088  23.439  0.00  0.00    -0.388 OA
ATOM     22  H   UNL     1       0.732   2.510  22.656  0.00  0.00    +0.210 HD
ENDBRANCH   8   3
BRANCH   7   5
ATOM      5  N   UNL     1       0.112   0.258  24.660  0.00  0.00    -0.302 NA
ATOM     21  H   UNL     1       1.049  -0.129  24.783  0.00  0.00    +0.123 HD
BRANCH   5  10
ATOM      2  O   UNL     1      -1.481  -2.489  24.511  0.00  0.00    -0.377 OA
ATOM     10  C   UNL     1      -0.933  -0.573  25.272  0.00  0.00    +0.106 C 
ATOM     13  C   UNL     1      -0.425  -2.010  25.381  0.00  0.00    +0.180 C 
ATOM     14  C   UNL     1      -1.842  -1.125  24.173  0.00  0.00    +0.180 C 
ENDBRANCH   5  10
ENDBRANCH   7   5
BRANCH   9  12
ATOM     12  C   UNL     1      -1.737   4.759  24.655  0.00  0.00    +0.138 C 
BRANCH  12   6
ATOM      4  O   UNL     1      -2.504   2.613  22.866  0.00  0.00    -0.276 OA
ATOM      6  N   UNL     1      -3.045   4.161  24.514  0.00  0.00    -0.313 N 
ATOM     17  C   UNL     1      -3.318   3.134  23.626  0.00  0.00    +0.214 C 
ATOM     23  H   UNL     1      -3.789   4.516  25.107  0.00  0.00    +0.149 HD
BRANCH  17  16
ATOM     16  C   UNL     1      -4.770   2.687  23.662  0.00  0.00    +0.102 C 
BRANCH  16  15
ATOM     15  C   UNL     1      -5.225   2.073  25.008  0.00  0.00    -0.029 C 
ATOM     18  C   UNL     1      -6.703   1.654  24.955  0.00  0.00    +0.011 C 
ATOM     19  C   UNL     1      -5.017   3.054  26.174  0.00  0.00    +0.011 C 
ATOM     20  C   UNL     1      -4.372   0.817  25.272  0.00  0.00    +0.011 C 
ENDBRANCH  16  15
ENDBRANCH  17  16
ENDBRANCH  12   6
ENDBRANCH   9  12
TORSDOF 7
ENDMDL
MODEL 10
REMARK VINA RESULT:      -2.2      3.198      4.717
REMARK  Name = 75367112
REMARK  10 active torsions:
REMARK  status: ('A' for Active; 'I' for Inactive)
REMARK    1  A    between atoms: O_3  and  C_8
REMARK    2  A    between atoms: N_5  and  C_7
REMARK    3  A    between atoms: N_5  and  C_10
REMARK    4  A    between atoms: N_6  and  C_12
REMARK    5  A    between atoms: C_9  and  C_12
REMARK    6  A    between atoms: C_15  and  C_16
REMARK    7  A    between atoms: C_15  and  C_18
REMARK    8  A    between atoms: C_15  and  C_19
REMARK    9  A    between atoms: C_15  and  C_20
REMARK   10  A    between atoms: C_16  and  C_17
REMARK                            x       y       z     vdW  Elec       q    Type
REMARK                         _______ _______ _______ _____ _____    ______ ____
ROOT
ATOM      1  O   UNL     1      -0.219   1.214  25.125  0.00  0.00    -0.371 OA
ATOM      7  C   UNL     1      -2.418   2.105  25.009  0.00  0.00    +0.111 C 
ATOM      8  C   UNL     1      -2.058   1.497  23.666  0.00  0.00    +0.164 C 
ATOM      9  C   UNL     1      -0.929   0.556  24.063  0.00  0.00    +0.165 C 
ATOM     11  C   UNL     1      -1.046   2.274  25.640  0.00  0.00    +0.181 C 
ENDROOT
BRANCH   8   3
ATOM      3  O   UNL     1      -3.139   0.802  23.074  0.00  0.00    -0.388 OA
ATOM     22  H   UNL     1      -3.834   0.690  23.745  0.00  0.00    +0.210 HD
ENDBRANCH   8   3
BRANCH   7   5
ATOM      5  N   UNL     1      -3.150   3.357  24.906  0.00  0.00    -0.302 NA
ATOM     21  H   UNL     1      -2.739   3.903  24.147  0.00  0.00    +0.123 HD
BRANCH   5  10
ATOM      2  O   UNL     1      -5.942   2.769  26.309  0.00  0.00    -0.377 OA
ATOM     10  C   UNL     1      -4.577   3.076  24.698  0.00  0.00    +0.106 C 
ATOM     13  C   UNL     1      -5.398   3.942  25.652  0.00  0.00    +0.180 C 
ATOM     14  C   UNL     1      -4.998   1.920  25.606  0.00  0.00    +0.180 C 
ENDBRANCH   5  10
ENDBRANCH   7   5
BRANCH   9  12
ATOM     12  C   UNL     1       0.025   0.248  22.922  0.00  0.00    +0.138 C 
BRANCH  12   6
ATOM      4  O   UNL     1       2.447  -0.163  21.387  0.00  0.00    -0.276 OA
ATOM      6  N   UNL     1       1.308  -0.197  23.413  0.00  0.00    -0.313 N 
ATOM     17  C   UNL     1       2.416  -0.367  22.599  0.00  0.00    +0.214 C 
ATOM     23  H   UNL     1       1.390  -0.385  24.408  0.00  0.00    +0.149 HD
BRANCH  17  16
ATOM     16  C   UNL     1       3.641  -0.853  23.354  0.00  0.00    +0.102 C 
BRANCH  16  15
ATOM     15  C   UNL     1       4.846   0.119  23.326  0.00  0.00    -0.029 C 
ATOM     18  C   UNL     1       5.972  -0.421  22.430  0.00  0.00    +0.011 C 
ATOM     19  C   UNL     1       5.399   0.370  24.739  0.00  0.00    +0.011 C 
ATOM     20  C   UNL     1       4.362   1.462  22.747  0.00  0.00    +0.011 C 
ENDBRANCH  16  15
ENDBRANCH  17  16
ENDBRANCH  12   6
ENDBRANCH   9  12
TORSDOF 7
ENDMDL
