MODEL 1
REMARK VINA RESULT:      -4.1      0.000      0.000
REMARK  Name = 45784179
REMARK  3 active torsions:
REMARK  status: ('A' for Active; 'I' for Inactive)
REMARK    1  A    between atoms: N_4  and  C_11
REMARK    2  A    between atoms: C_6  and  C_10
REMARK    3  A    between atoms: C_11  and  C_12
REMARK                            x       y       z     vdW  Elec       q    Type
REMARK                         _______ _______ _______ _____ _____    ______ ____
ROOT
ATOM      4  N   UNL     1       0.946  -0.494  23.557  0.00  0.00    -0.297 NA
ATOM      6  C   UNL     1      -0.847   0.073  24.959  0.00  0.00    +0.090 C 
ATOM      7  C   UNL     1      -1.130  -1.281  24.284  0.00  0.00    +0.029 C 
ATOM      8  C   UNL     1       0.299   0.683  24.142  0.00  0.00    +0.097 C 
ATOM      9  C   UNL     1      -0.157  -1.349  23.114  0.00  0.00    +0.085 C 
ENDROOT
BRANCH   6  10
ATOM      1 CL   UNL     1      -6.357   5.263  25.556  0.00  0.00    -0.083 Cl
ATOM      3  O   UNL     1      -3.262   0.377  25.073  0.00  0.00    -0.439 OA
ATOM      5  N   UNL     1      -2.065   2.298  25.170  0.00  0.00    -0.213 NA
ATOM     10  C   UNL     1      -2.044   0.988  25.072  0.00  0.00    +0.201 A 
ATOM     13  C   UNL     1      -3.405   2.589  25.243  0.00  0.00    +0.111 A 
ATOM     14  C   UNL     1      -4.142   1.415  25.184  0.00  0.00    +0.155 A 
ATOM     16  C   UNL     1      -4.086   3.810  25.360  0.00  0.00    +0.051 A 
ATOM     17  C   UNL     1      -5.528   1.346  25.231  0.00  0.00    +0.050 A 
ATOM     20  C   UNL     1      -5.487   3.781  25.411  0.00  0.00    +0.043 A 
ATOM     21  C   UNL     1      -6.192   2.572  25.348  0.00  0.00    +0.024 A 
ENDBRANCH   6  10
BRANCH   4  11
ATOM     11  C   UNL     1       1.850  -0.149  22.471  0.00  0.00    +0.126 C 
BRANCH  11  12
ATOM      2  S   UNL     1       4.004  -1.383  23.725  0.00  0.00    -0.100 S 
ATOM     12  C   UNL     1       3.277  -0.046  22.940  0.00  0.00    +0.004 A 
ATOM     15  C   UNL     1       4.141   1.022  22.831  0.00  0.00    +0.012 A 
ATOM     18  C   UNL     1       5.417   0.738  23.398  0.00  0.00    +0.008 A 
ATOM     19  C   UNL     1       5.479  -0.535  23.920  0.00  0.00    +0.045 A 
ENDBRANCH  11  12
ENDBRANCH   4  11
TORSDOF 3
ENDMDL
MODEL 2
REMARK VINA RESULT:      -4.1     15.123     17.384
REMARK  Name = 45784179
REMARK  3 active torsions:
REMARK  status: ('A' for Active; 'I' for Inactive)
REMARK    1  A    between atoms: N_4  and  C_11
REMARK    2  A    between atoms: C_6  and  C_10
REMARK    3  A    between atoms: C_11  and  C_12
REMARK                            x       y       z     vdW  Elec       q    Type
REMARK                         _______ _______ _______ _____ _____    ______ ____
ROOT
ATOM      4  N   UNL     1      -7.968 -10.418  17.198  0.00  0.00    -0.297 NA
ATOM      6  C   UNL     1      -6.247 -10.709  15.630  0.00  0.00    +0.090 C 
ATOM      7  C   UNL     1      -5.784  -9.734  16.728  0.00  0.00    +0.029 C 
ATOM      8  C   UNL     1      -7.772 -10.781  15.792  0.00  0.00    +0.097 C 
ATOM      9  C   UNL     1      -7.064  -9.290  17.426  0.00  0.00    +0.085 C 
ENDROOT
BRANCH   6  10
ATOM      1 CL   UNL     1      -4.832  -8.618   8.469  0.00  0.00    -0.083 Cl
ATOM      3  O   UNL     1      -4.509 -10.558  13.930  0.00  0.00    -0.439 OA
ATOM      5  N   UNL     1      -6.546  -9.826  13.261  0.00  0.00    -0.213 NA
ATOM     10  C   UNL     1      -5.819 -10.337  14.230  0.00  0.00    +0.201 A 
ATOM     13  C   UNL     1      -5.650  -9.695  12.228  0.00  0.00    +0.111 A 
ATOM     14  C   UNL     1      -4.401 -10.142  12.634  0.00  0.00    +0.155 A 
ATOM     16  C   UNL     1      -5.804  -9.212  10.921  0.00  0.00    +0.051 A 
ATOM     17  C   UNL     1      -3.265 -10.150  11.836  0.00  0.00    +0.050 A 
ATOM     20  C   UNL     1      -4.679  -9.205  10.084  0.00  0.00    +0.043 A 
ATOM     21  C   UNL     1      -3.435  -9.665  10.535  0.00  0.00    +0.024 A 
ENDBRANCH   6  10
BRANCH   4  11
ATOM     11  C   UNL     1      -9.353 -10.087  17.497  0.00  0.00    +0.126 C 
BRANCH  11  12
ATOM      2  S   UNL     1     -10.244  -9.135  15.040  0.00  0.00    -0.100 S 
ATOM     12  C   UNL     1      -9.836  -8.913  16.688  0.00  0.00    +0.004 A 
ATOM     15  C   UNL     1     -10.012  -7.607  17.092  0.00  0.00    +0.012 A 
ATOM     18  C   UNL     1     -10.488  -6.779  16.035  0.00  0.00    +0.008 A 
ATOM     19  C   UNL     1     -10.657  -7.483  14.863  0.00  0.00    +0.045 A 
ENDBRANCH  11  12
ENDBRANCH   4  11
TORSDOF 3
ENDMDL
MODEL 3
REMARK VINA RESULT:      -3.2     16.181     17.822
REMARK  Name = 45784179
REMARK  3 active torsions:
REMARK  status: ('A' for Active; 'I' for Inactive)
REMARK    1  A    between atoms: N_4  and  C_11
REMARK    2  A    between atoms: C_6  and  C_10
REMARK    3  A    between atoms: C_11  and  C_12
REMARK                            x       y       z     vdW  Elec       q    Type
REMARK                         _______ _______ _______ _____ _____    ______ ____
ROOT
ATOM      4  N   UNL     1      -2.983 -10.685  11.968  0.00  0.00    -0.297 NA
ATOM      6  C   UNL     1      -4.860 -10.664  10.561  0.00  0.00    +0.090 C 
ATOM      7  C   UNL     1      -3.593 -10.381   9.733  0.00  0.00    +0.029 C 
ATOM      8  C   UNL     1      -4.428 -10.452  12.018  0.00  0.00    +0.097 C 
ATOM      9  C   UNL     1      -2.532  -9.998  10.757  0.00  0.00    +0.085 C 
ENDROOT
BRANCH   6  10
ATOM      1 CL   UNL     1     -10.438  -6.069   8.232  0.00  0.00    -0.083 Cl
ATOM      3  O   UNL     1      -7.261 -10.268  10.675  0.00  0.00    -0.439 OA
ATOM      5  N   UNL     1      -6.117  -8.765   9.424  0.00  0.00    -0.213 NA
ATOM     10  C   UNL     1      -6.067  -9.841  10.177  0.00  0.00    +0.201 A 
ATOM     13  C   UNL     1      -7.452  -8.444   9.417  0.00  0.00    +0.111 A 
ATOM     14  C   UNL     1      -8.156  -9.363  10.182  0.00  0.00    +0.155 A 
ATOM     16  C   UNL     1      -8.154  -7.401   8.796  0.00  0.00    +0.051 A 
ATOM     17  C   UNL     1      -9.530  -9.334  10.388  0.00  0.00    +0.050 A 
ATOM     20  C   UNL     1      -9.542  -7.339   8.981  0.00  0.00    +0.043 A 
ATOM     21  C   UNL     1     -10.215  -8.288   9.761  0.00  0.00    +0.024 A 
ENDBRANCH   6  10
BRANCH   4  11
ATOM     11  C   UNL     1      -2.301 -10.209  13.161  0.00  0.00    +0.126 C 
BRANCH  11  12
ATOM      2  S   UNL     1      -2.359 -10.633  15.910  0.00  0.00    -0.100 S 
ATOM     12  C   UNL     1      -3.134 -10.410  14.400  0.00  0.00    +0.004 A 
ATOM     15  C   UNL     1      -4.507 -10.444  14.514  0.00  0.00    +0.012 A 
ATOM     18  C   UNL     1      -4.927 -10.656  15.858  0.00  0.00    +0.008 A 
ATOM     19  C   UNL     1      -3.860 -10.777  16.721  0.00  0.00    +0.045 A 
ENDBRANCH  11  12
ENDBRANCH   4  11
TORSDOF 3
ENDMDL
MODEL 4
REMARK VINA RESULT:      -2.1      3.831      7.300
REMARK  Name = 45784179
REMARK  3 active torsions:
REMARK  status: ('A' for Active; 'I' for Inactive)
REMARK    1  A    between atoms: N_4  and  C_11
REMARK    2  A    between atoms: C_6  and  C_10
REMARK    3  A    between atoms: C_11  and  C_12
REMARK                            x       y       z     vdW  Elec       q    Type
REMARK                         _______ _______ _______ _____ _____    ______ ____
ROOT
ATOM      4  N   UNL     1      -3.900   1.845  24.977  0.00  0.00    -0.297 NA
ATOM      6  C   UNL     1      -1.672   2.437  24.542  0.00  0.00    +0.090 C 
ATOM      7  C   UNL     1      -2.579   2.991  23.428  0.00  0.00    +0.029 C 
ATOM      8  C   UNL     1      -2.536   1.395  25.264  0.00  0.00    +0.097 C 
ATOM      9  C   UNL     1      -3.884   2.217  23.562  0.00  0.00    +0.085 C 
ENDROOT
BRANCH   6  10
ATOM      1 CL   UNL     1       5.313   0.177  22.604  0.00  0.00    -0.083 Cl
ATOM      3  O   UNL     1      -0.423   0.846  23.184  0.00  0.00    -0.439 OA
ATOM      5  N   UNL     1       0.863   2.265  24.393  0.00  0.00    -0.213 NA
ATOM     10  C   UNL     1      -0.350   1.881  24.067  0.00  0.00    +0.201 A 
ATOM     13  C   UNL     1       1.669   1.420  23.671  0.00  0.00    +0.111 A 
ATOM     14  C   UNL     1       0.884   0.548  22.929  0.00  0.00    +0.155 A 
ATOM     16  C   UNL     1       3.065   1.317  23.580  0.00  0.00    +0.051 A 
ATOM     17  C   UNL     1       1.378  -0.439  22.086  0.00  0.00    +0.050 A 
ATOM     20  C   UNL     1       3.600   0.332  22.739  0.00  0.00    +0.043 A 
ATOM     21  C   UNL     1       2.771  -0.528  22.008  0.00  0.00    +0.024 A 
ENDBRANCH   6  10
BRANCH   4  11
ATOM     11  C   UNL     1      -4.895   0.826  25.271  0.00  0.00    +0.126 C 
BRANCH  11  12
ATOM      2  S   UNL     1      -3.456  -1.390  26.138  0.00  0.00    -0.100 S 
ATOM     12  C   UNL     1      -4.387  -0.558  24.967  0.00  0.00    +0.004 A 
ATOM     15  C   UNL     1      -4.564  -1.305  23.822  0.00  0.00    +0.012 A 
ATOM     18  C   UNL     1      -3.928  -2.576  23.909  0.00  0.00    +0.008 A 
ATOM     19  C   UNL     1      -3.288  -2.754  25.116  0.00  0.00    +0.045 A 
ENDBRANCH  11  12
ENDBRANCH   4  11
TORSDOF 3
ENDMDL
MODEL 5
REMARK VINA RESULT:      -0.8      3.726      7.382
REMARK  Name = 45784179
REMARK  3 active torsions:
REMARK  status: ('A' for Active; 'I' for Inactive)
REMARK    1  A    between atoms: N_4  and  C_11
REMARK    2  A    between atoms: C_6  and  C_10
REMARK    3  A    between atoms: C_11  and  C_12
REMARK                            x       y       z     vdW  Elec       q    Type
REMARK                         _______ _______ _______ _____ _____    ______ ____
ROOT
ATOM      4  N   UNL     1      -4.701  -0.229  24.756  0.00  0.00    -0.297 NA
ATOM      6  C   UNL     1      -2.578  -1.055  24.196  0.00  0.00    +0.090 C 
ATOM      7  C   UNL     1      -2.861  -1.329  25.684  0.00  0.00    +0.029 C 
ATOM      8  C   UNL     1      -3.624  -0.009  23.788  0.00  0.00    +0.097 C 
ATOM      9  C   UNL     1      -4.022  -0.410  26.040  0.00  0.00    +0.085 C 
ENDROOT
BRANCH   6  10
ATOM      1 CL   UNL     1       4.686   0.354  22.493  0.00  0.00    -0.083 Cl
ATOM      3  O   UNL     1      -0.901   0.704  24.025  0.00  0.00    -0.439 OA
ATOM      5  N   UNL     1      -0.149  -1.368  23.502  0.00  0.00    -0.213 NA
ATOM     10  C   UNL     1      -1.163  -0.626  23.887  0.00  0.00    +0.201 A 
ATOM     13  C   UNL     1       0.876  -0.462  23.373  0.00  0.00    +0.111 A 
ATOM     14  C   UNL     1       0.419   0.808  23.692  0.00  0.00    +0.155 A 
ATOM     16  C   UNL     1       2.216  -0.624  22.993  0.00  0.00    +0.051 A 
ATOM     17  C   UNL     1       1.196   1.959  23.666  0.00  0.00    +0.050 A 
ATOM     20  C   UNL     1       3.032   0.515  22.955  0.00  0.00    +0.043 A 
ATOM     21  C   UNL     1       2.530   1.781  23.285  0.00  0.00    +0.024 A 
ENDBRANCH   6  10
BRANCH   4  11
ATOM     11  C   UNL     1      -5.655   0.869  24.784  0.00  0.00    +0.126 C 
BRANCH  11  12
ATOM      2  S   UNL     1      -3.940   2.773  23.703  0.00  0.00    -0.100 S 
ATOM     12  C   UNL     1      -4.973   2.202  24.943  0.00  0.00    +0.004 A 
ATOM     15  C   UNL     1      -5.055   3.087  25.996  0.00  0.00    +0.012 A 
ATOM     18  C   UNL     1      -4.259   4.249  25.781  0.00  0.00    +0.008 A 
ATOM     19  C   UNL     1      -3.599   4.208  24.573  0.00  0.00    +0.045 A 
ENDBRANCH  11  12
ENDBRANCH   4  11
TORSDOF 3
ENDMDL
MODEL 6
REMARK VINA RESULT:      -0.4      4.094      7.468
REMARK  Name = 45784179
REMARK  3 active torsions:
REMARK  status: ('A' for Active; 'I' for Inactive)
REMARK    1  A    between atoms: N_4  and  C_11
REMARK    2  A    between atoms: C_6  and  C_10
REMARK    3  A    between atoms: C_11  and  C_12
REMARK                            x       y       z     vdW  Elec       q    Type
REMARK                         _______ _______ _______ _____ _____    ______ ____
ROOT
ATOM      4  N   UNL     1      -3.020   0.057  24.660  0.00  0.00    -0.297 NA
ATOM      6  C   UNL     1      -1.062  -0.878  23.768  0.00  0.00    +0.090 C 
ATOM      7  C   UNL     1      -1.473  -1.654  25.032  0.00  0.00    +0.029 C 
ATOM      8  C   UNL     1      -1.869   0.425  23.832  0.00  0.00    +0.097 C 
ATOM      9  C   UNL     1      -2.459  -0.742  25.751  0.00  0.00    +0.085 C 
ENDROOT
BRANCH   6  10
ATOM      1 CL   UNL     1       6.504  -0.432  23.305  0.00  0.00    -0.083 Cl
ATOM      3  O   UNL     1       0.790   0.573  23.135  0.00  0.00    -0.439 OA
ATOM      5  N   UNL     1       1.411  -1.468  23.899  0.00  0.00    -0.213 NA
ATOM     10  C   UNL     1       0.424  -0.646  23.621  0.00  0.00    +0.201 A 
ATOM     13  C   UNL     1       2.530  -0.740  23.575  0.00  0.00    +0.111 A 
ATOM     14  C   UNL     1       2.153   0.511  23.107  0.00  0.00    +0.155 A 
ATOM     16  C   UNL     1       3.895  -1.054  23.644  0.00  0.00    +0.051 A 
ATOM     17  C   UNL     1       3.036   1.499  22.691  0.00  0.00    +0.050 A 
ATOM     20  C   UNL     1       4.816  -0.081  23.233  0.00  0.00    +0.043 A 
ATOM     21  C   UNL     1       4.393   1.170  22.766  0.00  0.00    +0.024 A 
ENDBRANCH   6  10
BRANCH   4  11
ATOM     11  C   UNL     1      -3.752   1.218  25.142  0.00  0.00    +0.126 C 
BRANCH  11  12
ATOM      2  S   UNL     1      -3.501   3.937  24.612  0.00  0.00    -0.100 S 
ATOM     12  C   UNL     1      -2.884   2.448  25.188  0.00  0.00    +0.004 A 
ATOM     15  C   UNL     1      -1.591   2.568  25.651  0.00  0.00    +0.012 A 
ATOM     18  C   UNL     1      -1.102   3.901  25.530  0.00  0.00    +0.008 A 
ATOM     19  C   UNL     1      -2.039   4.748  24.979  0.00  0.00    +0.045 A 
ENDBRANCH  11  12
ENDBRANCH   4  11
TORSDOF 3
ENDMDL
MODEL 7
REMARK VINA RESULT:      -0.4     16.456     17.809
REMARK  Name = 45784179
REMARK  3 active torsions:
REMARK  status: ('A' for Active; 'I' for Inactive)
REMARK    1  A    between atoms: N_4  and  C_11
REMARK    2  A    between atoms: C_6  and  C_10
REMARK    3  A    between atoms: C_11  and  C_12
REMARK                            x       y       z     vdW  Elec       q    Type
REMARK                         _______ _______ _______ _____ _____    ______ ____
ROOT
ATOM      4  N   UNL     1      -3.373 -10.725  11.736  0.00  0.00    -0.297 NA
ATOM      6  C   UNL     1      -5.337 -10.661  10.454  0.00  0.00    +0.090 C 
ATOM      7  C   UNL     1      -4.113 -10.529   9.529  0.00  0.00    +0.029 C 
ATOM      8  C   UNL     1      -4.792 -10.382  11.862  0.00  0.00    +0.097 C 
ATOM      9  C   UNL     1      -2.960 -10.157  10.452  0.00  0.00    +0.085 C 
ENDROOT
BRANCH   6  10
ATOM      1 CL   UNL     1     -10.718  -5.802   8.199  0.00  0.00    -0.083 Cl
ATOM      3  O   UNL     1      -7.709 -10.132  10.624  0.00  0.00    -0.439 OA
ATOM      5  N   UNL     1      -6.519  -8.712   9.321  0.00  0.00    -0.213 NA
ATOM     10  C   UNL     1      -6.507  -9.778  10.089  0.00  0.00    +0.201 A 
ATOM     13  C   UNL     1      -7.835  -8.319   9.343  0.00  0.00    +0.111 A 
ATOM     14  C   UNL     1      -8.567  -9.187  10.141  0.00  0.00    +0.155 A 
ATOM     16  C   UNL     1      -8.495  -7.248   8.724  0.00  0.00    +0.051 A 
ATOM     17  C   UNL     1      -9.931  -9.080  10.381  0.00  0.00    +0.050 A 
ATOM     20  C   UNL     1      -9.873  -7.108   8.944  0.00  0.00    +0.043 A 
ATOM     21  C   UNL     1     -10.575  -8.007   9.756  0.00  0.00    +0.024 A 
ENDBRANCH   6  10
BRANCH   4  11
ATOM     11  C   UNL     1      -2.580 -10.220  12.846  0.00  0.00    +0.126 C 
BRANCH  11  12
ATOM      2  S   UNL     1      -0.606  -8.357  13.453  0.00  0.00    -0.100 S 
ATOM     12  C   UNL     1      -1.393  -9.424  12.371  0.00  0.00    +0.004 A 
ATOM     15  C   UNL     1      -0.807  -9.420  11.123  0.00  0.00    +0.012 A 
ATOM     18  C   UNL     1       0.303  -8.530  11.056  0.00  0.00    +0.008 A 
ATOM     19  C   UNL     1       0.523  -7.886  12.254  0.00  0.00    +0.045 A 
ENDBRANCH  11  12
ENDBRANCH   4  11
TORSDOF 3
ENDMDL
