MODEL 1
REMARK VINA RESULT:      -5.5      0.000      0.000
REMARK  Name = 75536638
REMARK  7 active torsions:
REMARK  status: ('A' for Active; 'I' for Inactive)
REMARK    1  A    between atoms: O_3  and  C_9
REMARK    2  A    between atoms: N_5  and  C_8
REMARK    3  A    between atoms: N_5  and  C_13
REMARK    4  A    between atoms: N_6  and  C_12
REMARK    5  A    between atoms: C_10  and  C_12
REMARK    6  A    between atoms: C_13  and  C_14
REMARK    7  A    between atoms: C_15  and  C_17
REMARK                            x       y       z     vdW  Elec       q    Type
REMARK                         _______ _______ _______ _____ _____    ______ ____
ROOT
ATOM      2  O   UNL     1      -1.645  -2.572  23.841  0.00  0.00    -0.371 OA
ATOM      8  C   UNL     1      -0.046  -0.977  24.580  0.00  0.00    +0.111 C 
ATOM      9  C   UNL     1      -1.278  -0.887  25.461  0.00  0.00    +0.164 C 
ATOM     10  C   UNL     1      -1.915  -2.248  25.216  0.00  0.00    +0.165 C 
ATOM     11  C   UNL     1      -0.597  -1.709  23.366  0.00  0.00    +0.181 C 
ENDROOT
BRANCH   9   3
ATOM      3  O   UNL     1      -0.962  -0.691  26.825  0.00  0.00    -0.388 OA
ATOM     27  H   UNL     1      -0.645  -1.535  27.190  0.00  0.00    +0.210 HD
ENDBRANCH   9   3
BRANCH   8   5
ATOM      5  N   UNL     1       0.530   0.315  24.249  0.00  0.00    -0.303 NA
ATOM     26  H   UNL     1       1.355   0.173  23.665  0.00  0.00    +0.123 HD
BRANCH   5  13
ATOM     13  C   UNL     1      -0.425   1.144  23.521  0.00  0.00    +0.137 C 
BRANCH  13  14
ATOM      7  N   UNL     1      -1.288   2.226  25.523  0.00  0.00    -0.259 NA
ATOM     14  C   UNL     1      -0.775   2.395  24.284  0.00  0.00    +0.055 A 
ATOM     16  C   UNL     1      -0.559   3.631  23.695  0.00  0.00    +0.024 A 
ATOM     18  C   UNL     1      -0.891   4.767  24.425  0.00  0.00    +0.003 A 
ATOM     21  C   UNL     1      -1.598   3.353  26.202  0.00  0.00    +0.111 A 
ATOM     22  C   UNL     1      -1.421   4.633  25.704  0.00  0.00    +0.020 A 
ENDBRANCH  13  14
ENDBRANCH   5  13
ENDBRANCH   8   5
BRANCH  10  12
ATOM     12  C   UNL     1      -3.413  -2.265  25.462  0.00  0.00    +0.138 C 
BRANCH  12   6
ATOM      4  O   UNL     1      -3.991  -0.429  23.331  0.00  0.00    -0.270 OA
ATOM      6  N   UNL     1      -3.935  -0.935  25.594  0.00  0.00    -0.309 N 
ATOM     15  C   UNL     1      -4.186  -0.112  24.501  0.00  0.00    +0.244 C 
ATOM     28  H   UNL     1      -4.053  -0.586  26.539  0.00  0.00    +0.149 HD
BRANCH  15  17
ATOM      1  F   UNL     1      -6.137   5.024  25.659  0.00  0.00    -0.205 F 
ATOM     17  C   UNL     1      -4.702   1.247  24.807  0.00  0.00    +0.037 A 
ATOM     19  C   UNL     1      -4.241   2.347  24.085  0.00  0.00    +0.016 A 
ATOM     20  C   UNL     1      -5.648   1.423  25.818  0.00  0.00    +0.016 A 
ATOM     23  C   UNL     1      -4.725   3.624  24.373  0.00  0.00    +0.039 A 
ATOM     24  C   UNL     1      -6.132   2.698  26.106  0.00  0.00    +0.039 A 
ATOM     25  C   UNL     1      -5.671   3.798  25.383  0.00  0.00    +0.123 A 
ENDBRANCH  15  17
ENDBRANCH  12   6
ENDBRANCH  10  12
TORSDOF 7
ENDMDL
MODEL 2
REMARK VINA RESULT:      -4.5      2.813      5.240
REMARK  Name = 75536638
REMARK  7 active torsions:
REMARK  status: ('A' for Active; 'I' for Inactive)
REMARK    1  A    between atoms: O_3  and  C_9
REMARK    2  A    between atoms: N_5  and  C_8
REMARK    3  A    between atoms: N_5  and  C_13
REMARK    4  A    between atoms: N_6  and  C_12
REMARK    5  A    between atoms: C_10  and  C_12
REMARK    6  A    between atoms: C_13  and  C_14
REMARK    7  A    between atoms: C_15  and  C_17
REMARK                            x       y       z     vdW  Elec       q    Type
REMARK                         _______ _______ _______ _____ _____    ______ ____
ROOT
ATOM      2  O   UNL     1      -3.721   3.823  26.863  0.00  0.00    -0.371 OA
ATOM      8  C   UNL     1      -2.075   4.487  25.285  0.00  0.00    +0.111 C 
ATOM      9  C   UNL     1      -3.310   4.014  24.542  0.00  0.00    +0.164 C 
ATOM     10  C   UNL     1      -4.373   4.146  25.624  0.00  0.00    +0.165 C 
ATOM     11  C   UNL     1      -2.299   3.878  26.660  0.00  0.00    +0.181 C 
ENDROOT
BRANCH   9   3
ATOM      3  O   UNL     1      -3.607   4.809  23.411  0.00  0.00    -0.388 OA
ATOM     27  H   UNL     1      -2.773   5.014  22.954  0.00  0.00    +0.210 HD
ENDBRANCH   9   3
BRANCH   8   5
ATOM      5  N   UNL     1      -0.827   4.062  24.673  0.00  0.00    -0.303 NA
ATOM     26  H   UNL     1      -0.215   4.872  24.567  0.00  0.00    +0.123 HD
BRANCH   5  13
ATOM     13  C   UNL     1      -0.152   3.066  25.497  0.00  0.00    +0.137 C 
BRANCH  13  14
ATOM      7  N   UNL     1       1.169   1.788  23.903  0.00  0.00    -0.259 NA
ATOM     14  C   UNL     1       0.105   1.791  24.736  0.00  0.00    +0.055 A 
ATOM     16  C   UNL     1      -0.740   0.709  24.922  0.00  0.00    +0.024 A 
ATOM     18  C   UNL     1      -0.474  -0.454  24.207  0.00  0.00    +0.003 A 
ATOM     21  C   UNL     1       1.396   0.640  23.225  0.00  0.00    +0.111 A 
ATOM     22  C   UNL     1       0.612  -0.497  23.340  0.00  0.00    +0.020 A 
ENDBRANCH  13  14
ENDBRANCH   5  13
ENDBRANCH   8   5
BRANCH  10  12
ATOM     12  C   UNL     1      -5.563   3.227  25.414  0.00  0.00    +0.138 C 
BRANCH  12   6
ATOM      4  O   UNL     1      -3.999   1.812  23.466  0.00  0.00    -0.270 OA
ATOM      6  N   UNL     1      -5.173   1.848  25.467  0.00  0.00    -0.309 N 
ATOM     15  C   UNL     1      -4.410   1.242  24.473  0.00  0.00    +0.244 C 
ATOM     28  H   UNL     1      -5.539   1.301  26.238  0.00  0.00    +0.149 HD
BRANCH  15  17
ATOM      1  F   UNL     1      -3.283  -4.212  25.189  0.00  0.00    -0.205 F 
ATOM     17  C   UNL     1      -4.112  -0.201  24.662  0.00  0.00    +0.037 A 
ATOM     19  C   UNL     1      -3.587  -0.651  25.874  0.00  0.00    +0.016 A 
ATOM     20  C   UNL     1      -4.356  -1.106  23.629  0.00  0.00    +0.016 A 
ATOM     23  C   UNL     1      -3.306  -2.006  26.052  0.00  0.00    +0.039 A 
ATOM     24  C   UNL     1      -4.076  -2.460  23.806  0.00  0.00    +0.039 A 
ATOM     25  C   UNL     1      -3.551  -2.910  25.019  0.00  0.00    +0.123 A 
ENDBRANCH  15  17
ENDBRANCH  12   6
ENDBRANCH  10  12
TORSDOF 7
ENDMDL
MODEL 3
REMARK VINA RESULT:      -4.2      2.565      5.157
REMARK  Name = 75536638
REMARK  7 active torsions:
REMARK  status: ('A' for Active; 'I' for Inactive)
REMARK    1  A    between atoms: O_3  and  C_9
REMARK    2  A    between atoms: N_5  and  C_8
REMARK    3  A    between atoms: N_5  and  C_13
REMARK    4  A    between atoms: N_6  and  C_12
REMARK    5  A    between atoms: C_10  and  C_12
REMARK    6  A    between atoms: C_13  and  C_14
REMARK    7  A    between atoms: C_15  and  C_17
REMARK                            x       y       z     vdW  Elec       q    Type
REMARK                         _______ _______ _______ _____ _____    ______ ____
ROOT
ATOM      2  O   UNL     1      -0.122   3.257  23.625  0.00  0.00    -0.371 OA
ATOM      8  C   UNL     1      -0.991   3.849  25.755  0.00  0.00    +0.111 C 
ATOM      9  C   UNL     1      -0.371   2.467  25.841  0.00  0.00    +0.164 C 
ATOM     10  C   UNL     1       0.554   2.484  24.632  0.00  0.00    +0.165 C 
ATOM     11  C   UNL     1      -1.179   4.002  24.254  0.00  0.00    +0.181 C 
ENDROOT
BRANCH   9   3
ATOM      3  O   UNL     1       0.340   2.261  27.046  0.00  0.00    -0.388 OA
ATOM     27  H   UNL     1      -0.003   2.879  27.713  0.00  0.00    +0.210 HD
ENDBRANCH   9   3
BRANCH   8   5
ATOM      5  N   UNL     1      -2.234   3.978  26.497  0.00  0.00    -0.303 NA
ATOM     26  H   UNL     1      -2.095   4.630  27.270  0.00  0.00    +0.123 HD
BRANCH   5  13
ATOM     13  C   UNL     1      -3.305   4.480  25.643  0.00  0.00    +0.137 C 
BRANCH  13  14
ATOM      7  N   UNL     1      -5.218   3.256  26.517  0.00  0.00    -0.259 NA
ATOM     14  C   UNL     1      -4.399   3.461  25.461  0.00  0.00    +0.055 A 
ATOM     16  C   UNL     1      -4.514   2.799  24.249  0.00  0.00    +0.024 A 
ATOM     18  C   UNL     1      -5.535   1.865  24.112  0.00  0.00    +0.003 A 
ATOM     21  C   UNL     1      -6.200   2.342  26.345  0.00  0.00    +0.111 A 
ATOM     22  C   UNL     1      -6.399   1.627  25.175  0.00  0.00    +0.020 A 
ENDBRANCH  13  14
ENDBRANCH   5  13
ENDBRANCH   8   5
BRANCH  10  12
ATOM     12  C   UNL     1       0.865   1.100  24.093  0.00  0.00    +0.138 C 
BRANCH  12   6
ATOM      4  O   UNL     1      -0.340  -0.690  25.988  0.00  0.00    -0.270 OA
ATOM      6  N   UNL     1      -0.332   0.331  23.904  0.00  0.00    -0.309 N 
ATOM     15  C   UNL     1      -0.846  -0.515  24.882  0.00  0.00    +0.244 C 
ATOM     28  H   UNL     1      -0.760   0.376  22.987  0.00  0.00    +0.149 HD
BRANCH  15  17
ATOM      1  F   UNL     1      -5.506  -3.335  23.523  0.00  0.00    -0.205 F 
ATOM     17  C   UNL     1      -2.079  -1.261  24.522  0.00  0.00    +0.037 A 
ATOM     19  C   UNL     1      -2.060  -2.655  24.471  0.00  0.00    +0.016 A 
ATOM     20  C   UNL     1      -3.255  -0.568  24.235  0.00  0.00    +0.016 A 
ATOM     23  C   UNL     1      -3.218  -3.356  24.133  0.00  0.00    +0.039 A 
ATOM     24  C   UNL     1      -4.413  -1.268  23.897  0.00  0.00    +0.039 A 
ATOM     25  C   UNL     1      -4.394  -2.662  23.846  0.00  0.00    +0.123 A 
ENDBRANCH  15  17
ENDBRANCH  12   6
ENDBRANCH  10  12
TORSDOF 7
ENDMDL
MODEL 4
REMARK VINA RESULT:      -3.7     14.793     17.015
REMARK  Name = 75536638
REMARK  7 active torsions:
REMARK  status: ('A' for Active; 'I' for Inactive)
REMARK    1  A    between atoms: O_3  and  C_9
REMARK    2  A    between atoms: N_5  and  C_8
REMARK    3  A    between atoms: N_5  and  C_13
REMARK    4  A    between atoms: N_6  and  C_12
REMARK    5  A    between atoms: C_10  and  C_12
REMARK    6  A    between atoms: C_13  and  C_14
REMARK    7  A    between atoms: C_15  and  C_17
REMARK                            x       y       z     vdW  Elec       q    Type
REMARK                         _______ _______ _______ _____ _____    ______ ____
ROOT
ATOM      2  O   UNL     1      -2.745 -10.755  14.413  0.00  0.00    -0.371 OA
ATOM      8  C   UNL     1      -4.638 -10.781  15.848  0.00  0.00    +0.111 C 
ATOM      9  C   UNL     1      -5.048 -10.225  14.497  0.00  0.00    +0.164 C 
ATOM     10  C   UNL     1      -3.935 -10.762  13.608  0.00  0.00    +0.165 C 
ATOM     11  C   UNL     1      -3.127 -10.620  15.793  0.00  0.00    +0.181 C 
ENDROOT
BRANCH   9   3
ATOM      3  O   UNL     1      -6.321 -10.681  14.082  0.00  0.00    -0.388 OA
ATOM     27  H   UNL     1      -6.300 -10.811  13.118  0.00  0.00    +0.210 HD
ENDBRANCH   9   3
BRANCH   8   5
ATOM      5  N   UNL     1      -5.241 -10.086  16.973  0.00  0.00    -0.303 NA
ATOM     26  H   UNL     1      -4.563  -9.430  17.362  0.00  0.00    +0.123 HD
BRANCH   5  13
ATOM     13  C   UNL     1      -6.428  -9.347  16.558  0.00  0.00    +0.137 C 
BRANCH  13  14
ATOM      7  N   UNL     1      -7.422 -10.419  18.503  0.00  0.00    -0.259 NA
ATOM     14  C   UNL     1      -7.645  -9.752  17.349  0.00  0.00    +0.055 A 
ATOM     16  C   UNL     1      -8.904  -9.429  16.869  0.00  0.00    +0.024 A 
ATOM     18  C   UNL     1     -10.006  -9.816  17.623  0.00  0.00    +0.003 A 
ATOM     21  C   UNL     1      -8.518 -10.778  19.209  0.00  0.00    +0.111 A 
ATOM     22  C   UNL     1      -9.818 -10.503  18.816  0.00  0.00    +0.020 A 
ENDBRANCH  13  14
ENDBRANCH   5  13
ENDBRANCH   8   5
BRANCH  10  12
ATOM     12  C   UNL     1      -3.713  -9.932  12.356  0.00  0.00    +0.138 C 
BRANCH  12   6
ATOM      4  O   UNL     1      -4.006  -8.971   9.666  0.00  0.00    -0.270 OA
ATOM      6  N   UNL     1      -4.945  -9.697  11.660  0.00  0.00    -0.309 N 
ATOM     15  C   UNL     1      -4.993  -9.228  10.350  0.00  0.00    +0.244 C 
ATOM     28  H   UNL     1      -5.799  -9.823  12.192  0.00  0.00    +0.149 HD
BRANCH  15  17
ATOM      1  F   UNL     1     -10.111  -8.409   8.193  0.00  0.00    -0.205 F 
ATOM     17  C   UNL     1      -6.347  -9.012   9.780  0.00  0.00    +0.037 A 
ATOM     19  C   UNL     1      -6.558  -7.992   8.852  0.00  0.00    +0.016 A 
ATOM     20  C   UNL     1      -7.409  -9.827  10.172  0.00  0.00    +0.016 A 
ATOM     23  C   UNL     1      -7.829  -7.787   8.316  0.00  0.00    +0.039 A 
ATOM     24  C   UNL     1      -8.680  -9.624   9.637  0.00  0.00    +0.039 A 
ATOM     25  C   UNL     1      -8.890  -8.604   8.708  0.00  0.00    +0.123 A 
ENDBRANCH  15  17
ENDBRANCH  12   6
ENDBRANCH  10  12
TORSDOF 7
ENDMDL
MODEL 5
REMARK VINA RESULT:      -3.1      2.742      5.364
REMARK  Name = 75536638
REMARK  7 active torsions:
REMARK  status: ('A' for Active; 'I' for Inactive)
REMARK    1  A    between atoms: O_3  and  C_9
REMARK    2  A    between atoms: N_5  and  C_8
REMARK    3  A    between atoms: N_5  and  C_13
REMARK    4  A    between atoms: N_6  and  C_12
REMARK    5  A    between atoms: C_10  and  C_12
REMARK    6  A    between atoms: C_13  and  C_14
REMARK    7  A    between atoms: C_15  and  C_17
REMARK                            x       y       z     vdW  Elec       q    Type
REMARK                         _______ _______ _______ _____ _____    ______ ____
ROOT
ATOM      2  O   UNL     1      -5.493   3.246  26.399  0.00  0.00    -0.371 OA
ATOM      8  C   UNL     1      -4.073   4.353  24.850  0.00  0.00    +0.111 C 
ATOM      9  C   UNL     1      -4.311   2.932  24.375  0.00  0.00    +0.164 C 
ATOM     10  C   UNL     1      -5.586   2.580  25.129  0.00  0.00    +0.165 C 
ATOM     11  C   UNL     1      -4.467   4.251  26.315  0.00  0.00    +0.181 C 
ENDROOT
BRANCH   9   3
ATOM      3  O   UNL     1      -4.487   2.846  22.974  0.00  0.00    -0.388 OA
ATOM     27  H   UNL     1      -4.579   3.748  22.621  0.00  0.00    +0.210 HD
ENDBRANCH   9   3
BRANCH   8   5
ATOM      5  N   UNL     1      -2.705   4.809  24.663  0.00  0.00    -0.303 NA
ATOM     26  H   UNL     1      -2.653   5.804  24.883  0.00  0.00    +0.123 HD
BRANCH   5  13
ATOM     13  C   UNL     1      -1.786   4.085  25.533  0.00  0.00    +0.137 C 
BRANCH  13  14
ATOM      7  N   UNL     1      -1.731   2.442  23.739  0.00  0.00    -0.259 NA
ATOM     14  C   UNL     1      -1.085   2.969  24.803  0.00  0.00    +0.055 A 
ATOM     16  C   UNL     1       0.159   2.547  25.244  0.00  0.00    +0.024 A 
ATOM     18  C   UNL     1       0.781   1.517  24.548  0.00  0.00    +0.003 A 
ATOM     21  C   UNL     1      -1.095   1.443  23.087  0.00  0.00    +0.111 A 
ATOM     22  C   UNL     1       0.148   0.949  23.447  0.00  0.00    +0.020 A 
ENDBRANCH  13  14
ENDBRANCH   5  13
ENDBRANCH   8   5
BRANCH  10  12
ATOM     12  C   UNL     1      -5.765   1.088  25.343  0.00  0.00    +0.138 C 
BRANCH  12   6
ATOM      4  O   UNL     1      -4.800  -1.103  23.758  0.00  0.00    -0.270 OA
ATOM      6  N   UNL     1      -4.501   0.424  25.478  0.00  0.00    -0.309 N 
ATOM     15  C   UNL     1      -4.114  -0.634  24.662  0.00  0.00    +0.244 C 
ATOM     28  H   UNL     1      -3.915   0.717  26.253  0.00  0.00    +0.149 HD
BRANCH  15  17
ATOM      1  F   UNL     1       0.914  -2.890  25.738  0.00  0.00    -0.205 F 
ATOM     17  C   UNL     1      -2.784  -1.231  24.947  0.00  0.00    +0.037 A 
ATOM     19  C   UNL     1      -1.955  -0.658  25.911  0.00  0.00    +0.016 A 
ATOM     20  C   UNL     1      -2.363  -2.363  24.249  0.00  0.00    +0.016 A 
ATOM     23  C   UNL     1      -0.705  -1.218  26.179  0.00  0.00    +0.039 A 
ATOM     24  C   UNL     1      -1.115  -2.923  24.516  0.00  0.00    +0.039 A 
ATOM     25  C   UNL     1      -0.286  -2.351  25.481  0.00  0.00    +0.123 A 
ENDBRANCH  15  17
ENDBRANCH  12   6
ENDBRANCH  10  12
TORSDOF 7
ENDMDL
MODEL 6
REMARK VINA RESULT:      -2.9      4.074      6.852
REMARK  Name = 75536638
REMARK  7 active torsions:
REMARK  status: ('A' for Active; 'I' for Inactive)
REMARK    1  A    between atoms: O_3  and  C_9
REMARK    2  A    between atoms: N_5  and  C_8
REMARK    3  A    between atoms: N_5  and  C_13
REMARK    4  A    between atoms: N_6  and  C_12
REMARK    5  A    between atoms: C_10  and  C_12
REMARK    6  A    between atoms: C_13  and  C_14
REMARK    7  A    between atoms: C_15  and  C_17
REMARK                            x       y       z     vdW  Elec       q    Type
REMARK                         _______ _______ _______ _____ _____    ______ ____
ROOT
ATOM      2  O   UNL     1      -0.776   0.191  25.826  0.00  0.00    -0.371 OA
ATOM      8  C   UNL     1      -1.480   2.317  25.034  0.00  0.00    +0.111 C 
ATOM      9  C   UNL     1      -1.225   1.407  23.848  0.00  0.00    +0.164 C 
ATOM     10  C   UNL     1      -1.317   0.036  24.503  0.00  0.00    +0.165 C 
ATOM     11  C   UNL     1      -0.722   1.594  26.136  0.00  0.00    +0.181 C 
ENDROOT
BRANCH   9   3
ATOM      3  O   UNL     1      -2.184   1.566  22.820  0.00  0.00    -0.388 OA
ATOM     27  H   UNL     1      -1.720   1.563  21.966  0.00  0.00    +0.210 HD
ENDBRANCH   9   3
BRANCH   8   5
ATOM      5  N   UNL     1      -1.022   3.682  24.833  0.00  0.00    -0.303 NA
ATOM     26  H   UNL     1      -0.615   3.763  23.901  0.00  0.00    +0.123 HD
BRANCH   5  13
ATOM     13  C   UNL     1      -2.125   4.629  24.951  0.00  0.00    +0.137 C 
BRANCH  13  14
ATOM      7  N   UNL     1      -3.968   3.409  23.935  0.00  0.00    -0.259 NA
ATOM     14  C   UNL     1      -3.453   3.930  25.071  0.00  0.00    +0.055 A 
ATOM     16  C   UNL     1      -4.070   3.853  26.310  0.00  0.00    +0.024 A 
ATOM     18  C   UNL     1      -5.295   3.200  26.387  0.00  0.00    +0.003 A 
ATOM     21  C   UNL     1      -5.160   2.780  24.050  0.00  0.00    +0.111 A 
ATOM     22  C   UNL     1      -5.856   2.650  25.241  0.00  0.00    +0.020 A 
ENDBRANCH  13  14
ENDBRANCH   5  13
ENDBRANCH   8   5
BRANCH  10  12
ATOM     12  C   UNL     1      -0.548  -1.040  23.757  0.00  0.00    +0.138 C 
BRANCH  12   6
ATOM      4  O   UNL     1       1.257  -0.233  21.675  0.00  0.00    -0.270 OA
ATOM      6  N   UNL     1       0.869  -0.849  23.878  0.00  0.00    -0.309 N 
ATOM     15  C   UNL     1       1.669  -0.454  22.810  0.00  0.00    +0.244 C 
ATOM     28  H   UNL     1       1.284  -1.083  24.773  0.00  0.00    +0.149 HD
BRANCH  15  17
ATOM      1  F   UNL     1       7.161   0.032  23.875  0.00  0.00    -0.205 F 
ATOM     17  C   UNL     1       3.122  -0.326  23.092  0.00  0.00    +0.037 A 
ATOM     19  C   UNL     1       3.788   0.863  22.791  0.00  0.00    +0.016 A 
ATOM     20  C   UNL     1       3.821  -1.393  23.657  0.00  0.00    +0.016 A 
ATOM     23  C   UNL     1       5.153   0.984  23.055  0.00  0.00    +0.039 A 
ATOM     24  C   UNL     1       5.185  -1.272  23.921  0.00  0.00    +0.039 A 
ATOM     25  C   UNL     1       5.850  -0.084  23.620  0.00  0.00    +0.123 A 
ENDBRANCH  15  17
ENDBRANCH  12   6
ENDBRANCH  10  12
TORSDOF 7
ENDMDL
MODEL 7
REMARK VINA RESULT:      -2.8      1.561      4.234
REMARK  Name = 75536638
REMARK  7 active torsions:
REMARK  status: ('A' for Active; 'I' for Inactive)
REMARK    1  A    between atoms: O_3  and  C_9
REMARK    2  A    between atoms: N_5  and  C_8
REMARK    3  A    between atoms: N_5  and  C_13
REMARK    4  A    between atoms: N_6  and  C_12
REMARK    5  A    between atoms: C_10  and  C_12
REMARK    6  A    between atoms: C_13  and  C_14
REMARK    7  A    between atoms: C_15  and  C_17
REMARK                            x       y       z     vdW  Elec       q    Type
REMARK                         _______ _______ _______ _____ _____    ______ ____
ROOT
ATOM      2  O   UNL     1      -1.696  -2.649  24.915  0.00  0.00    -0.371 OA
ATOM      8  C   UNL     1      -3.684  -1.714  24.012  0.00  0.00    +0.111 C 
ATOM      9  C   UNL     1      -2.525  -0.776  23.733  0.00  0.00    +0.164 C 
ATOM     10  C   UNL     1      -1.341  -1.721  23.876  0.00  0.00    +0.165 C 
ATOM     11  C   UNL     1      -3.115  -2.570  25.133  0.00  0.00    +0.181 C 
ENDROOT
BRANCH   9   3
ATOM      3  O   UNL     1      -2.587  -0.199  22.443  0.00  0.00    -0.388 OA
ATOM     27  H   UNL     1      -3.517  -0.184  22.159  0.00  0.00    +0.210 HD
ENDBRANCH   9   3
BRANCH   8   5
ATOM      5  N   UNL     1      -4.911  -1.031  24.389  0.00  0.00    -0.303 NA
ATOM     26  H   UNL     1      -5.612  -1.724  24.651  0.00  0.00    +0.123 HD
BRANCH   5  13
ATOM     13  C   UNL     1      -4.687  -0.136  25.519  0.00  0.00    +0.137 C 
BRANCH  13  14
ATOM      7  N   UNL     1      -4.066   1.634  23.971  0.00  0.00    -0.259 NA
ATOM     14  C   UNL     1      -4.726   1.311  25.105  0.00  0.00    +0.055 A 
ATOM     16  C   UNL     1      -5.422   2.221  25.885  0.00  0.00    +0.024 A 
ATOM     18  C   UNL     1      -5.440   3.550  25.474  0.00  0.00    +0.003 A 
ATOM     21  C   UNL     1      -4.107   2.935  23.603  0.00  0.00    +0.111 A 
ATOM     22  C   UNL     1      -4.773   3.921  24.312  0.00  0.00    +0.020 A 
ENDBRANCH  13  14
ENDBRANCH   5  13
ENDBRANCH   8   5
BRANCH  10  12
ATOM     12  C   UNL     1      -0.048  -1.014  24.240  0.00  0.00    +0.138 C 
BRANCH  12   6
ATOM      4  O   UNL     1      -1.108   0.512  26.429  0.00  0.00    -0.270 OA
ATOM      6  N   UNL     1      -0.225   0.409  24.286  0.00  0.00    -0.309 N 
ATOM     15  C   UNL     1      -0.749   1.067  25.394  0.00  0.00    +0.244 C 
ATOM     28  H   UNL     1      -0.013   0.920  23.437  0.00  0.00    +0.149 HD
BRANCH  15  17
ATOM      1  F   UNL     1      -1.294   6.637  24.941  0.00  0.00    -0.205 F 
ATOM     17  C   UNL     1      -0.893   2.541  25.274  0.00  0.00    +0.037 A 
ATOM     19  C   UNL     1      -1.730   3.233  26.150  0.00  0.00    +0.016 A 
ATOM     20  C   UNL     1      -0.193   3.233  24.285  0.00  0.00    +0.016 A 
ATOM     23  C   UNL     1      -1.866   4.617  26.037  0.00  0.00    +0.039 A 
ATOM     24  C   UNL     1      -0.328   4.616  24.172  0.00  0.00    +0.039 A 
ATOM     25  C   UNL     1      -1.165   5.308  25.049  0.00  0.00    +0.123 A 
ENDBRANCH  15  17
ENDBRANCH  12   6
ENDBRANCH  10  12
TORSDOF 7
ENDMDL
MODEL 8
REMARK VINA RESULT:      -2.8      2.906      5.496
REMARK  Name = 75536638
REMARK  7 active torsions:
REMARK  status: ('A' for Active; 'I' for Inactive)
REMARK    1  A    between atoms: O_3  and  C_9
REMARK    2  A    between atoms: N_5  and  C_8
REMARK    3  A    between atoms: N_5  and  C_13
REMARK    4  A    between atoms: N_6  and  C_12
REMARK    5  A    between atoms: C_10  and  C_12
REMARK    6  A    between atoms: C_13  and  C_14
REMARK    7  A    between atoms: C_15  and  C_17
REMARK                            x       y       z     vdW  Elec       q    Type
REMARK                         _______ _______ _______ _____ _____    ______ ____
ROOT
ATOM      2  O   UNL     1      -5.555   0.370  25.300  0.00  0.00    -0.371 OA
ATOM      8  C   UNL     1      -5.151   2.598  24.583  0.00  0.00    +0.111 C 
ATOM      9  C   UNL     1      -3.918   1.759  24.309  0.00  0.00    +0.164 C 
ATOM     10  C   UNL     1      -4.509   0.356  24.315  0.00  0.00    +0.165 C 
ATOM     11  C   UNL     1      -5.881   1.737  25.603  0.00  0.00    +0.181 C 
ENDROOT
BRANCH   9   3
ATOM      3  O   UNL     1      -3.309   2.070  23.071  0.00  0.00    -0.388 OA
ATOM     27  H   UNL     1      -2.583   2.696  23.236  0.00  0.00    +0.210 HD
ENDBRANCH   9   3
BRANCH   8   5
ATOM      5  N   UNL     1      -4.853   3.932  25.078  0.00  0.00    -0.303 NA
ATOM     26  H   UNL     1      -5.724   4.389  25.349  0.00  0.00    +0.123 HD
BRANCH   5  13
ATOM     13  C   UNL     1      -3.969   3.876  26.237  0.00  0.00    +0.137 C 
BRANCH  13  14
ATOM      7  N   UNL     1      -1.693   3.016  26.261  0.00  0.00    -0.259 NA
ATOM     14  C   UNL     1      -2.520   3.999  25.842  0.00  0.00    +0.055 A 
ATOM     16  C   UNL     1      -2.114   5.086  25.085  0.00  0.00    +0.024 A 
ATOM     18  C   UNL     1      -0.771   5.170  24.736  0.00  0.00    +0.003 A 
ATOM     21  C   UNL     1      -0.394   3.131  25.901  0.00  0.00    +0.111 A 
ATOM     22  C   UNL     1       0.112   4.178  25.147  0.00  0.00    +0.020 A 
ENDBRANCH  13  14
ENDBRANCH   5  13
ENDBRANCH   8   5
BRANCH  10  12
ATOM     12  C   UNL     1      -3.496  -0.722  24.657  0.00  0.00    +0.138 C 
BRANCH  12   6
ATOM      4  O   UNL     1      -0.948  -0.311  25.915  0.00  0.00    -0.270 OA
ATOM      6  N   UNL     1      -2.243  -0.489  23.998  0.00  0.00    -0.309 N 
ATOM     15  C   UNL     1      -1.051  -0.299  24.691  0.00  0.00    +0.244 C 
ATOM     28  H   UNL     1      -2.271  -0.398  22.989  0.00  0.00    +0.149 HD
BRANCH  15  17
ATOM      1  F   UNL     1       3.511   0.666  21.564  0.00  0.00    -0.205 F 
ATOM     17  C   UNL     1       0.156  -0.044  23.864  0.00  0.00    +0.037 A 
ATOM     19  C   UNL     1       0.406  -0.825  22.736  0.00  0.00    +0.016 A 
ATOM     20  C   UNL     1       1.040   0.976  24.216  0.00  0.00    +0.016 A 
ATOM     23  C   UNL     1       1.539  -0.586  21.958  0.00  0.00    +0.039 A 
ATOM     24  C   UNL     1       2.173   1.216  23.440  0.00  0.00    +0.039 A 
ATOM     25  C   UNL     1       2.422   0.435  22.311  0.00  0.00    +0.123 A 
ENDBRANCH  15  17
ENDBRANCH  12   6
ENDBRANCH  10  12
TORSDOF 7
ENDMDL
MODEL 9
REMARK VINA RESULT:      -2.4      3.828      6.369
REMARK  Name = 75536638
REMARK  7 active torsions:
REMARK  status: ('A' for Active; 'I' for Inactive)
REMARK    1  A    between atoms: O_3  and  C_9
REMARK    2  A    between atoms: N_5  and  C_8
REMARK    3  A    between atoms: N_5  and  C_13
REMARK    4  A    between atoms: N_6  and  C_12
REMARK    5  A    between atoms: C_10  and  C_12
REMARK    6  A    between atoms: C_13  and  C_14
REMARK    7  A    between atoms: C_15  and  C_17
REMARK                            x       y       z     vdW  Elec       q    Type
REMARK                         _______ _______ _______ _____ _____    ______ ____
ROOT
ATOM      2  O   UNL     1      -0.958  -0.274  25.415  0.00  0.00    -0.371 OA
ATOM      8  C   UNL     1      -3.284   0.204  25.504  0.00  0.00    +0.111 C 
ATOM      9  C   UNL     1      -2.974  -0.506  24.200  0.00  0.00    +0.164 C 
ATOM     10  C   UNL     1      -1.650  -1.178  24.538  0.00  0.00    +0.165 C 
ATOM     11  C   UNL     1      -1.903   0.687  25.919  0.00  0.00    +0.181 C 
ENDROOT
BRANCH   9   3
ATOM      3  O   UNL     1      -3.966  -1.448  23.840  0.00  0.00    -0.388 OA
ATOM     27  H   UNL     1      -3.913  -1.597  22.881  0.00  0.00    +0.210 HD
ENDBRANCH   9   3
BRANCH   8   5
ATOM      5  N   UNL     1      -4.244   1.287  25.365  0.00  0.00    -0.303 NA
ATOM     26  H   UNL     1      -4.197   1.881  26.193  0.00  0.00    +0.123 HD
BRANCH   5  13
ATOM     13  C   UNL     1      -3.956   2.096  24.186  0.00  0.00    +0.137 C 
BRANCH  13  14
ATOM      7  N   UNL     1      -1.667   2.820  23.792  0.00  0.00    -0.259 NA
ATOM     14  C   UNL     1      -2.831   3.066  24.434  0.00  0.00    +0.055 A 
ATOM     16  C   UNL     1      -3.036   4.139  25.286  0.00  0.00    +0.024 A 
ATOM     18  C   UNL     1      -1.978   5.018  25.493  0.00  0.00    +0.003 A 
ATOM     21  C   UNL     1      -0.662   3.696  24.017  0.00  0.00    +0.111 A 
ATOM     22  C   UNL     1      -0.766   4.799  24.849  0.00  0.00    +0.020 A 
ENDBRANCH  13  14
ENDBRANCH   5  13
ENDBRANCH   8   5
BRANCH  10  12
ATOM     12  C   UNL     1      -0.793  -1.466  23.318  0.00  0.00    +0.138 C 
BRANCH  12   6
ATOM      4  O   UNL     1       1.063  -0.393  21.409  0.00  0.00    -0.270 OA
ATOM      6  N   UNL     1       0.581  -1.131  23.555  0.00  0.00    -0.309 N 
ATOM     15  C   UNL     1       1.412  -0.613  22.566  0.00  0.00    +0.244 C 
ATOM     28  H   UNL     1       0.952  -1.354  24.472  0.00  0.00    +0.149 HD
BRANCH  15  17
ATOM      1  F   UNL     1       6.723   0.412  24.070  0.00  0.00    -0.205 F 
ATOM     17  C   UNL     1       2.817  -0.342  22.964  0.00  0.00    +0.037 A 
ATOM     19  C   UNL     1       3.398   0.893  22.674  0.00  0.00    +0.016 A 
ATOM     20  C   UNL     1       3.556  -1.322  23.626  0.00  0.00    +0.016 A 
ATOM     23  C   UNL     1       4.718   1.148  23.047  0.00  0.00    +0.039 A 
ATOM     24  C   UNL     1       4.875  -1.068  24.000  0.00  0.00    +0.039 A 
ATOM     25  C   UNL     1       5.456   0.167  23.710  0.00  0.00    +0.123 A 
ENDBRANCH  15  17
ENDBRANCH  12   6
ENDBRANCH  10  12
TORSDOF 7
ENDMDL
MODEL 10
REMARK VINA RESULT:      -2.4      2.740      5.400
REMARK  Name = 75536638
REMARK  7 active torsions:
REMARK  status: ('A' for Active; 'I' for Inactive)
REMARK    1  A    between atoms: O_3  and  C_9
REMARK    2  A    between atoms: N_5  and  C_8
REMARK    3  A    between atoms: N_5  and  C_13
REMARK    4  A    between atoms: N_6  and  C_12
REMARK    5  A    between atoms: C_10  and  C_12
REMARK    6  A    between atoms: C_13  and  C_14
REMARK    7  A    between atoms: C_15  and  C_17
REMARK                            x       y       z     vdW  Elec       q    Type
REMARK                         _______ _______ _______ _____ _____    ______ ____
ROOT
ATOM      2  O   UNL     1      -6.253   1.698  26.003  0.00  0.00    -0.371 OA
ATOM      8  C   UNL     1      -5.151   3.684  25.304  0.00  0.00    +0.111 C 
ATOM      9  C   UNL     1      -4.593   2.508  24.525  0.00  0.00    +0.164 C 
ATOM     10  C   UNL     1      -5.713   1.489  24.687  0.00  0.00    +0.165 C 
ATOM     11  C   UNL     1      -5.809   2.980  26.481  0.00  0.00    +0.181 C 
ENDROOT
BRANCH   9   3
ATOM      3  O   UNL     1      -4.353   2.817  23.166  0.00  0.00    -0.388 OA
ATOM     27  H   UNL     1      -5.079   3.382  22.848  0.00  0.00    +0.210 HD
ENDBRANCH   9   3
BRANCH   8   5
ATOM      5  N   UNL     1      -4.141   4.646  25.713  0.00  0.00    -0.303 NA
ATOM     26  H   UNL     1      -4.596   5.425  26.189  0.00  0.00    +0.123 HD
BRANCH   5  13
ATOM     13  C   UNL     1      -3.174   4.038  26.621  0.00  0.00    +0.137 C 
BRANCH  13  14
ATOM      7  N   UNL     1      -1.604   4.397  24.798  0.00  0.00    -0.259 NA
ATOM     14  C   UNL     1      -1.884   3.700  25.921  0.00  0.00    +0.055 A 
ATOM     16  C   UNL     1      -1.065   2.715  26.449  0.00  0.00    +0.024 A 
ATOM     18  C   UNL     1       0.120   2.427  25.780  0.00  0.00    +0.003 A 
ATOM     21  C   UNL     1      -0.443   4.090  24.176  0.00  0.00    +0.111 A 
ATOM     22  C   UNL     1       0.444   3.124  24.621  0.00  0.00    +0.020 A 
ENDBRANCH  13  14
ENDBRANCH   5  13
ENDBRANCH   8   5
BRANCH  10  12
ATOM     12  C   UNL     1      -5.244   0.053  24.547  0.00  0.00    +0.138 C 
BRANCH  12   6
ATOM      4  O   UNL     1      -3.038  -0.954  26.085  0.00  0.00    -0.270 OA
ATOM      6  N   UNL     1      -3.871  -0.011  24.136  0.00  0.00    -0.309 N 
ATOM     15  C   UNL     1      -2.863  -0.517  24.951  0.00  0.00    +0.244 C 
ATOM     28  H   UNL     1      -3.647   0.398  23.236  0.00  0.00    +0.149 HD
BRANCH  15  17
ATOM      1  F   UNL     1       2.333  -0.416  22.825  0.00  0.00    -0.205 F 
ATOM     17  C   UNL     1      -1.488  -0.490  24.388  0.00  0.00    +0.037 A 
ATOM     19  C   UNL     1      -0.492  -1.294  24.942  0.00  0.00    +0.016 A 
ATOM     20  C   UNL     1      -1.193   0.340  23.306  0.00  0.00    +0.016 A 
ATOM     23  C   UNL     1       0.799  -1.269  24.415  0.00  0.00    +0.039 A 
ATOM     24  C   UNL     1       0.097   0.365  22.779  0.00  0.00    +0.039 A 
ATOM     25  C   UNL     1       1.093  -0.440  23.333  0.00  0.00    +0.123 A 
ENDBRANCH  15  17
ENDBRANCH  12   6
ENDBRANCH  10  12
TORSDOF 7
ENDMDL
