MODEL 1
REMARK VINA RESULT:       2.6      0.000      0.000
REMARK  Name = 25317500
REMARK  6 active torsions:
REMARK  status: ('A' for Active; 'I' for Inactive)
REMARK    1  A    between atoms: O_3  and  C_10
REMARK    2  A    between atoms: N_5  and  C_9
REMARK    3  A    between atoms: N_6  and  C_11
REMARK    4  A    between atoms: N_7  and  C_20
REMARK    5  A    between atoms: N_8  and  C_23
REMARK    6  A    between atoms: C_23  and  C_27
REMARK                            x       y       z     vdW  Elec       q    Type
REMARK                         _______ _______ _______ _____ _____    ______ ____
ROOT
ATOM      1  O   UNL     1      -4.345   3.431  23.473  0.00  0.00    -0.342 OA
ATOM      2  O   UNL     1      -4.623   4.893  25.253  0.00  0.00    -0.347 OA
ATOM      9  C   UNL     1      -2.763   3.347  25.291  0.00  0.00    +0.144 C 
ATOM     10  C   UNL     1      -3.625   2.292  26.019  0.00  0.00    +0.159 C 
ATOM     11  C   UNL     1      -4.847   1.824  25.198  0.00  0.00    +0.136 C 
ATOM     12  C   UNL     1      -3.645   4.255  24.414  0.00  0.00    +0.270 C 
ATOM     13  C   UNL     1      -5.414   2.921  24.274  0.00  0.00    +0.170 C 
ATOM     14  C   UNL     1      -5.844   4.181  24.999  0.00  0.00    +0.196 C 
ENDROOT
BRANCH  11   6
ATOM      4  O   UNL     1      -3.999  -0.747  26.198  0.00  0.00    -0.253 OA
ATOM      6  N   UNL     1      -4.502   0.654  24.417  0.00  0.00    -0.291 N 
ATOM      8  N   UNL     1      -3.833  -1.503  24.011  0.00  0.00    -0.296 N 
ATOM     19  C   UNL     1      -4.102  -0.549  24.988  0.00  0.00    +0.300 C 
ATOM     29  H   UNL     1      -4.480   0.740  23.406  0.00  0.00    +0.151 HD
ATOM     31  H   UNL     1      -3.966  -1.255  23.035  0.00  0.00    +0.151 HD
BRANCH   8  23
ATOM     23  C   UNL     1      -3.397  -2.844  24.326  0.00  0.00    +0.132 C 
BRANCH  23  27
ATOM     27  C   UNL     1      -1.909  -2.908  24.226  0.00  0.00    -0.016 C 
ATOM     28  C   UNL     1      -1.078  -2.399  25.144  0.00  0.00    +0.005 C 
ENDBRANCH  23  27
ENDBRANCH   8  23
ENDBRANCH  11   6
BRANCH   9   5
ATOM      5  N   UNL     1      -1.753   2.687  24.461  0.00  0.00    -0.290 NA
ATOM      7  N   UNL     1       0.777   1.491  23.890  0.00  0.00    -0.327 N 
ATOM     15  C   UNL     1      -1.411   1.371  25.015  0.00  0.00    +0.104 C 
ATOM     16  C   UNL     1      -0.546   3.517  24.361  0.00  0.00    +0.104 C 
ATOM     17  C   UNL     1      -0.398   0.646  24.125  0.00  0.00    +0.120 C 
ATOM     18  C   UNL     1       0.495   2.863  23.450  0.00  0.00    +0.120 C 
BRANCH   7  20
ATOM     20  C   UNL     1       1.983   0.907  23.488  0.00  0.00    +0.030 A 
ATOM     21  C   UNL     1       3.036   1.710  23.051  0.00  0.00    +0.023 A 
ATOM     22  C   UNL     1       2.134  -0.479  23.526  0.00  0.00    +0.023 A 
ATOM     24  C   UNL     1       4.240   1.128  22.653  0.00  0.00    +0.002 A 
ATOM     25  C   UNL     1       3.337  -1.062  23.129  0.00  0.00    +0.002 A 
ATOM     26  C   UNL     1       4.390  -0.258  22.693  0.00  0.00    +0.000 A 
ENDBRANCH   7  20
ENDBRANCH   9   5
BRANCH  10   3
ATOM      3  O   UNL     1      -4.091   2.879  27.242  0.00  0.00    -0.388 OA
ATOM     30  H   UNL     1      -4.482   3.743  27.023  0.00  0.00    +0.210 HD
ENDBRANCH  10   3
TORSDOF 6
ENDMDL
MODEL 2
REMARK VINA RESULT:       2.9      2.453      4.289
REMARK  Name = 25317500
REMARK  6 active torsions:
REMARK  status: ('A' for Active; 'I' for Inactive)
REMARK    1  A    between atoms: O_3  and  C_10
REMARK    2  A    between atoms: N_5  and  C_9
REMARK    3  A    between atoms: N_6  and  C_11
REMARK    4  A    between atoms: N_7  and  C_20
REMARK    5  A    between atoms: N_8  and  C_23
REMARK    6  A    between atoms: C_23  and  C_27
REMARK                            x       y       z     vdW  Elec       q    Type
REMARK                         _______ _______ _______ _____ _____    ______ ____
ROOT
ATOM      1  O   UNL     1      -2.108  -0.908  24.522  0.00  0.00    -0.342 OA
ATOM      2  O   UNL     1      -4.161  -0.256  23.660  0.00  0.00    -0.347 OA
ATOM      9  C   UNL     1      -2.192   1.024  23.082  0.00  0.00    +0.144 C 
ATOM     10  C   UNL     1      -2.408   1.949  24.301  0.00  0.00    +0.159 C 
ATOM     11  C   UNL     1      -2.330   1.209  25.655  0.00  0.00    +0.136 C 
ATOM     12  C   UNL     1      -2.760  -0.379  23.360  0.00  0.00    +0.270 C 
ATOM     13  C   UNL     1      -2.818  -0.253  25.577  0.00  0.00    +0.170 C 
ATOM     14  C   UNL     1      -4.245  -0.404  25.086  0.00  0.00    +0.196 C 
ENDROOT
BRANCH  11   6
ATOM      4  O   UNL     1      -0.976   3.475  26.820  0.00  0.00    -0.253 OA
ATOM      6  N   UNL     1      -0.977   1.248  26.166  0.00  0.00    -0.291 N 
ATOM      8  N   UNL     1       0.903   2.149  27.127  0.00  0.00    -0.296 N 
ATOM     19  C   UNL     1      -0.405   2.390  26.713  0.00  0.00    +0.300 C 
ATOM     29  H   UNL     1      -0.395   0.424  26.051  0.00  0.00    +0.151 HD
ATOM     31  H   UNL     1       1.285   1.215  27.017  0.00  0.00    +0.151 HD
BRANCH   8  23
ATOM     23  C   UNL     1       1.733   3.165  27.731  0.00  0.00    +0.132 C 
BRANCH  23  27
ATOM     27  C   UNL     1       2.206   2.679  29.060  0.00  0.00    -0.016 C 
ATOM     28  C   UNL     1       1.388   2.280  30.042  0.00  0.00    +0.005 C 
ENDBRANCH  23  27
ENDBRANCH   8  23
ENDBRANCH  11   6
BRANCH   9   5
ATOM      5  N   UNL     1      -0.764   0.928  22.769  0.00  0.00    -0.290 NA
ATOM      7  N   UNL     1       1.966   0.234  23.236  0.00  0.00    -0.327 N 
ATOM     15  C   UNL     1      -0.339  -0.476  22.735  0.00  0.00    +0.104 C 
ATOM     16  C   UNL     1       0.031   1.668  23.756  0.00  0.00    +0.104 C 
ATOM     17  C   UNL     1       1.139  -0.594  22.353  0.00  0.00    +0.120 C 
ATOM     18  C   UNL     1       1.520   1.622  23.408  0.00  0.00    +0.120 C 
BRANCH   7  20
ATOM     20  C   UNL     1       3.333  -0.037  23.362  0.00  0.00    +0.030 A 
ATOM     21  C   UNL     1       4.270   0.960  23.093  0.00  0.00    +0.023 A 
ATOM     22  C   UNL     1       3.759  -1.304  23.761  0.00  0.00    +0.023 A 
ATOM     24  C   UNL     1       5.633   0.692  23.222  0.00  0.00    +0.002 A 
ATOM     25  C   UNL     1       5.122  -1.573  23.891  0.00  0.00    +0.002 A 
ATOM     26  C   UNL     1       6.059  -0.576  23.622  0.00  0.00    +0.000 A 
ENDBRANCH   7  20
ENDBRANCH   9   5
BRANCH  10   3
ATOM      3  O   UNL     1      -3.707   2.542  24.173  0.00  0.00    -0.388 OA
ATOM     30  H   UNL     1      -4.362   1.872  24.439  0.00  0.00    +0.210 HD
ENDBRANCH  10   3
TORSDOF 6
ENDMDL
MODEL 3
REMARK VINA RESULT:       5.2      1.811      4.737
REMARK  Name = 25317500
REMARK  6 active torsions:
REMARK  status: ('A' for Active; 'I' for Inactive)
REMARK    1  A    between atoms: O_3  and  C_10
REMARK    2  A    between atoms: N_5  and  C_9
REMARK    3  A    between atoms: N_6  and  C_11
REMARK    4  A    between atoms: N_7  and  C_20
REMARK    5  A    between atoms: N_8  and  C_23
REMARK    6  A    between atoms: C_23  and  C_27
REMARK                            x       y       z     vdW  Elec       q    Type
REMARK                         _______ _______ _______ _____ _____    ______ ____
ROOT
ATOM      1  O   UNL     1      -1.877  -1.396  25.788  0.00  0.00    -0.342 OA
ATOM      2  O   UNL     1      -3.492  -2.691  24.740  0.00  0.00    -0.347 OA
ATOM      9  C   UNL     1      -2.258  -1.076  23.428  0.00  0.00    +0.144 C 
ATOM     10  C   UNL     1      -3.317   0.009  23.726  0.00  0.00    +0.159 C 
ATOM     11  C   UNL     1      -3.445   0.348  25.228  0.00  0.00    +0.136 C 
ATOM     12  C   UNL     1      -2.192  -2.098  24.578  0.00  0.00    +0.270 C 
ATOM     13  C   UNL     1      -3.151  -0.854  26.149  0.00  0.00    +0.170 C 
ATOM     14  C   UNL     1      -4.043  -2.056  25.904  0.00  0.00    +0.196 C 
ENDROOT
BRANCH  11   6
ATOM      4  O   UNL     1      -3.899   3.150  24.711  0.00  0.00    -0.253 OA
ATOM      6  N   UNL     1      -2.569   1.450  25.565  0.00  0.00    -0.291 N 
ATOM      8  N   UNL     1      -1.860   3.628  25.709  0.00  0.00    -0.296 N 
ATOM     19  C   UNL     1      -2.871   2.776  25.276  0.00  0.00    +0.300 C 
ATOM     29  H   UNL     1      -1.660   1.238  25.963  0.00  0.00    +0.151 HD
ATOM     31  H   UNL     1      -1.056   3.229  26.185  0.00  0.00    +0.151 HD
BRANCH   8  23
ATOM     23  C   UNL     1      -1.915   5.061  25.535  0.00  0.00    +0.132 C 
BRANCH  23  27
ATOM     27  C   UNL     1      -0.803   5.484  24.633  0.00  0.00    -0.016 C 
ATOM     28  C   UNL     1      -0.131   4.645  23.835  0.00  0.00    +0.005 C 
ENDBRANCH  23  27
ENDBRANCH   8  23
ENDBRANCH  11   6
BRANCH   9   5
ATOM      5  N   UNL     1      -0.943  -0.458  23.239  0.00  0.00    -0.290 NA
ATOM      7  N   UNL     1       1.907  -0.316  23.325  0.00  0.00    -0.327 N 
ATOM     15  C   UNL     1      -0.132  -1.249  22.307  0.00  0.00    +0.104 C 
ATOM     16  C   UNL     1      -0.245  -0.328  24.525  0.00  0.00    +0.104 C 
ATOM     17  C   UNL     1       1.223  -0.583  22.056  0.00  0.00    +0.120 C 
ATOM     18  C   UNL     1       1.106   0.368  24.348  0.00  0.00    +0.120 C 
BRANCH   7  20
ATOM     20  C   UNL     1       3.293  -0.123  23.339  0.00  0.00    +0.030 A 
ATOM     21  C   UNL     1       4.133  -1.130  23.815  0.00  0.00    +0.023 A 
ATOM     22  C   UNL     1       3.836   1.075  22.874  0.00  0.00    +0.023 A 
ATOM     24  C   UNL     1       5.515  -0.940  23.828  0.00  0.00    +0.002 A 
ATOM     25  C   UNL     1       5.218   1.265  22.885  0.00  0.00    +0.002 A 
ATOM     26  C   UNL     1       6.057   0.259  23.361  0.00  0.00    +0.000 A 
ENDBRANCH   7  20
ENDBRANCH   9   5
BRANCH  10   3
ATOM      3  O   UNL     1      -4.582  -0.477  23.255  0.00  0.00    -0.388 OA
ATOM     30  H   UNL     1      -5.126  -0.683  24.035  0.00  0.00    +0.210 HD
ENDBRANCH  10   3
TORSDOF 6
ENDMDL
MODEL 4
REMARK VINA RESULT:       6.4      1.709      4.889
REMARK  Name = 25317500
REMARK  6 active torsions:
REMARK  status: ('A' for Active; 'I' for Inactive)
REMARK    1  A    between atoms: O_3  and  C_10
REMARK    2  A    between atoms: N_5  and  C_9
REMARK    3  A    between atoms: N_6  and  C_11
REMARK    4  A    between atoms: N_7  and  C_20
REMARK    5  A    between atoms: N_8  and  C_23
REMARK    6  A    between atoms: C_23  and  C_27
REMARK                            x       y       z     vdW  Elec       q    Type
REMARK                         _______ _______ _______ _____ _____    ______ ____
ROOT
ATOM      1  O   UNL     1      -4.125   3.393  26.624  0.00  0.00    -0.342 OA
ATOM      2  O   UNL     1      -5.077   5.430  26.050  0.00  0.00    -0.347 OA
ATOM      9  C   UNL     1      -4.522   3.864  24.292  0.00  0.00    +0.144 C 
ATOM     10  C   UNL     1      -3.113   4.482  24.156  0.00  0.00    +0.159 C 
ATOM     11  C   UNL     1      -2.259   4.354  25.438  0.00  0.00    +0.136 C 
ATOM     12  C   UNL     1      -5.049   4.028  25.730  0.00  0.00    +0.270 C 
ATOM     13  C   UNL     1      -3.098   4.383  26.732  0.00  0.00    +0.170 C 
ATOM     14  C   UNL     1      -3.937   5.636  26.899  0.00  0.00    +0.196 C 
ENDROOT
BRANCH  11   6
ATOM      4  O   UNL     1       0.001   3.812  23.727  0.00  0.00    -0.253 OA
ATOM      6  N   UNL     1      -1.471   3.140  25.391  0.00  0.00    -0.291 N 
ATOM      8  N   UNL     1       0.184   1.712  24.694  0.00  0.00    -0.296 N 
ATOM     19  C   UNL     1      -0.393   2.967  24.530  0.00  0.00    +0.300 C 
ATOM     29  H   UNL     1      -1.766   2.353  25.960  0.00  0.00    +0.151 HD
ATOM     31  H   UNL     1      -0.197   1.086  25.398  0.00  0.00    +0.151 HD
BRANCH   8  23
ATOM     23  C   UNL     1       1.323   1.267  23.923  0.00  0.00    +0.132 C 
BRANCH  23  27
ATOM     27  C   UNL     1       0.922   0.089  23.099  0.00  0.00    -0.016 C 
ATOM     28  C   UNL     1       1.588  -0.322  22.013  0.00  0.00    +0.005 C 
ENDBRANCH  23  27
ENDBRANCH   8  23
ENDBRANCH  11   6
BRANCH   9   5
ATOM      5  N   UNL     1      -4.487   2.443  23.938  0.00  0.00    -0.290 NA
ATOM      7  N   UNL     1      -3.548  -0.251  24.057  0.00  0.00    -0.327 N 
ATOM     15  C   UNL     1      -4.764   1.612  25.114  0.00  0.00    +0.104 C 
ATOM     16  C   UNL     1      -3.180   2.087  23.370  0.00  0.00    +0.104 C 
ATOM     17  C   UNL     1      -4.786   0.126  24.745  0.00  0.00    +0.120 C 
ATOM     18  C   UNL     1      -3.150   0.618  22.943  0.00  0.00    +0.120 C 
BRANCH   7  20
ATOM     20  C   UNL     1      -3.159  -1.595  24.014  0.00  0.00    +0.030 A 
ATOM     21  C   UNL     1      -4.114  -2.591  23.814  0.00  0.00    +0.023 A 
ATOM     22  C   UNL     1      -1.816  -1.938  24.167  0.00  0.00    +0.023 A 
ATOM     24  C   UNL     1      -3.728  -3.931  23.767  0.00  0.00    +0.002 A 
ATOM     25  C   UNL     1      -1.428  -3.277  24.119  0.00  0.00    +0.002 A 
ATOM     26  C   UNL     1      -2.384  -4.273  23.920  0.00  0.00    +0.000 A 
ENDBRANCH   7  20
ENDBRANCH   9   5
BRANCH  10   3
ATOM      3  O   UNL     1      -3.274   5.873  23.848  0.00  0.00    -0.388 OA
ATOM     30  H   UNL     1      -3.709   6.293  24.610  0.00  0.00    +0.210 HD
ENDBRANCH  10   3
TORSDOF 6
ENDMDL
