MODEL 1
REMARK VINA RESULT:      -0.6      0.000      0.000
REMARK  Name = 28960500
REMARK  8 active torsions:
REMARK  status: ('A' for Active; 'I' for Inactive)
REMARK    1  A    between atoms: O_3  and  C_10
REMARK    2  A    between atoms: O_5  and  C_27
REMARK    3  A    between atoms: O_5  and  C_28
REMARK    4  A    between atoms: N_6  and  C_9
REMARK    5  A    between atoms: N_7  and  C_11
REMARK    6  A    between atoms: N_7  and  C_20
REMARK    7  A    between atoms: C_19  and  C_21
REMARK    8  A    between atoms: C_20  and  C_22
REMARK                            x       y       z     vdW  Elec       q    Type
REMARK                         _______ _______ _______ _____ _____    ______ ____
ROOT
ATOM      1  O   UNL     1      -5.248   2.876  26.475  0.00  0.00    -0.343 OA
ATOM      2  O   UNL     1      -6.337   4.124  24.852  0.00  0.00    -0.347 OA
ATOM      9  C   UNL     1      -4.515   2.682  24.183  0.00  0.00    +0.143 C 
ATOM     10  C   UNL     1      -3.501   3.829  24.394  0.00  0.00    +0.156 C 
ATOM     11  C   UNL     1      -3.422   4.336  25.856  0.00  0.00    +0.116 C 
ATOM     12  C   UNL     1      -5.723   2.852  25.123  0.00  0.00    +0.270 C 
ATOM     13  C   UNL     1      -4.775   4.222  26.596  0.00  0.00    +0.166 C 
ATOM     14  C   UNL     1      -5.914   4.974  25.930  0.00  0.00    +0.196 C 
ENDROOT
BRANCH   9   6
ATOM      6  N   UNL     1      -3.883   1.383  24.413  0.00  0.00    -0.293 NA
ATOM     15  C   UNL     1      -4.747   0.530  25.241  0.00  0.00    +0.085 C 
ATOM     16  C   UNL     1      -3.564   0.732  23.134  0.00  0.00    +0.085 C 
ATOM     17  C   UNL     1      -4.075  -0.813  25.537  0.00  0.00    +0.028 C 
ATOM     18  C   UNL     1      -2.853  -0.604  23.357  0.00  0.00    +0.028 C 
ATOM     19  C   UNL     1      -3.679  -1.530  24.248  0.00  0.00    +0.077 C 
BRANCH  19  21
ATOM      4  O   UNL     1      -3.388  -3.733  25.123  0.00  0.00    -0.276 OA
ATOM      8  N   UNL     1      -1.568  -2.684  24.185  0.00  0.00    -0.329 N 
ATOM     21  C   UNL     1      -2.887  -2.762  24.563  0.00  0.00    +0.214 C 
ATOM     31  H   UNL     1      -1.177  -1.862  23.735  0.00  0.00    +0.145 HD
ATOM     32  H   UNL     1      -0.932  -3.456  24.352  0.00  0.00    +0.145 HD
ENDBRANCH  19  21
ENDBRANCH   9   6
BRANCH  10   3
ATOM      3  O   UNL     1      -3.901   4.922  23.555  0.00  0.00    -0.388 OA
ATOM     30  H   UNL     1      -3.487   4.790  22.684  0.00  0.00    +0.210 HD
ENDBRANCH  10   3
BRANCH  11   7
ATOM      7  N   UNL     1      -2.422   3.574  26.612  0.00  0.00    -0.305 NA
ATOM     29  H   UNL     1      -2.644   2.579  26.566  0.00  0.00    +0.123 HD
BRANCH   7  20
ATOM     20  C   UNL     1      -1.090   3.817  26.085  0.00  0.00    +0.116 C 
BRANCH  20  22
ATOM     22  C   UNL     1      -0.566   2.633  25.317  0.00  0.00    -0.033 A 
ATOM     23  C   UNL     1      -0.832   1.339  25.762  0.00  0.00    +0.008 A 
ATOM     24  C   UNL     1       0.183   2.832  24.158  0.00  0.00    +0.008 A 
ATOM     25  C   UNL     1      -0.348   0.242  25.049  0.00  0.00    +0.046 A 
ATOM     26  C   UNL     1       0.667   1.736  23.444  0.00  0.00    +0.046 A 
ATOM     27  C   UNL     1       0.402   0.441  23.890  0.00  0.00    +0.120 A 
BRANCH  27   5
ATOM      5  O   UNL     1       0.873  -0.630  23.193  0.00  0.00    -0.495 OA
ATOM     28  C   UNL     1       1.932  -0.386  22.269  0.00  0.00    +0.277 C 
ENDBRANCH  27   5
ENDBRANCH  20  22
ENDBRANCH   7  20
ENDBRANCH  11   7
TORSDOF 7
ENDMDL
MODEL 2
REMARK VINA RESULT:      -0.1      2.189      5.581
REMARK  Name = 28960500
REMARK  8 active torsions:
REMARK  status: ('A' for Active; 'I' for Inactive)
REMARK    1  A    between atoms: O_3  and  C_10
REMARK    2  A    between atoms: O_5  and  C_27
REMARK    3  A    between atoms: O_5  and  C_28
REMARK    4  A    between atoms: N_6  and  C_9
REMARK    5  A    between atoms: N_7  and  C_11
REMARK    6  A    between atoms: N_7  and  C_20
REMARK    7  A    between atoms: C_19  and  C_21
REMARK    8  A    between atoms: C_20  and  C_22
REMARK                            x       y       z     vdW  Elec       q    Type
REMARK                         _______ _______ _______ _____ _____    ______ ____
ROOT
ATOM      1  O   UNL     1      -2.551  -1.001  23.262  0.00  0.00    -0.343 OA
ATOM      2  O   UNL     1      -4.430  -1.979  24.204  0.00  0.00    -0.347 OA
ATOM      9  C   UNL     1      -3.562   0.054  25.184  0.00  0.00    +0.143 C 
ATOM     10  C   UNL     1      -2.654  -0.765  26.130  0.00  0.00    +0.156 C 
ATOM     11  C   UNL     1      -1.601  -1.631  25.395  0.00  0.00    +0.116 C 
ATOM     12  C   UNL     1      -3.815  -0.721  23.878  0.00  0.00    +0.270 C 
ATOM     13  C   UNL     1      -2.099  -2.130  24.020  0.00  0.00    +0.166 C 
ATOM     14  C   UNL     1      -3.377  -2.948  24.080  0.00  0.00    +0.196 C 
ENDROOT
BRANCH   9   6
ATOM      6  N   UNL     1      -2.961   1.354  24.885  0.00  0.00    -0.293 NA
ATOM     15  C   UNL     1      -3.952   2.427  25.046  0.00  0.00    +0.085 C 
ATOM     16  C   UNL     1      -1.785   1.585  25.736  0.00  0.00    +0.085 C 
ATOM     17  C   UNL     1      -3.353   3.788  24.683  0.00  0.00    +0.028 C 
ATOM     18  C   UNL     1      -1.113   2.916  25.398  0.00  0.00    +0.028 C 
ATOM     19  C   UNL     1      -2.098   4.079  25.505  0.00  0.00    +0.077 C 
BRANCH  19  21
ATOM      4  O   UNL     1      -1.997   6.432  25.108  0.00  0.00    -0.276 OA
ATOM      8  N   UNL     1      -0.200   5.141  24.475  0.00  0.00    -0.329 N 
ATOM     21  C   UNL     1      -1.445   5.338  25.025  0.00  0.00    +0.214 C 
ATOM     31  H   UNL     1       0.227   4.222  24.407  0.00  0.00    +0.145 HD
ATOM     32  H   UNL     1       0.337   5.920  24.111  0.00  0.00    +0.145 HD
ENDBRANCH  19  21
ENDBRANCH   9   6
BRANCH  10   3
ATOM      3  O   UNL     1      -3.499  -1.632  26.899  0.00  0.00    -0.388 OA
ATOM     30  H   UNL     1      -4.421  -1.377  26.723  0.00  0.00    +0.210 HD
ENDBRANCH  10   3
BRANCH  11   7
ATOM      7  N   UNL     1      -0.365  -0.869  25.184  0.00  0.00    -0.305 NA
ATOM     29  H   UNL     1       0.409  -1.335  25.659  0.00  0.00    +0.123 HD
BRANCH   7  20
ATOM     20  C   UNL     1      -0.081  -0.739  23.766  0.00  0.00    +0.116 C 
BRANCH  20  22
ATOM     22  C   UNL     1       1.364  -0.405  23.511  0.00  0.00    -0.033 A 
ATOM     23  C   UNL     1       1.721   0.873  23.084  0.00  0.00    +0.008 A 
ATOM     24  C   UNL     1       2.348  -1.375  23.706  0.00  0.00    +0.008 A 
ATOM     25  C   UNL     1       3.061   1.183  22.851  0.00  0.00    +0.046 A 
ATOM     26  C   UNL     1       3.688  -1.066  23.474  0.00  0.00    +0.046 A 
ATOM     27  C   UNL     1       4.044   0.213  23.045  0.00  0.00    +0.120 A 
BRANCH  27   5
ATOM      5  O   UNL     1       5.352   0.515  22.819  0.00  0.00    -0.495 OA
ATOM     28  C   UNL     1       6.327  -0.253  23.523  0.00  0.00    +0.277 C 
ENDBRANCH  27   5
ENDBRANCH  20  22
ENDBRANCH   7  20
ENDBRANCH  11   7
TORSDOF 7
ENDMDL
MODEL 3
REMARK VINA RESULT:       0.5      1.862      2.880
REMARK  Name = 28960500
REMARK  8 active torsions:
REMARK  status: ('A' for Active; 'I' for Inactive)
REMARK    1  A    between atoms: O_3  and  C_10
REMARK    2  A    between atoms: O_5  and  C_27
REMARK    3  A    between atoms: O_5  and  C_28
REMARK    4  A    between atoms: N_6  and  C_9
REMARK    5  A    between atoms: N_7  and  C_11
REMARK    6  A    between atoms: N_7  and  C_20
REMARK    7  A    between atoms: C_19  and  C_21
REMARK    8  A    between atoms: C_20  and  C_22
REMARK                            x       y       z     vdW  Elec       q    Type
REMARK                         _______ _______ _______ _____ _____    ______ ____
ROOT
ATOM      1  O   UNL     1      -1.637   2.621  25.717  0.00  0.00    -0.343 OA
ATOM      2  O   UNL     1      -2.833   4.577  26.069  0.00  0.00    -0.347 OA
ATOM      9  C   UNL     1      -3.972   2.673  25.106  0.00  0.00    +0.143 C 
ATOM     10  C   UNL     1      -3.604   3.147  23.681  0.00  0.00    +0.156 C 
ATOM     11  C   UNL     1      -2.080   3.195  23.410  0.00  0.00    +0.116 C 
ATOM     12  C   UNL     1      -2.911   3.142  26.119  0.00  0.00    +0.270 C 
ATOM     13  C   UNL     1      -1.263   3.533  24.678  0.00  0.00    +0.166 C 
ATOM     14  C   UNL     1      -1.637   4.855  25.325  0.00  0.00    +0.196 C 
ENDROOT
BRANCH   9   6
ATOM      6  N   UNL     1      -4.096   1.216  25.152  0.00  0.00    -0.293 NA
ATOM     15  C   UNL     1      -4.284   0.673  23.800  0.00  0.00    +0.085 C 
ATOM     16  C   UNL     1      -2.923   0.620  25.806  0.00  0.00    +0.085 C 
ATOM     17  C   UNL     1      -4.472  -0.845  23.837  0.00  0.00    +0.028 C 
ATOM     18  C   UNL     1      -3.063  -0.900  25.911  0.00  0.00    +0.028 C 
ATOM     19  C   UNL     1      -3.302  -1.531  24.540  0.00  0.00    +0.077 C 
BRANCH  19  21
ATOM      4  O   UNL     1      -3.253  -3.613  25.711  0.00  0.00    -0.276 OA
ATOM      8  N   UNL     1      -4.209  -3.561  23.619  0.00  0.00    -0.329 N 
ATOM     21  C   UNL     1      -3.581  -2.994  24.702  0.00  0.00    +0.214 C 
ATOM     31  H   UNL     1      -4.457  -3.028  22.792  0.00  0.00    +0.145 HD
ATOM     32  H   UNL     1      -4.446  -4.547  23.612  0.00  0.00    +0.145 HD
ENDBRANCH  19  21
ENDBRANCH   9   6
BRANCH  10   3
ATOM      3  O   UNL     1      -4.138   4.467  23.512  0.00  0.00    -0.388 OA
ATOM     30  H   UNL     1      -5.082   4.377  23.294  0.00  0.00    +0.210 HD
ENDBRANCH  10   3
BRANCH  11   7
ATOM      7  N   UNL     1      -1.608   1.905  22.893  0.00  0.00    -0.305 NA
ATOM     29  H   UNL     1      -1.036   2.058  22.062  0.00  0.00    +0.123 HD
BRANCH   7  20
ATOM     20  C   UNL     1      -0.846   1.197  23.907  0.00  0.00    +0.116 C 
BRANCH  20  22
ATOM     22  C   UNL     1       0.565   0.923  23.456  0.00  0.00    -0.033 A 
ATOM     23  C   UNL     1       1.580   1.833  23.745  0.00  0.00    +0.008 A 
ATOM     24  C   UNL     1       0.855  -0.245  22.751  0.00  0.00    +0.008 A 
ATOM     25  C   UNL     1       2.887   1.577  23.330  0.00  0.00    +0.046 A 
ATOM     26  C   UNL     1       2.161  -0.502  22.336  0.00  0.00    +0.046 A 
ATOM     27  C   UNL     1       3.177   0.410  22.625  0.00  0.00    +0.120 A 
BRANCH  27   5
ATOM      5  O   UNL     1       4.453   0.159  22.220  0.00  0.00    -0.495 OA
ATOM     28  C   UNL     1       5.452   0.077  23.235  0.00  0.00    +0.277 C 
ENDBRANCH  27   5
ENDBRANCH  20  22
ENDBRANCH   7  20
ENDBRANCH  11   7
TORSDOF 7
ENDMDL
MODEL 4
REMARK VINA RESULT:       0.5      1.774      5.673
REMARK  Name = 28960500
REMARK  8 active torsions:
REMARK  status: ('A' for Active; 'I' for Inactive)
REMARK    1  A    between atoms: O_3  and  C_10
REMARK    2  A    between atoms: O_5  and  C_27
REMARK    3  A    between atoms: O_5  and  C_28
REMARK    4  A    between atoms: N_6  and  C_9
REMARK    5  A    between atoms: N_7  and  C_11
REMARK    6  A    between atoms: N_7  and  C_20
REMARK    7  A    between atoms: C_19  and  C_21
REMARK    8  A    between atoms: C_20  and  C_22
REMARK                            x       y       z     vdW  Elec       q    Type
REMARK                         _______ _______ _______ _____ _____    ______ ____
ROOT
ATOM      1  O   UNL     1      -2.257  -1.073  23.537  0.00  0.00    -0.343 OA
ATOM      2  O   UNL     1      -3.502  -3.028  23.595  0.00  0.00    -0.347 OA
ATOM      9  C   UNL     1      -4.052  -1.253  25.142  0.00  0.00    +0.143 C 
ATOM     10  C   UNL     1      -3.076  -1.835  26.190  0.00  0.00    +0.156 C 
ATOM     11  C   UNL     1      -1.598  -1.857  25.728  0.00  0.00    +0.116 C 
ATOM     12  C   UNL     1      -3.579  -1.598  23.717  0.00  0.00    +0.270 C 
ATOM     13  C   UNL     1      -1.457  -2.058  24.202  0.00  0.00    +0.166 C 
ATOM     14  C   UNL     1      -2.101  -3.330  23.680  0.00  0.00    +0.196 C 
ENDROOT
BRANCH   9   6
ATOM      6  N   UNL     1      -4.168   0.198  25.291  0.00  0.00    -0.293 NA
ATOM     15  C   UNL     1      -3.894   0.870  24.014  0.00  0.00    +0.085 C 
ATOM     16  C   UNL     1      -5.498   0.557  25.806  0.00  0.00    +0.085 C 
ATOM     17  C   UNL     1      -3.957   2.391  24.167  0.00  0.00    +0.028 C 
ATOM     18  C   UNL     1      -5.617   2.066  26.020  0.00  0.00    +0.028 C 
ATOM     19  C   UNL     1      -5.304   2.835  24.737  0.00  0.00    +0.077 C 
BRANCH  19  21
ATOM      4  O   UNL     1      -4.431   5.051  24.552  0.00  0.00    -0.276 OA
ATOM      8  N   UNL     1      -6.290   4.718  25.866  0.00  0.00    -0.329 N 
ATOM     21  C   UNL     1      -5.286   4.305  25.024  0.00  0.00    +0.214 C 
ATOM     31  H   UNL     1      -6.976   4.076  26.252  0.00  0.00    +0.145 HD
ATOM     32  H   UNL     1      -6.377   5.692  26.136  0.00  0.00    +0.145 HD
ENDBRANCH  19  21
ENDBRANCH   9   6
BRANCH  10   3
ATOM      3  O   UNL     1      -3.487  -3.182  26.464  0.00  0.00    -0.388 OA
ATOM     30  H   UNL     1      -4.439  -3.244  26.273  0.00  0.00    +0.210 HD
ENDBRANCH  10   3
BRANCH  11   7
ATOM      7  N   UNL     1      -0.928  -0.602  26.087  0.00  0.00    -0.305 NA
ATOM     29  H   UNL     1      -0.260  -0.774  26.839  0.00  0.00    +0.123 HD
BRANCH   7  20
ATOM     20  C   UNL     1      -0.252  -0.036  24.933  0.00  0.00    +0.116 C 
BRANCH  20  22
ATOM     22  C   UNL     1      -0.364   1.465  24.897  0.00  0.00    -0.033 A 
ATOM     23  C   UNL     1      -0.919   2.150  25.977  0.00  0.00    +0.008 A 
ATOM     24  C   UNL     1       0.090   2.171  23.783  0.00  0.00    +0.008 A 
ATOM     25  C   UNL     1      -1.021   3.540  25.945  0.00  0.00    +0.046 A 
ATOM     26  C   UNL     1      -0.011   3.561  23.750  0.00  0.00    +0.046 A 
ATOM     27  C   UNL     1      -0.567   4.246  24.831  0.00  0.00    +0.120 A 
BRANCH  27   5
ATOM      5  O   UNL     1      -0.665   5.604  24.799  0.00  0.00    -0.495 OA
ATOM     28  C   UNL     1      -1.932   6.170  25.131  0.00  0.00    +0.277 C 
ENDBRANCH  27   5
ENDBRANCH  20  22
ENDBRANCH   7  20
ENDBRANCH  11   7
TORSDOF 7
ENDMDL
MODEL 5
REMARK VINA RESULT:       0.6      1.671      6.705
REMARK  Name = 28960500
REMARK  8 active torsions:
REMARK  status: ('A' for Active; 'I' for Inactive)
REMARK    1  A    between atoms: O_3  and  C_10
REMARK    2  A    between atoms: O_5  and  C_27
REMARK    3  A    between atoms: O_5  and  C_28
REMARK    4  A    between atoms: N_6  and  C_9
REMARK    5  A    between atoms: N_7  and  C_11
REMARK    6  A    between atoms: N_7  and  C_20
REMARK    7  A    between atoms: C_19  and  C_21
REMARK    8  A    between atoms: C_20  and  C_22
REMARK                            x       y       z     vdW  Elec       q    Type
REMARK                         _______ _______ _______ _____ _____    ______ ____
ROOT
ATOM      1  O   UNL     1      -2.231  -1.010  25.877  0.00  0.00    -0.343 OA
ATOM      2  O   UNL     1      -0.185  -2.096  25.781  0.00  0.00    -0.347 OA
ATOM      9  C   UNL     1      -0.410   0.060  24.709  0.00  0.00    +0.143 C 
ATOM     10  C   UNL     1      -0.839  -0.618  23.387  0.00  0.00    +0.156 C 
ATOM     11  C   UNL     1      -2.155  -1.427  23.496  0.00  0.00    +0.116 C 
ATOM     12  C   UNL     1      -0.812  -0.809  25.914  0.00  0.00    +0.270 C 
ATOM     13  C   UNL     1      -2.355  -2.048  24.898  0.00  0.00    +0.166 C 
ATOM     14  C   UNL     1      -1.232  -2.972  25.335  0.00  0.00    +0.196 C 
ENDROOT
BRANCH   9   6
ATOM      6  N   UNL     1      -1.010   1.389  24.828  0.00  0.00    -0.293 NA
ATOM     15  C   UNL     1      -0.730   1.963  26.152  0.00  0.00    +0.085 C 
ATOM     16  C   UNL     1      -0.528   2.270  23.755  0.00  0.00    +0.085 C 
ATOM     17  C   UNL     1      -1.398   3.330  26.313  0.00  0.00    +0.028 C 
ATOM     18  C   UNL     1      -1.189   3.647  23.833  0.00  0.00    +0.028 C 
ATOM     19  C   UNL     1      -0.971   4.289  25.202  0.00  0.00    +0.077 C 
BRANCH  19  21
ATOM      4  O   UNL     1      -1.407   6.584  24.701  0.00  0.00    -0.276 OA
ATOM      8  N   UNL     1      -2.864   5.477  26.097  0.00  0.00    -0.329 N 
ATOM     21  C   UNL     1      -1.754   5.563  25.290  0.00  0.00    +0.214 C 
ATOM     31  H   UNL     1      -3.120   4.623  26.583  0.00  0.00    +0.145 HD
ATOM     32  H   UNL     1      -3.470   6.278  26.237  0.00  0.00    +0.145 HD
ENDBRANCH  19  21
ENDBRANCH   9   6
BRANCH  10   3
ATOM      3  O   UNL     1       0.214  -1.511  22.996  0.00  0.00    -0.388 OA
ATOM     30  H   UNL     1      -0.044  -1.917  22.151  0.00  0.00    +0.210 HD
ENDBRANCH  10   3
BRANCH  11   7
ATOM      7  N   UNL     1      -3.311  -0.572  23.206  0.00  0.00    -0.305 NA
ATOM     29  H   UNL     1      -3.731  -0.853  22.320  0.00  0.00    +0.123 HD
BRANCH   7  20
ATOM     20  C   UNL     1      -4.289  -0.657  24.276  0.00  0.00    +0.116 C 
BRANCH  20  22
ATOM     22  C   UNL     1      -4.717   0.706  24.754  0.00  0.00    -0.033 A 
ATOM     23  C   UNL     1      -4.224   1.851  24.131  0.00  0.00    +0.008 A 
ATOM     24  C   UNL     1      -5.609   0.821  25.820  0.00  0.00    +0.008 A 
ATOM     25  C   UNL     1      -4.622   3.113  24.572  0.00  0.00    +0.046 A 
ATOM     26  C   UNL     1      -6.008   2.083  26.262  0.00  0.00    +0.046 A 
ATOM     27  C   UNL     1      -5.513   3.228  25.638  0.00  0.00    +0.120 A 
BRANCH  27   5
ATOM      5  O   UNL     1      -5.903   4.460  26.069  0.00  0.00    -0.495 OA
ATOM     28  C   UNL     1      -6.295   5.402  25.071  0.00  0.00    +0.277 C 
ENDBRANCH  27   5
ENDBRANCH  20  22
ENDBRANCH   7  20
ENDBRANCH  11   7
TORSDOF 7
ENDMDL
MODEL 6
REMARK VINA RESULT:       0.7      2.739      6.621
REMARK  Name = 28960500
REMARK  8 active torsions:
REMARK  status: ('A' for Active; 'I' for Inactive)
REMARK    1  A    between atoms: O_3  and  C_10
REMARK    2  A    between atoms: O_5  and  C_27
REMARK    3  A    between atoms: O_5  and  C_28
REMARK    4  A    between atoms: N_6  and  C_9
REMARK    5  A    between atoms: N_7  and  C_11
REMARK    6  A    between atoms: N_7  and  C_20
REMARK    7  A    between atoms: C_19  and  C_21
REMARK    8  A    between atoms: C_20  and  C_22
REMARK                            x       y       z     vdW  Elec       q    Type
REMARK                         _______ _______ _______ _____ _____    ______ ____
ROOT
ATOM      1  O   UNL     1      -0.247  -1.277  25.716  0.00  0.00    -0.343 OA
ATOM      2  O   UNL     1      -1.751  -1.995  24.103  0.00  0.00    -0.347 OA
ATOM      9  C   UNL     1       0.115  -0.616  23.423  0.00  0.00    +0.143 C 
ATOM     10  C   UNL     1      -0.723   0.664  23.643  0.00  0.00    +0.156 C 
ATOM     11  C   UNL     1      -1.179   0.870  25.109  0.00  0.00    +0.116 C 
ATOM     12  C   UNL     1      -0.360  -1.739  24.363  0.00  0.00    +0.270 C 
ATOM     13  C   UNL     1      -1.420  -0.466  25.848  0.00  0.00    +0.166 C 
ATOM     14  C   UNL     1      -2.450  -1.365  25.188  0.00  0.00    +0.196 C 
ENDROOT
BRANCH   9   6
ATOM      6  N   UNL     1       1.537  -0.349  23.642  0.00  0.00    -0.293 NA
ATOM     15  C   UNL     1       2.315  -1.591  23.538  0.00  0.00    +0.085 C 
ATOM     16  C   UNL     1       2.023   0.663  22.693  0.00  0.00    +0.085 C 
ATOM     17  C   UNL     1       3.797  -1.338  23.820  0.00  0.00    +0.028 C 
ATOM     18  C   UNL     1       3.495   0.993  22.945  0.00  0.00    +0.028 C 
ATOM     19  C   UNL     1       4.363  -0.263  22.892  0.00  0.00    +0.077 C 
BRANCH  19  21
ATOM      4  O   UNL     1       6.738  -0.302  22.641  0.00  0.00    -0.276 OA
ATOM      8  N   UNL     1       5.850   0.825  24.440  0.00  0.00    -0.329 N 
ATOM     21  C   UNL     1       5.766   0.077  23.289  0.00  0.00    +0.214 C 
ATOM     31  H   UNL     1       5.030   1.114  24.963  0.00  0.00    +0.145 HD
ATOM     32  H   UNL     1       6.750   1.113  24.809  0.00  0.00    +0.145 HD
ENDBRANCH  19  21
ENDBRANCH   9   6
BRANCH  10   3
ATOM      3  O   UNL     1      -1.888   0.568  22.813  0.00  0.00    -0.388 OA
ATOM     30  H   UNL     1      -2.257  -0.325  22.926  0.00  0.00    +0.210 HD
ENDBRANCH  10   3
BRANCH  11   7
ATOM      7  N   UNL     1      -0.174   1.632  25.859  0.00  0.00    -0.305 NA
ATOM     29  H   UNL     1       0.756   1.416  25.501  0.00  0.00    +0.123 HD
BRANCH   7  20
ATOM     20  C   UNL     1      -0.435   3.058  25.756  0.00  0.00    +0.116 C 
BRANCH  20  22
ATOM     22  C   UNL     1      -1.907   3.351  25.638  0.00  0.00    -0.033 A 
ATOM     23  C   UNL     1      -2.534   3.287  24.395  0.00  0.00    +0.008 A 
ATOM     24  C   UNL     1      -2.643   3.685  26.775  0.00  0.00    +0.008 A 
ATOM     25  C   UNL     1      -3.898   3.557  24.287  0.00  0.00    +0.046 A 
ATOM     26  C   UNL     1      -4.007   3.955  26.667  0.00  0.00    +0.046 A 
ATOM     27  C   UNL     1      -4.634   3.891  25.423  0.00  0.00    +0.120 A 
BRANCH  27   5
ATOM      5  O   UNL     1      -5.967   4.154  25.317  0.00  0.00    -0.495 OA
ATOM     28  C   UNL     1      -6.367   5.520  25.404  0.00  0.00    +0.277 C 
ENDBRANCH  27   5
ENDBRANCH  20  22
ENDBRANCH   7  20
ENDBRANCH  11   7
TORSDOF 7
ENDMDL
MODEL 7
REMARK VINA RESULT:       0.8      1.757      2.331
REMARK  Name = 28960500
REMARK  8 active torsions:
REMARK  status: ('A' for Active; 'I' for Inactive)
REMARK    1  A    between atoms: O_3  and  C_10
REMARK    2  A    between atoms: O_5  and  C_27
REMARK    3  A    between atoms: O_5  and  C_28
REMARK    4  A    between atoms: N_6  and  C_9
REMARK    5  A    between atoms: N_7  and  C_11
REMARK    6  A    between atoms: N_7  and  C_20
REMARK    7  A    between atoms: C_19  and  C_21
REMARK    8  A    between atoms: C_20  and  C_22
REMARK                            x       y       z     vdW  Elec       q    Type
REMARK                         _______ _______ _______ _____ _____    ______ ____
ROOT
ATOM      1  O   UNL     1      -1.917   3.656  26.108  0.00  0.00    -0.343 OA
ATOM      2  O   UNL     1      -3.610   5.236  26.227  0.00  0.00    -0.347 OA
ATOM      9  C   UNL     1      -3.945   3.271  24.857  0.00  0.00    +0.143 C 
ATOM     10  C   UNL     1      -3.345   3.998  23.631  0.00  0.00    +0.156 C 
ATOM     11  C   UNL     1      -1.865   4.416  23.812  0.00  0.00    +0.116 C 
ATOM     12  C   UNL     1      -3.340   3.825  26.160  0.00  0.00    +0.270 C 
ATOM     13  C   UNL     1      -1.521   4.757  25.281  0.00  0.00    +0.166 C 
ATOM     14  C   UNL     1      -2.369   5.866  25.877  0.00  0.00    +0.196 C 
ENDROOT
BRANCH   9   6
ATOM      6  N   UNL     1      -3.711   1.830  24.770  0.00  0.00    -0.293 NA
ATOM     15  C   UNL     1      -4.692   1.100  25.586  0.00  0.00    +0.085 C 
ATOM     16  C   UNL     1      -3.750   1.385  23.370  0.00  0.00    +0.085 C 
ATOM     17  C   UNL     1      -4.427  -0.406  25.550  0.00  0.00    +0.028 C 
ATOM     18  C   UNL     1      -3.453  -0.111  23.258  0.00  0.00    +0.028 C 
ATOM     19  C   UNL     1      -4.413  -0.933  24.115  0.00  0.00    +0.077 C 
BRANCH  19  21
ATOM      4  O   UNL     1      -4.132  -3.076  23.099  0.00  0.00    -0.276 OA
ATOM      8  N   UNL     1      -3.481  -2.815  25.291  0.00  0.00    -0.329 N 
ATOM     21  C   UNL     1      -3.998  -2.372  24.096  0.00  0.00    +0.214 C 
ATOM     31  H   UNL     1      -3.394  -2.214  26.104  0.00  0.00    +0.145 HD
ATOM     32  H   UNL     1      -3.170  -3.774  25.399  0.00  0.00    +0.145 HD
ENDBRANCH  19  21
ENDBRANCH   9   6
BRANCH  10   3
ATOM      3  O   UNL     1      -4.127   5.179  23.401  0.00  0.00    -0.388 OA
ATOM     30  H   UNL     1      -3.862   5.840  24.064  0.00  0.00    +0.210 HD
ENDBRANCH  10   3
BRANCH  11   7
ATOM      7  N   UNL     1      -0.969   3.342  23.370  0.00  0.00    -0.305 NA
ATOM     29  H   UNL     1      -0.368   3.685  22.620  0.00  0.00    +0.123 HD
BRANCH   7  20
ATOM     20  C   UNL     1      -0.164   2.861  24.479  0.00  0.00    +0.116 C 
BRANCH  20  22
ATOM     22  C   UNL     1      -0.285   1.371  24.655  0.00  0.00    -0.033 A 
ATOM     23  C   UNL     1      -0.796   0.846  25.842  0.00  0.00    +0.008 A 
ATOM     24  C   UNL     1       0.111   0.514  23.627  0.00  0.00    +0.008 A 
ATOM     25  C   UNL     1      -0.910  -0.535  26.003  0.00  0.00    +0.046 A 
ATOM     26  C   UNL     1      -0.004  -0.866  23.788  0.00  0.00    +0.046 A 
ATOM     27  C   UNL     1      -0.514  -1.390  24.976  0.00  0.00    +0.120 A 
BRANCH  27   5
ATOM      5  O   UNL     1      -0.627  -2.739  25.132  0.00  0.00    -0.495 OA
ATOM     28  C   UNL     1       0.502  -3.426  25.671  0.00  0.00    +0.277 C 
ENDBRANCH  27   5
ENDBRANCH  20  22
ENDBRANCH   7  20
ENDBRANCH  11   7
TORSDOF 7
ENDMDL
MODEL 8
REMARK VINA RESULT:       1.0      1.661      2.207
REMARK  Name = 28960500
REMARK  8 active torsions:
REMARK  status: ('A' for Active; 'I' for Inactive)
REMARK    1  A    between atoms: O_3  and  C_10
REMARK    2  A    between atoms: O_5  and  C_27
REMARK    3  A    between atoms: O_5  and  C_28
REMARK    4  A    between atoms: N_6  and  C_9
REMARK    5  A    between atoms: N_7  and  C_11
REMARK    6  A    between atoms: N_7  and  C_20
REMARK    7  A    between atoms: C_19  and  C_21
REMARK    8  A    between atoms: C_20  and  C_22
REMARK                            x       y       z     vdW  Elec       q    Type
REMARK                         _______ _______ _______ _____ _____    ______ ____
ROOT
ATOM      1  O   UNL     1      -4.084   2.997  26.078  0.00  0.00    -0.343 OA
ATOM      2  O   UNL     1      -6.252   2.714  26.851  0.00  0.00    -0.347 OA
ATOM      9  C   UNL     1      -5.319   1.048  25.367  0.00  0.00    +0.143 C 
ATOM     10  C   UNL     1      -5.852   1.816  24.136  0.00  0.00    +0.156 C 
ATOM     11  C   UNL     1      -5.253   3.235  23.974  0.00  0.00    +0.116 C 
ATOM     12  C   UNL     1      -5.035   2.022  26.526  0.00  0.00    +0.270 C 
ATOM     13  C   UNL     1      -4.915   3.894  25.331  0.00  0.00    +0.166 C 
ATOM     14  C   UNL     1      -6.099   4.019  26.274  0.00  0.00    +0.196 C 
ENDROOT
BRANCH   9   6
ATOM      6  N   UNL     1      -4.104   0.306  25.029  0.00  0.00    -0.293 NA
ATOM     15  C   UNL     1      -3.308   0.046  26.237  0.00  0.00    +0.085 C 
ATOM     16  C   UNL     1      -4.442  -0.946  24.337  0.00  0.00    +0.085 C 
ATOM     17  C   UNL     1      -2.007  -0.682  25.893  0.00  0.00    +0.028 C 
ATOM     18  C   UNL     1      -3.181  -1.708  23.928  0.00  0.00    +0.028 C 
ATOM     19  C   UNL     1      -2.281  -1.979  25.133  0.00  0.00    +0.077 C 
BRANCH  19  21
ATOM      4  O   UNL     1      -0.941  -3.350  23.707  0.00  0.00    -0.276 OA
ATOM      8  N   UNL     1       0.092  -2.239  25.437  0.00  0.00    -0.329 N 
ATOM     21  C   UNL     1      -0.995  -2.591  24.672  0.00  0.00    +0.214 C 
ATOM     31  H   UNL     1       0.017  -1.619  26.238  0.00  0.00    +0.145 HD
ATOM     32  H   UNL     1       1.017  -2.596  25.224  0.00  0.00    +0.145 HD
ENDBRANCH  19  21
ENDBRANCH   9   6
BRANCH  10   3
ATOM      3  O   UNL     1      -7.274   1.936  24.281  0.00  0.00    -0.388 OA
ATOM     30  H   UNL     1      -7.512   2.860  24.095  0.00  0.00    +0.210 HD
ENDBRANCH  10   3
BRANCH  11   7
ATOM      7  N   UNL     1      -4.026   3.188  23.171  0.00  0.00    -0.305 NA
ATOM     29  H   UNL     1      -4.125   3.800  22.360  0.00  0.00    +0.123 HD
BRANCH   7  20
ATOM     20  C   UNL     1      -2.880   3.589  23.967  0.00  0.00    +0.116 C 
BRANCH  20  22
ATOM     22  C   UNL     1      -1.744   2.608  23.848  0.00  0.00    -0.033 A 
ATOM     23  C   UNL     1      -0.621   2.736  24.665  0.00  0.00    +0.008 A 
ATOM     24  C   UNL     1      -1.817   1.569  22.920  0.00  0.00    +0.008 A 
ATOM     25  C   UNL     1       0.429   1.825  24.556  0.00  0.00    +0.046 A 
ATOM     26  C   UNL     1      -0.766   0.658  22.811  0.00  0.00    +0.046 A 
ATOM     27  C   UNL     1       0.357   0.787  23.629  0.00  0.00    +0.120 A 
BRANCH  27   5
ATOM      5  O   UNL     1       1.382  -0.103  23.522  0.00  0.00    -0.495 OA
ATOM     28  C   UNL     1       2.335   0.126  22.485  0.00  0.00    +0.277 C 
ENDBRANCH  27   5
ENDBRANCH  20  22
ENDBRANCH   7  20
ENDBRANCH  11   7
TORSDOF 7
ENDMDL
MODEL 9
REMARK VINA RESULT:       1.5      1.782      4.105
REMARK  Name = 28960500
REMARK  8 active torsions:
REMARK  status: ('A' for Active; 'I' for Inactive)
REMARK    1  A    between atoms: O_3  and  C_10
REMARK    2  A    between atoms: O_5  and  C_27
REMARK    3  A    between atoms: O_5  and  C_28
REMARK    4  A    between atoms: N_6  and  C_9
REMARK    5  A    between atoms: N_7  and  C_11
REMARK    6  A    between atoms: N_7  and  C_20
REMARK    7  A    between atoms: C_19  and  C_21
REMARK    8  A    between atoms: C_20  and  C_22
REMARK                            x       y       z     vdW  Elec       q    Type
REMARK                         _______ _______ _______ _____ _____    ______ ____
ROOT
ATOM      1  O   UNL     1      -3.937   3.969  23.864  0.00  0.00    -0.343 OA
ATOM      2  O   UNL     1      -4.304   5.323  25.711  0.00  0.00    -0.347 OA
ATOM      9  C   UNL     1      -3.061   3.269  26.003  0.00  0.00    +0.143 C 
ATOM     10  C   UNL     1      -4.366   2.497  26.302  0.00  0.00    +0.156 C 
ATOM     11  C   UNL     1      -5.372   2.484  25.124  0.00  0.00    +0.116 C 
ATOM     12  C   UNL     1      -3.344   4.463  25.072  0.00  0.00    +0.270 C 
ATOM     13  C   UNL     1      -5.297   3.768  24.266  0.00  0.00    +0.166 C 
ATOM     14  C   UNL     1      -5.545   5.050  25.043  0.00  0.00    +0.196 C 
ENDROOT
BRANCH   9   6
ATOM      6  N   UNL     1      -2.065   2.387  25.394  0.00  0.00    -0.293 NA
ATOM     15  C   UNL     1      -2.050   2.558  23.935  0.00  0.00    +0.085 C 
ATOM     16  C   UNL     1      -0.736   2.636  25.971  0.00  0.00    +0.085 C 
ATOM     17  C   UNL     1      -1.052   1.602  23.278  0.00  0.00    +0.028 C 
ATOM     18  C   UNL     1       0.307   1.684  25.384  0.00  0.00    +0.028 C 
ATOM     19  C   UNL     1       0.350   1.779  23.860  0.00  0.00    +0.077 C 
BRANCH  19  21
ATOM      4  O   UNL     1       0.864  -0.364  22.939  0.00  0.00    -0.276 OA
ATOM      8  N   UNL     1       2.594   1.108  23.306  0.00  0.00    -0.329 N 
ATOM     21  C   UNL     1       1.272   0.731  23.317  0.00  0.00    +0.214 C 
ATOM     31  H   UNL     1       2.905   2.016  23.638  0.00  0.00    +0.145 HD
ATOM     32  H   UNL     1       3.312   0.479  22.964  0.00  0.00    +0.145 HD
ENDBRANCH  19  21
ENDBRANCH   9   6
BRANCH  10   3
ATOM      3  O   UNL     1      -4.994   3.126  27.428  0.00  0.00    -0.388 OA
ATOM     30  H   UNL     1      -4.916   2.520  28.185  0.00  0.00    +0.210 HD
ENDBRANCH  10   3
BRANCH  11   7
ATOM      7  N   UNL     1      -5.122   1.334  24.247  0.00  0.00    -0.305 NA
ATOM     29  H   UNL     1      -4.176   1.392  23.868  0.00  0.00    +0.123 HD
BRANCH   7  20
ATOM     20  C   UNL     1      -5.297   0.090  24.976  0.00  0.00    +0.116 C 
BRANCH  20  22
ATOM     22  C   UNL     1      -4.051  -0.754  24.951  0.00  0.00    -0.033 A 
ATOM     23  C   UNL     1      -2.985  -0.451  25.798  0.00  0.00    +0.008 A 
ATOM     24  C   UNL     1      -3.963  -1.842  24.082  0.00  0.00    +0.008 A 
ATOM     25  C   UNL     1      -1.831  -1.234  25.776  0.00  0.00    +0.046 A 
ATOM     26  C   UNL     1      -2.810  -2.626  24.061  0.00  0.00    +0.046 A 
ATOM     27  C   UNL     1      -1.744  -2.321  24.907  0.00  0.00    +0.120 A 
BRANCH  27   5
ATOM      5  O   UNL     1      -0.618  -3.087  24.887  0.00  0.00    -0.495 OA
ATOM     28  C   UNL     1       0.550  -2.539  25.495  0.00  0.00    +0.277 C 
ENDBRANCH  27   5
ENDBRANCH  20  22
ENDBRANCH   7  20
ENDBRANCH  11   7
TORSDOF 7
ENDMDL
MODEL 10
REMARK VINA RESULT:       1.8      1.676      3.875
REMARK  Name = 28960500
REMARK  8 active torsions:
REMARK  status: ('A' for Active; 'I' for Inactive)
REMARK    1  A    between atoms: O_3  and  C_10
REMARK    2  A    between atoms: O_5  and  C_27
REMARK    3  A    between atoms: O_5  and  C_28
REMARK    4  A    between atoms: N_6  and  C_9
REMARK    5  A    between atoms: N_7  and  C_11
REMARK    6  A    between atoms: N_7  and  C_20
REMARK    7  A    between atoms: C_19  and  C_21
REMARK    8  A    between atoms: C_20  and  C_22
REMARK                            x       y       z     vdW  Elec       q    Type
REMARK                         _______ _______ _______ _____ _____    ______ ____
ROOT
ATOM      1  O   UNL     1      -4.626   3.163  23.934  0.00  0.00    -0.343 OA
ATOM      2  O   UNL     1      -4.391   5.453  24.208  0.00  0.00    -0.347 OA
ATOM      9  C   UNL     1      -2.668   3.995  25.074  0.00  0.00    +0.143 C 
ATOM     10  C   UNL     1      -3.399   3.901  26.432  0.00  0.00    +0.156 C 
ATOM     11  C   UNL     1      -4.807   3.260  26.344  0.00  0.00    +0.116 C 
ATOM     12  C   UNL     1      -3.676   4.236  23.935  0.00  0.00    +0.270 C 
ATOM     13  C   UNL     1      -5.506   3.549  24.996  0.00  0.00    +0.166 C 
ATOM     14  C   UNL     1      -5.675   5.027  24.688  0.00  0.00    +0.196 C 
ENDROOT
BRANCH   9   6
ATOM      6  N   UNL     1      -1.902   2.776  24.813  0.00  0.00    -0.293 NA
ATOM     15  C   UNL     1      -1.948   2.436  23.384  0.00  0.00    +0.085 C 
ATOM     16  C   UNL     1      -0.516   2.930  25.277  0.00  0.00    +0.085 C 
ATOM     17  C   UNL     1      -1.198   1.132  23.103  0.00  0.00    +0.028 C 
ATOM     18  C   UNL     1       0.284   1.644  25.061  0.00  0.00    +0.028 C 
ATOM     19  C   UNL     1       0.246   1.207  23.598  0.00  0.00    +0.077 C 
BRANCH  19  21
ATOM      4  O   UNL     1       0.415  -1.156  23.905  0.00  0.00    -0.276 OA
ATOM      8  N   UNL     1       2.119  -0.077  22.799  0.00  0.00    -0.329 N 
ATOM     21  C   UNL     1       0.912  -0.127  23.455  0.00  0.00    +0.214 C 
ATOM     31  H   UNL     1       2.513   0.791  22.448  0.00  0.00    +0.145 HD
ATOM     32  H   UNL     1       2.664  -0.918  22.646  0.00  0.00    +0.145 HD
ENDBRANCH  19  21
ENDBRANCH   9   6
BRANCH  10   3
ATOM      3  O   UNL     1      -3.539   5.235  26.943  0.00  0.00    -0.388 OA
ATOM     30  H   UNL     1      -4.002   5.176  27.796  0.00  0.00    +0.210 HD
ENDBRANCH  10   3
BRANCH  11   7
ATOM      7  N   UNL     1      -4.720   1.805  26.511  0.00  0.00    -0.305 NA
ATOM     29  H   UNL     1      -5.338   1.510  27.268  0.00  0.00    +0.123 HD
BRANCH   7  20
ATOM     20  C   UNL     1      -5.078   1.128  25.276  0.00  0.00    +0.116 C 
BRANCH  20  22
ATOM     22  C   UNL     1      -4.236  -0.098  25.045  0.00  0.00    -0.033 A 
ATOM     23  C   UNL     1      -4.597  -1.018  24.061  0.00  0.00    +0.008 A 
ATOM     24  C   UNL     1      -3.094  -0.313  25.815  0.00  0.00    +0.008 A 
ATOM     25  C   UNL     1      -3.815  -2.153  23.845  0.00  0.00    +0.046 A 
ATOM     26  C   UNL     1      -2.312  -1.448  25.600  0.00  0.00    +0.046 A 
ATOM     27  C   UNL     1      -2.673  -2.368  24.616  0.00  0.00    +0.120 A 
BRANCH  27   5
ATOM      5  O   UNL     1      -1.909  -3.475  24.405  0.00  0.00    -0.495 OA
ATOM     28  C   UNL     1      -1.720  -3.885  23.052  0.00  0.00    +0.277 C 
ENDBRANCH  27   5
ENDBRANCH  20  22
ENDBRANCH   7  20
ENDBRANCH  11   7
TORSDOF 7
ENDMDL
