MODEL 1
REMARK VINA RESULT:      -5.5      0.000      0.000
REMARK  Name = 75536290
REMARK  10 active torsions:
REMARK  status: ('A' for Active; 'I' for Inactive)
REMARK    1  A    between atoms: O_3  and  C_9
REMARK    2  A    between atoms: O_5  and  C_20
REMARK    3  A    between atoms: O_5  and  C_26
REMARK    4  A    between atoms: N_6  and  C_13
REMARK    5  A    between atoms: N_6  and  C_16
REMARK    6  A    between atoms: C_8  and  C_13
REMARK    7  A    between atoms: C_10  and  C_14
REMARK    8  A    between atoms: C_14  and  C_15
REMARK    9  A    between atoms: C_16  and  C_18
REMARK   10  A    between atoms: C_19  and  C_20
REMARK                            x       y       z     vdW  Elec       q    Type
REMARK                         _______ _______ _______ _____ _____    ______ ____
ROOT
ATOM      2  O   UNL     1      -3.491   0.111  23.680  0.00  0.00    -0.369 OA
ATOM      8  C   UNL     1      -4.345  -0.562  24.615  0.00  0.00    +0.161 C 
ATOM      9  C   UNL     1      -3.617  -1.723  25.303  0.00  0.00    +0.145 C 
ATOM     10  C   UNL     1      -2.258   0.594  24.222  0.00  0.00    +0.125 C 
ATOM     11  C   UNL     1      -2.259  -1.307  25.863  0.00  0.00    +0.036 C 
ATOM     12  C   UNL     1      -1.443  -0.555  24.815  0.00  0.00    +0.034 C 
ENDROOT
BRANCH   9   3
ATOM      3  O   UNL     1      -3.394  -2.760  24.343  0.00  0.00    -0.389 OA
ATOM     28  H   UNL     1      -2.469  -3.047  24.431  0.00  0.00    +0.210 HD
ENDBRANCH   9   3
BRANCH   8  13
ATOM     13  C   UNL     1      -4.962   0.426  25.604  0.00  0.00    +0.115 C 
BRANCH  13   6
ATOM      6  N   UNL     1      -5.889   1.323  24.933  0.00  0.00    -0.309 NA
ATOM     27  H   UNL     1      -5.642   1.385  23.945  0.00  0.00    +0.122 HD
BRANCH   6  16
ATOM     16  C   UNL     1      -5.859   2.651  25.533  0.00  0.00    +0.116 C 
BRANCH  16  18
ATOM      1 CL   UNL     1      -0.519   5.321  24.787  0.00  0.00    -0.084 Cl
ATOM     18  C   UNL     1      -4.523   3.319  25.345  0.00  0.00    -0.033 A 
ATOM     21  C   UNL     1      -3.713   3.580  26.451  0.00  0.00    +0.006 A 
ATOM     22  C   UNL     1      -4.095   3.679  24.067  0.00  0.00    +0.006 A 
ATOM     23  C   UNL     1      -2.475   4.200  26.278  0.00  0.00    +0.020 A 
ATOM     24  C   UNL     1      -2.858   4.299  23.894  0.00  0.00    +0.020 A 
ATOM     25  C   UNL     1      -2.048   4.559  25.000  0.00  0.00    +0.041 A 
ENDBRANCH  16  18
ENDBRANCH   6  16
ENDBRANCH  13   6
ENDBRANCH   8  13
BRANCH  10  14
ATOM     14  C   UNL     1      -1.496   1.272  23.090  0.00  0.00    +0.090 C 
BRANCH  14  15
ATOM      4  O   UNL     1       2.023   1.415  23.851  0.00  0.00    -0.357 OA
ATOM      7  N   UNL     1       0.722   1.891  23.955  0.00  0.00    -0.083 NA
ATOM     15  C   UNL     1      -0.011   1.058  23.211  0.00  0.00    +0.086 A 
ATOM     17  C   UNL     1       0.765   0.048  22.617  0.00  0.00    +0.073 A 
ATOM     19  C   UNL     1       2.036   0.317  23.052  0.00  0.00    +0.163 A 
BRANCH  19  20
ATOM     20  C   UNL     1       3.340  -0.319  22.832  0.00  0.00    +0.236 C 
BRANCH  20   5
ATOM      5  O   UNL     1       4.395   0.622  23.054  0.00  0.00    -0.375 OA
ATOM     26  C   UNL     1       5.444   0.047  23.815  0.00  0.00    +0.194 C 
ENDBRANCH  20   5
ENDBRANCH  19  20
ENDBRANCH  14  15
ENDBRANCH  10  14
TORSDOF 9
ENDMDL
MODEL 2
REMARK VINA RESULT:      -4.2      2.059      2.717
REMARK  Name = 75536290
REMARK  10 active torsions:
REMARK  status: ('A' for Active; 'I' for Inactive)
REMARK    1  A    between atoms: O_3  and  C_9
REMARK    2  A    between atoms: O_5  and  C_20
REMARK    3  A    between atoms: O_5  and  C_26
REMARK    4  A    between atoms: N_6  and  C_13
REMARK    5  A    between atoms: N_6  and  C_16
REMARK    6  A    between atoms: C_8  and  C_13
REMARK    7  A    between atoms: C_10  and  C_14
REMARK    8  A    between atoms: C_14  and  C_15
REMARK    9  A    between atoms: C_16  and  C_18
REMARK   10  A    between atoms: C_19  and  C_20
REMARK                            x       y       z     vdW  Elec       q    Type
REMARK                         _______ _______ _______ _____ _____    ______ ____
ROOT
ATOM      2  O   UNL     1      -3.300  -0.121  23.592  0.00  0.00    -0.369 OA
ATOM      8  C   UNL     1      -4.559  -0.670  24.004  0.00  0.00    +0.161 C 
ATOM      9  C   UNL     1      -4.458  -2.183  24.240  0.00  0.00    +0.145 C 
ATOM     10  C   UNL     1      -2.205  -0.379  24.475  0.00  0.00    +0.125 C 
ATOM     11  C   UNL     1      -3.276  -2.554  25.131  0.00  0.00    +0.036 C 
ATOM     12  C   UNL     1      -1.994  -1.883  24.646  0.00  0.00    +0.034 C 
ENDROOT
BRANCH   9   3
ATOM      3  O   UNL     1      -4.276  -2.834  22.980  0.00  0.00    -0.389 OA
ATOM     28  H   UNL     1      -4.937  -3.545  22.919  0.00  0.00    +0.210 HD
ENDBRANCH   9   3
BRANCH   8  13
ATOM     13  C   UNL     1      -5.120   0.085  25.207  0.00  0.00    +0.115 C 
BRANCH  13   6
ATOM      6  N   UNL     1      -5.951   1.200  24.779  0.00  0.00    -0.309 NA
ATOM     27  H   UNL     1      -5.683   1.475  23.833  0.00  0.00    +0.122 HD
BRANCH   6  16
ATOM     16  C   UNL     1      -5.807   2.336  25.681  0.00  0.00    +0.116 C 
BRANCH  16  18
ATOM      1 CL   UNL     1      -0.672   5.320  24.725  0.00  0.00    -0.084 Cl
ATOM     18  C   UNL     1      -4.522   3.082  25.441  0.00  0.00    -0.033 A 
ATOM     21  C   UNL     1      -3.884   3.729  26.500  0.00  0.00    +0.006 A 
ATOM     22  C   UNL     1      -3.971   3.130  24.161  0.00  0.00    +0.006 A 
ATOM     23  C   UNL     1      -2.693   4.421  26.278  0.00  0.00    +0.020 A 
ATOM     24  C   UNL     1      -2.781   3.823  23.939  0.00  0.00    +0.020 A 
ATOM     25  C   UNL     1      -2.142   4.468  24.998  0.00  0.00    +0.041 A 
ENDBRANCH  16  18
ENDBRANCH   6  16
ENDBRANCH  13   6
ENDBRANCH   8  13
BRANCH  10  14
ATOM     14  C   UNL     1      -0.969   0.278  23.876  0.00  0.00    +0.090 C 
BRANCH  14  15
ATOM      4  O   UNL     1       1.035   2.756  25.559  0.00  0.00    -0.357 OA
ATOM      7  N   UNL     1       0.645   2.051  24.427  0.00  0.00    -0.083 NA
ATOM     15  C   UNL     1      -0.305   1.213  24.851  0.00  0.00    +0.086 A 
ATOM     17  C   UNL     1      -0.554   1.341  26.229  0.00  0.00    +0.073 A 
ATOM     19  C   UNL     1       0.315   2.324  26.626  0.00  0.00    +0.163 A 
BRANCH  19  20
ATOM     20  C   UNL     1       0.600   2.966  27.914  0.00  0.00    +0.236 C 
BRANCH  20   5
ATOM      5  O   UNL     1       1.965   2.753  28.283  0.00  0.00    -0.375 OA
ATOM     26  C   UNL     1       2.072   2.327  29.631  0.00  0.00    +0.194 C 
ENDBRANCH  20   5
ENDBRANCH  19  20
ENDBRANCH  14  15
ENDBRANCH  10  14
TORSDOF 9
ENDMDL
MODEL 3
REMARK VINA RESULT:      -4.2      2.476      4.128
REMARK  Name = 75536290
REMARK  10 active torsions:
REMARK  status: ('A' for Active; 'I' for Inactive)
REMARK    1  A    between atoms: O_3  and  C_9
REMARK    2  A    between atoms: O_5  and  C_20
REMARK    3  A    between atoms: O_5  and  C_26
REMARK    4  A    between atoms: N_6  and  C_13
REMARK    5  A    between atoms: N_6  and  C_16
REMARK    6  A    between atoms: C_8  and  C_13
REMARK    7  A    between atoms: C_10  and  C_14
REMARK    8  A    between atoms: C_14  and  C_15
REMARK    9  A    between atoms: C_16  and  C_18
REMARK   10  A    between atoms: C_19  and  C_20
REMARK                            x       y       z     vdW  Elec       q    Type
REMARK                         _______ _______ _______ _____ _____    ______ ____
ROOT
ATOM      2  O   UNL     1      -2.463   3.601  25.786  0.00  0.00    -0.369 OA
ATOM      8  C   UNL     1      -3.808   3.987  25.475  0.00  0.00    +0.161 C 
ATOM      9  C   UNL     1      -4.032   4.064  23.959  0.00  0.00    +0.145 C 
ATOM     10  C   UNL     1      -2.029   2.375  25.191  0.00  0.00    +0.125 C 
ATOM     11  C   UNL     1      -3.541   2.814  23.235  0.00  0.00    +0.036 C 
ATOM     12  C   UNL     1      -2.123   2.452  23.668  0.00  0.00    +0.034 C 
ENDROOT
BRANCH   9   3
ATOM      3  O   UNL     1      -3.302   5.182  23.444  0.00  0.00    -0.389 OA
ATOM     28  H   UNL     1      -3.169   5.031  22.492  0.00  0.00    +0.210 HD
ENDBRANCH   9   3
BRANCH   8  13
ATOM     13  C   UNL     1      -4.816   3.081  26.181  0.00  0.00    +0.115 C 
BRANCH  13   6
ATOM      6  N   UNL     1      -5.597   2.323  25.216  0.00  0.00    -0.309 NA
ATOM     27  H   UNL     1      -6.467   2.821  25.022  0.00  0.00    +0.122 HD
BRANCH   6  16
ATOM     16  C   UNL     1      -5.896   0.988  25.719  0.00  0.00    +0.116 C 
BRANCH  16  18
ATOM      1 CL   UNL     1      -1.692  -3.002  24.103  0.00  0.00    -0.084 Cl
ATOM     18  C   UNL     1      -4.844  -0.010  25.314  0.00  0.00    -0.033 A 
ATOM     21  C   UNL     1      -3.923  -0.473  26.255  0.00  0.00    +0.006 A 
ATOM     22  C   UNL     1      -4.789  -0.472  23.999  0.00  0.00    +0.006 A 
ATOM     23  C   UNL     1      -2.948  -1.398  25.880  0.00  0.00    +0.020 A 
ATOM     24  C   UNL     1      -3.814  -1.396  23.624  0.00  0.00    +0.020 A 
ATOM     25  C   UNL     1      -2.894  -1.859  24.565  0.00  0.00    +0.041 A 
ENDBRANCH  16  18
ENDBRANCH   6  16
ENDBRANCH  13   6
ENDBRANCH   8  13
BRANCH  10  14
ATOM     14  C   UNL     1      -0.591   2.135  25.634  0.00  0.00    +0.090 C 
BRANCH  14  15
ATOM      4  O   UNL     1       0.645  -0.525  23.541  0.00  0.00    -0.357 OA
ATOM      7  N   UNL     1      -0.238  -0.009  24.481  0.00  0.00    -0.083 NA
ATOM     15  C   UNL     1       0.153   1.255  24.665  0.00  0.00    +0.086 A 
ATOM     17  C   UNL     1       1.267   1.590  23.876  0.00  0.00    +0.073 A 
ATOM     19  C   UNL     1       1.536   0.436  23.188  0.00  0.00    +0.163 A 
BRANCH  19  20
ATOM     20  C   UNL     1       2.549   0.059  22.196  0.00  0.00    +0.236 C 
BRANCH  20   5
ATOM      5  O   UNL     1       3.709   0.885  22.331  0.00  0.00    -0.375 OA
ATOM     26  C   UNL     1       4.700   0.253  23.124  0.00  0.00    +0.194 C 
ENDBRANCH  20   5
ENDBRANCH  19  20
ENDBRANCH  14  15
ENDBRANCH  10  14
TORSDOF 9
ENDMDL
MODEL 4
REMARK VINA RESULT:      -3.9      2.705      6.207
REMARK  Name = 75536290
REMARK  10 active torsions:
REMARK  status: ('A' for Active; 'I' for Inactive)
REMARK    1  A    between atoms: O_3  and  C_9
REMARK    2  A    between atoms: O_5  and  C_20
REMARK    3  A    between atoms: O_5  and  C_26
REMARK    4  A    between atoms: N_6  and  C_13
REMARK    5  A    between atoms: N_6  and  C_16
REMARK    6  A    between atoms: C_8  and  C_13
REMARK    7  A    between atoms: C_10  and  C_14
REMARK    8  A    between atoms: C_14  and  C_15
REMARK    9  A    between atoms: C_16  and  C_18
REMARK   10  A    between atoms: C_19  and  C_20
REMARK                            x       y       z     vdW  Elec       q    Type
REMARK                         _______ _______ _______ _____ _____    ______ ____
ROOT
ATOM      2  O   UNL     1      -2.886  -0.052  25.109  0.00  0.00    -0.369 OA
ATOM      8  C   UNL     1      -1.955  -1.109  24.844  0.00  0.00    +0.161 C 
ATOM      9  C   UNL     1      -2.660  -2.469  24.762  0.00  0.00    +0.145 C 
ATOM     10  C   UNL     1      -3.974   0.046  24.185  0.00  0.00    +0.125 C 
ATOM     11  C   UNL     1      -3.873  -2.439  23.836  0.00  0.00    +0.036 C 
ATOM     12  C   UNL     1      -4.778  -1.253  24.160  0.00  0.00    +0.034 C 
ENDROOT
BRANCH   9   3
ATOM      3  O   UNL     1      -3.116  -2.830  26.069  0.00  0.00    -0.389 OA
ATOM     28  H   UNL     1      -3.471  -2.027  26.487  0.00  0.00    +0.210 HD
ENDBRANCH   9   3
BRANCH   8  13
ATOM     13  C   UNL     1      -1.110  -0.800  23.609  0.00  0.00    +0.115 C 
BRANCH  13   6
ATOM      6  N   UNL     1       0.240  -0.411  23.987  0.00  0.00    -0.309 NA
ATOM     27  H   UNL     1       0.193   0.316  24.702  0.00  0.00    +0.122 HD
BRANCH   6  16
ATOM     16  C   UNL     1       0.985   0.078  22.834  0.00  0.00    +0.116 C 
BRANCH  16  18
ATOM      1 CL   UNL     1       6.929  -0.319  23.680  0.00  0.00    -0.084 Cl
ATOM     18  C   UNL     1       2.472  -0.021  23.046  0.00  0.00    -0.033 A 
ATOM     21  C   UNL     1       3.295   1.062  22.737  0.00  0.00    +0.006 A 
ATOM     22  C   UNL     1       3.028  -1.198  23.549  0.00  0.00    +0.006 A 
ATOM     23  C   UNL     1       4.673   0.970  22.933  0.00  0.00    +0.020 A 
ATOM     24  C   UNL     1       4.406  -1.290  23.744  0.00  0.00    +0.020 A 
ATOM     25  C   UNL     1       5.228  -0.206  23.437  0.00  0.00    +0.041 A 
ENDBRANCH  16  18
ENDBRANCH   6  16
ENDBRANCH  13   6
ENDBRANCH   8  13
BRANCH  10  14
ATOM     14  C   UNL     1      -4.845   1.215  24.626  0.00  0.00    +0.090 C 
BRANCH  14  15
ATOM      4  O   UNL     1      -3.414   4.146  26.158  0.00  0.00    -0.357 OA
ATOM      7  N   UNL     1      -4.373   3.144  26.078  0.00  0.00    -0.083 NA
ATOM     15  C   UNL     1      -4.019   2.410  25.019  0.00  0.00    +0.086 A 
ATOM     17  C   UNL     1      -2.857   2.898  24.396  0.00  0.00    +0.073 A 
ATOM     19  C   UNL     1      -2.517   3.990  25.151  0.00  0.00    +0.163 A 
BRANCH  19  20
ATOM     20  C   UNL     1      -1.428   4.971  25.085  0.00  0.00    +0.236 C 
BRANCH  20   5
ATOM      5  O   UNL     1      -0.169   4.306  24.947  0.00  0.00    -0.375 OA
ATOM     26  C   UNL     1      -0.138   3.106  25.703  0.00  0.00    +0.194 C 
ENDBRANCH  20   5
ENDBRANCH  19  20
ENDBRANCH  14  15
ENDBRANCH  10  14
TORSDOF 9
ENDMDL
MODEL 5
REMARK VINA RESULT:      -3.8      2.447      4.301
REMARK  Name = 75536290
REMARK  10 active torsions:
REMARK  status: ('A' for Active; 'I' for Inactive)
REMARK    1  A    between atoms: O_3  and  C_9
REMARK    2  A    between atoms: O_5  and  C_20
REMARK    3  A    between atoms: O_5  and  C_26
REMARK    4  A    between atoms: N_6  and  C_13
REMARK    5  A    between atoms: N_6  and  C_16
REMARK    6  A    between atoms: C_8  and  C_13
REMARK    7  A    between atoms: C_10  and  C_14
REMARK    8  A    between atoms: C_14  and  C_15
REMARK    9  A    between atoms: C_16  and  C_18
REMARK   10  A    between atoms: C_19  and  C_20
REMARK                            x       y       z     vdW  Elec       q    Type
REMARK                         _______ _______ _______ _____ _____    ______ ____
ROOT
ATOM      2  O   UNL     1      -2.026   2.669  25.732  0.00  0.00    -0.369 OA
ATOM      8  C   UNL     1      -2.848   3.816  25.476  0.00  0.00    +0.161 C 
ATOM      9  C   UNL     1      -2.091   4.878  24.669  0.00  0.00    +0.145 C 
ATOM     10  C   UNL     1      -1.463   2.054  24.570  0.00  0.00    +0.125 C 
ATOM     11  C   UNL     1      -1.408   4.294  23.436  0.00  0.00    +0.036 C 
ATOM     12  C   UNL     1      -0.600   3.050  23.797  0.00  0.00    +0.034 C 
ENDROOT
BRANCH   9   3
ATOM      3  O   UNL     1      -1.076   5.451  25.500  0.00  0.00    -0.389 OA
ATOM     28  H   UNL     1      -1.399   6.317  25.802  0.00  0.00    +0.210 HD
ENDBRANCH   9   3
BRANCH   8  13
ATOM     13  C   UNL     1      -4.172   3.409  24.833  0.00  0.00    +0.115 C 
BRANCH  13   6
ATOM      6  N   UNL     1      -5.035   2.743  25.796  0.00  0.00    -0.309 NA
ATOM     27  H   UNL     1      -4.478   2.446  26.598  0.00  0.00    +0.122 HD
BRANCH   6  16
ATOM     16  C   UNL     1      -5.691   1.587  25.198  0.00  0.00    +0.116 C 
BRANCH  16  18
ATOM      1 CL   UNL     1      -1.881  -3.005  24.435  0.00  0.00    -0.084 Cl
ATOM     18  C   UNL     1      -4.738   0.438  25.008  0.00  0.00    -0.033 A 
ATOM     21  C   UNL     1      -4.415   0.006  23.721  0.00  0.00    +0.006 A 
ATOM     22  C   UNL     1      -4.179  -0.196  26.117  0.00  0.00    +0.006 A 
ATOM     23  C   UNL     1      -3.532  -1.059  23.544  0.00  0.00    +0.020 A 
ATOM     24  C   UNL     1      -3.296  -1.261  25.940  0.00  0.00    +0.020 A 
ATOM     25  C   UNL     1      -2.972  -1.692  24.654  0.00  0.00    +0.041 A 
ENDBRANCH  16  18
ENDBRANCH   6  16
ENDBRANCH  13   6
ENDBRANCH   8  13
BRANCH  10  14
ATOM     14  C   UNL     1      -0.632   0.866  25.039  0.00  0.00    +0.090 C 
BRANCH  14  15
ATOM      4  O   UNL     1       1.421  -0.545  22.436  0.00  0.00    -0.357 OA
ATOM      7  N   UNL     1       0.257  -0.492  23.190  0.00  0.00    -0.083 NA
ATOM     15  C   UNL     1       0.446   0.513  24.049  0.00  0.00    +0.086 A 
ATOM     17  C   UNL     1       1.701   1.125  23.887  0.00  0.00    +0.073 A 
ATOM     19  C   UNL     1       2.275   0.422  22.860  0.00  0.00    +0.163 A 
BRANCH  19  20
ATOM     20  C   UNL     1       3.565   0.509  22.167  0.00  0.00    +0.236 C 
BRANCH  20   5
ATOM      5  O   UNL     1       4.580   0.967  23.063  0.00  0.00    -0.375 OA
ATOM     26  C   UNL     1       5.321  -0.117  23.597  0.00  0.00    +0.194 C 
ENDBRANCH  20   5
ENDBRANCH  19  20
ENDBRANCH  14  15
ENDBRANCH  10  14
TORSDOF 9
ENDMDL
MODEL 6
REMARK VINA RESULT:      -2.7      2.490      4.657
REMARK  Name = 75536290
REMARK  10 active torsions:
REMARK  status: ('A' for Active; 'I' for Inactive)
REMARK    1  A    between atoms: O_3  and  C_9
REMARK    2  A    between atoms: O_5  and  C_20
REMARK    3  A    between atoms: O_5  and  C_26
REMARK    4  A    between atoms: N_6  and  C_13
REMARK    5  A    between atoms: N_6  and  C_16
REMARK    6  A    between atoms: C_8  and  C_13
REMARK    7  A    between atoms: C_10  and  C_14
REMARK    8  A    between atoms: C_14  and  C_15
REMARK    9  A    between atoms: C_16  and  C_18
REMARK   10  A    between atoms: C_19  and  C_20
REMARK                            x       y       z     vdW  Elec       q    Type
REMARK                         _______ _______ _______ _____ _____    ______ ____
ROOT
ATOM      2  O   UNL     1      -3.623   2.484  25.589  0.00  0.00    -0.369 OA
ATOM      8  C   UNL     1      -4.872   1.890  25.209  0.00  0.00    +0.161 C 
ATOM      9  C   UNL     1      -6.061   2.706  25.732  0.00  0.00    +0.145 C 
ATOM     10  C   UNL     1      -3.455   3.849  25.198  0.00  0.00    +0.125 C 
ATOM     11  C   UNL     1      -5.934   4.192  25.406  0.00  0.00    +0.036 C 
ATOM     12  C   UNL     1      -4.557   4.721  25.798  0.00  0.00    +0.034 C 
ENDROOT
BRANCH   9   3
ATOM      3  O   UNL     1      -6.119   2.575  27.155  0.00  0.00    -0.389 OA
ATOM     28  H   UNL     1      -7.057   2.583  27.412  0.00  0.00    +0.210 HD
ENDBRANCH   9   3
BRANCH   8  13
ATOM     13  C   UNL     1      -4.930   1.650  23.702  0.00  0.00    +0.115 C 
BRANCH  13   6
ATOM      6  N   UNL     1      -4.450   0.318  23.369  0.00  0.00    -0.309 NA
ATOM     27  H   UNL     1      -5.044  -0.082  22.642  0.00  0.00    +0.122 HD
BRANCH   6  16
ATOM     16  C   UNL     1      -4.457  -0.548  24.542  0.00  0.00    +0.116 C 
BRANCH  16  18
ATOM      1 CL   UNL     1       0.968  -2.923  25.602  0.00  0.00    -0.084 Cl
ATOM     18  C   UNL     1      -3.100  -1.142  24.807  0.00  0.00    -0.033 A 
ATOM     21  C   UNL     1      -2.200  -0.481  25.643  0.00  0.00    +0.006 A 
ATOM     22  C   UNL     1      -2.741  -2.353  24.215  0.00  0.00    +0.006 A 
ATOM     23  C   UNL     1      -0.942  -1.031  25.889  0.00  0.00    +0.020 A 
ATOM     24  C   UNL     1      -1.483  -2.903  24.459  0.00  0.00    +0.020 A 
ATOM     25  C   UNL     1      -0.584  -2.243  25.297  0.00  0.00    +0.041 A 
ENDBRANCH  16  18
ENDBRANCH   6  16
ENDBRANCH  13   6
ENDBRANCH   8  13
BRANCH  10  14
ATOM     14  C   UNL     1      -2.083   4.298  25.684  0.00  0.00    +0.090 C 
BRANCH  14  15
ATOM      4  O   UNL     1       0.702   2.014  25.583  0.00  0.00    -0.357 OA
ATOM      7  N   UNL     1      -0.130   2.910  26.242  0.00  0.00    -0.083 NA
ATOM     15  C   UNL     1      -1.009   3.309  25.318  0.00  0.00    +0.086 A 
ATOM     17  C   UNL     1      -0.782   2.704  24.069  0.00  0.00    +0.073 A 
ATOM     19  C   UNL     1       0.305   1.900  24.290  0.00  0.00    +0.163 A 
BRANCH  19  20
ATOM     20  C   UNL     1       1.080   0.986  23.444  0.00  0.00    +0.236 C 
BRANCH  20   5
ATOM      5  O   UNL     1       2.458   1.370  23.432  0.00  0.00    -0.375 OA
ATOM     26  C   UNL     1       3.212   0.547  22.557  0.00  0.00    +0.194 C 
ENDBRANCH  20   5
ENDBRANCH  19  20
ENDBRANCH  14  15
ENDBRANCH  10  14
TORSDOF 9
ENDMDL
MODEL 7
REMARK VINA RESULT:      -2.6     18.383     20.468
REMARK  Name = 75536290
REMARK  10 active torsions:
REMARK  status: ('A' for Active; 'I' for Inactive)
REMARK    1  A    between atoms: O_3  and  C_9
REMARK    2  A    between atoms: O_5  and  C_20
REMARK    3  A    between atoms: O_5  and  C_26
REMARK    4  A    between atoms: N_6  and  C_13
REMARK    5  A    between atoms: N_6  and  C_16
REMARK    6  A    between atoms: C_8  and  C_13
REMARK    7  A    between atoms: C_10  and  C_14
REMARK    8  A    between atoms: C_14  and  C_15
REMARK    9  A    between atoms: C_16  and  C_18
REMARK   10  A    between atoms: C_19  and  C_20
REMARK                            x       y       z     vdW  Elec       q    Type
REMARK                         _______ _______ _______ _____ _____    ______ ____
ROOT
ATOM      2  O   UNL     1      14.891  -8.592  29.025  0.00  0.00    -0.369 OA
ATOM      8  C   UNL     1      16.157  -8.157  28.511  0.00  0.00    +0.161 C 
ATOM      9  C   UNL     1      17.320  -8.861  29.221  0.00  0.00    +0.145 C 
ATOM     10  C   UNL     1      14.671 -10.004  28.983  0.00  0.00    +0.125 C 
ATOM     11  C   UNL     1      17.138 -10.376  29.273  0.00  0.00    +0.036 C 
ATOM     12  C   UNL     1      15.746 -10.741  29.781  0.00  0.00    +0.034 C 
ENDROOT
BRANCH   9   3
ATOM      3  O   UNL     1      17.394  -8.384  30.568  0.00  0.00    -0.389 OA
ATOM     28  H   UNL     1      17.543  -7.424  30.531  0.00  0.00    +0.210 HD
ENDBRANCH   9   3
BRANCH   8  13
ATOM     13  C   UNL     1      16.212  -8.299  26.992  0.00  0.00    +0.115 C 
BRANCH  13   6
ATOM      6  N   UNL     1      17.335  -7.557  26.441  0.00  0.00    -0.309 NA
ATOM     27  H   UNL     1      18.206  -8.014  26.711  0.00  0.00    +0.122 HD
BRANCH   6  16
ATOM     16  C   UNL     1      17.335  -6.179  26.916  0.00  0.00    +0.116 C 
BRANCH  16  18
ATOM      1 CL   UNL     1      17.405  -2.242  22.368  0.00  0.00    -0.084 Cl
ATOM     18  C   UNL     1      17.352  -5.194  25.778  0.00  0.00    -0.033 A 
ATOM     21  C   UNL     1      17.342  -3.824  26.041  0.00  0.00    +0.006 A 
ATOM     22  C   UNL     1      17.377  -5.651  24.460  0.00  0.00    +0.006 A 
ATOM     23  C   UNL     1      17.358  -2.911  24.986  0.00  0.00    +0.020 A 
ATOM     24  C   UNL     1      17.393  -4.738  23.405  0.00  0.00    +0.020 A 
ATOM     25  C   UNL     1      17.384  -3.369  23.669  0.00  0.00    +0.041 A 
ENDBRANCH  16  18
ENDBRANCH   6  16
ENDBRANCH  13   6
ENDBRANCH   8  13
BRANCH  10  14
ATOM     14  C   UNL     1      13.288 -10.269  29.563  0.00  0.00    +0.090 C 
BRANCH  14  15
ATOM      4  O   UNL     1      12.887  -8.836  32.844  0.00  0.00    -0.357 OA
ATOM      7  N   UNL     1      13.244  -9.871  31.990  0.00  0.00    -0.083 NA
ATOM     15  C   UNL     1      13.009  -9.402  30.761  0.00  0.00    +0.086 A 
ATOM     17  C   UNL     1      12.506  -8.090  30.778  0.00  0.00    +0.073 A 
ATOM     19  C   UNL     1      12.448  -7.781  32.111  0.00  0.00    +0.163 A 
BRANCH  19  20
ATOM     20  C   UNL     1      12.027  -6.591  32.860  0.00  0.00    +0.236 C 
BRANCH  20   5
ATOM      5  O   UNL     1      12.642  -5.420  32.318  0.00  0.00    -0.375 OA
ATOM     26  C   UNL     1      13.940  -5.225  32.856  0.00  0.00    +0.194 C 
ENDBRANCH  20   5
ENDBRANCH  19  20
ENDBRANCH  14  15
ENDBRANCH  10  14
TORSDOF 9
ENDMDL
MODEL 8
REMARK VINA RESULT:      -2.3      2.066      2.910
REMARK  Name = 75536290
REMARK  10 active torsions:
REMARK  status: ('A' for Active; 'I' for Inactive)
REMARK    1  A    between atoms: O_3  and  C_9
REMARK    2  A    between atoms: O_5  and  C_20
REMARK    3  A    between atoms: O_5  and  C_26
REMARK    4  A    between atoms: N_6  and  C_13
REMARK    5  A    between atoms: N_6  and  C_16
REMARK    6  A    between atoms: C_8  and  C_13
REMARK    7  A    between atoms: C_10  and  C_14
REMARK    8  A    between atoms: C_14  and  C_15
REMARK    9  A    between atoms: C_16  and  C_18
REMARK   10  A    between atoms: C_19  and  C_20
REMARK                            x       y       z     vdW  Elec       q    Type
REMARK                         _______ _______ _______ _____ _____    ______ ____
ROOT
ATOM      2  O   UNL     1      -0.614  -1.144  23.672  0.00  0.00    -0.369 OA
ATOM      8  C   UNL     1      -1.153  -2.236  24.429  0.00  0.00    +0.161 C 
ATOM      9  C   UNL     1      -0.885  -2.063  25.929  0.00  0.00    +0.145 C 
ATOM     10  C   UNL     1      -1.060   0.154  24.074  0.00  0.00    +0.125 C 
ATOM     11  C   UNL     1      -1.281  -0.678  26.434  0.00  0.00    +0.036 C 
ATOM     12  C   UNL     1      -0.705   0.416  25.537  0.00  0.00    +0.034 C 
ENDROOT
BRANCH   9   3
ATOM      3  O   UNL     1       0.515  -2.231  26.169  0.00  0.00    -0.389 OA
ATOM     28  H   UNL     1       0.748  -1.687  26.941  0.00  0.00    +0.210 HD
ENDBRANCH   9   3
BRANCH   8  13
ATOM     13  C   UNL     1      -2.631  -2.450  24.108  0.00  0.00    +0.115 C 
BRANCH  13   6
ATOM      6  N   UNL     1      -3.473  -1.642  24.976  0.00  0.00    -0.309 NA
ATOM     27  H   UNL     1      -3.874  -2.234  25.704  0.00  0.00    +0.122 HD
BRANCH   6  16
ATOM     16  C   UNL     1      -4.542  -1.001  24.219  0.00  0.00    +0.116 C 
BRANCH  16  18
ATOM      1 CL   UNL     1      -5.017   4.851  25.535  0.00  0.00    -0.084 Cl
ATOM     18  C   UNL     1      -4.661   0.463  24.548  0.00  0.00    -0.033 A 
ATOM     21  C   UNL     1      -3.861   1.394  23.886  0.00  0.00    +0.006 A 
ATOM     22  C   UNL     1      -5.570   0.889  25.517  0.00  0.00    +0.006 A 
ATOM     23  C   UNL     1      -3.970   2.751  24.191  0.00  0.00    +0.020 A 
ATOM     24  C   UNL     1      -5.679   2.245  25.823  0.00  0.00    +0.020 A 
ATOM     25  C   UNL     1      -4.880   3.176  25.160  0.00  0.00    +0.041 A 
ENDBRANCH  16  18
ENDBRANCH   6  16
ENDBRANCH  13   6
ENDBRANCH   8  13
BRANCH  10  14
ATOM     14  C   UNL     1      -0.387   1.172  23.162  0.00  0.00    +0.090 C 
BRANCH  14  15
ATOM      4  O   UNL     1       2.705  -0.272  22.007  0.00  0.00    -0.357 OA
ATOM      7  N   UNL     1       1.319  -0.208  22.049  0.00  0.00    -0.083 NA
ATOM     15  C   UNL     1       1.044   0.805  22.876  0.00  0.00    +0.086 A 
ATOM     17  C   UNL     1       2.207   1.411  23.382  0.00  0.00    +0.073 A 
ATOM     19  C   UNL     1       3.224   0.696  22.805  0.00  0.00    +0.163 A 
BRANCH  19  20
ATOM     20  C   UNL     1       4.687   0.772  22.879  0.00  0.00    +0.236 C 
BRANCH  20   5
ATOM      5  O   UNL     1       5.136   0.440  24.196  0.00  0.00    -0.375 OA
ATOM     26  C   UNL     1       5.443  -0.941  24.300  0.00  0.00    +0.194 C 
ENDBRANCH  20   5
ENDBRANCH  19  20
ENDBRANCH  14  15
ENDBRANCH  10  14
TORSDOF 9
ENDMDL
MODEL 9
REMARK VINA RESULT:      -1.8      2.781      5.037
REMARK  Name = 75536290
REMARK  10 active torsions:
REMARK  status: ('A' for Active; 'I' for Inactive)
REMARK    1  A    between atoms: O_3  and  C_9
REMARK    2  A    between atoms: O_5  and  C_20
REMARK    3  A    between atoms: O_5  and  C_26
REMARK    4  A    between atoms: N_6  and  C_13
REMARK    5  A    between atoms: N_6  and  C_16
REMARK    6  A    between atoms: C_8  and  C_13
REMARK    7  A    between atoms: C_10  and  C_14
REMARK    8  A    between atoms: C_14  and  C_15
REMARK    9  A    between atoms: C_16  and  C_18
REMARK   10  A    between atoms: C_19  and  C_20
REMARK                            x       y       z     vdW  Elec       q    Type
REMARK                         _______ _______ _______ _____ _____    ______ ____
ROOT
ATOM      2  O   UNL     1      -4.549   2.444  24.382  0.00  0.00    -0.369 OA
ATOM      8  C   UNL     1      -4.343   3.580  25.232  0.00  0.00    +0.161 C 
ATOM      9  C   UNL     1      -5.586   3.875  26.081  0.00  0.00    +0.145 C 
ATOM     10  C   UNL     1      -4.946   1.246  25.053  0.00  0.00    +0.125 C 
ATOM     11  C   UNL     1      -6.113   2.632  26.792  0.00  0.00    +0.036 C 
ATOM     12  C   UNL     1      -6.250   1.463  25.819  0.00  0.00    +0.034 C 
ENDROOT
BRANCH   9   3
ATOM      3  O   UNL     1      -6.624   4.361  25.225  0.00  0.00    -0.389 OA
ATOM     28  H   UNL     1      -7.439   4.413  25.752  0.00  0.00    +0.210 HD
ENDBRANCH   9   3
BRANCH   8  13
ATOM     13  C   UNL     1      -3.075   3.418  26.067  0.00  0.00    +0.115 C 
BRANCH  13   6
ATOM      6  N   UNL     1      -2.368   4.683  26.189  0.00  0.00    -0.309 NA
ATOM     27  H   UNL     1      -3.045   5.447  26.204  0.00  0.00    +0.122 HD
BRANCH   6  16
ATOM     16  C   UNL     1      -1.438   4.871  25.083  0.00  0.00    +0.116 C 
BRANCH  16  18
ATOM      1 CL   UNL     1       0.701  -0.370  23.045  0.00  0.00    -0.084 Cl
ATOM     18  C   UNL     1      -0.903   3.560  24.573  0.00  0.00    -0.033 A 
ATOM     21  C   UNL     1       0.173   2.947  25.217  0.00  0.00    +0.006 A 
ATOM     22  C   UNL     1      -1.481   2.957  23.455  0.00  0.00    +0.006 A 
ATOM     23  C   UNL     1       0.669   1.732  24.745  0.00  0.00    +0.020 A 
ATOM     24  C   UNL     1      -0.984   1.743  22.982  0.00  0.00    +0.020 A 
ATOM     25  C   UNL     1       0.090   1.130  23.627  0.00  0.00    +0.041 A 
ENDBRANCH  16  18
ENDBRANCH   6  16
ENDBRANCH  13   6
ENDBRANCH   8  13
BRANCH  10  14
ATOM     14  C   UNL     1      -5.112   0.162  23.996  0.00  0.00    +0.090 C 
BRANCH  14  15
ATOM      4  O   UNL     1      -3.284  -2.942  24.099  0.00  0.00    -0.357 OA
ATOM      7  N   UNL     1      -4.423  -2.194  23.827  0.00  0.00    -0.083 NA
ATOM     15  C   UNL     1      -4.101  -0.941  24.162  0.00  0.00    +0.086 A 
ATOM     17  C   UNL     1      -2.786  -0.839  24.647  0.00  0.00    +0.073 A 
ATOM     19  C   UNL     1      -2.317  -2.125  24.587  0.00  0.00    +0.163 A 
BRANCH  19  20
ATOM     20  C   UNL     1      -1.037  -2.755  24.930  0.00  0.00    +0.236 C 
BRANCH  20   5
ATOM      5  O   UNL     1      -0.197  -1.828  25.624  0.00  0.00    -0.375 OA
ATOM     26  C   UNL     1      -0.960  -0.961  26.446  0.00  0.00    +0.194 C 
ENDBRANCH  20   5
ENDBRANCH  19  20
ENDBRANCH  14  15
ENDBRANCH  10  14
TORSDOF 9
ENDMDL
