MODEL 1
REMARK VINA RESULT:       2.6      0.000      0.000
REMARK  Name = 44716833
REMARK  14 active torsions:
REMARK  status: ('A' for Active; 'I' for Inactive)
REMARK    1  A    between atoms: S_1  and  N_11
REMARK    2  A    between atoms: S_1  and  C_25
REMARK    3  A    between atoms: O_6  and  C_24
REMARK    4  A    between atoms: O_6  and  C_31
REMARK    5  A    between atoms: O_8  and  C_37
REMARK    6  A    between atoms: N_11  and  C_16
REMARK    7  A    between atoms: N_12  and  C_23
REMARK    8  A    between atoms: N_14  and  C_34
REMARK    9  A    between atoms: C_18  and  C_21
REMARK   10  A    between atoms: C_22  and  C_24
REMARK   11  A    between atoms: C_23  and  C_26
REMARK   12  A    between atoms: C_23  and  C_27
REMARK   13  A    between atoms: C_26  and  C_29
REMARK   14  A    between atoms: C_31  and  C_37
REMARK                            x       y       z     vdW  Elec       q    Type
REMARK                         _______ _______ _______ _____ _____    ______ ____
ROOT
ATOM      3  O   UNL     1      -4.176   0.072  23.989  0.00  0.00    -0.273 OA
ATOM     10  N   UNL     1      -2.057   0.849  24.563  0.00  0.00    -0.288 N 
ATOM     16  C   UNL     1       0.588   1.709  23.695  0.00  0.00    +0.080 C 
ATOM     17  C   UNL     1       0.402   0.986  25.029  0.00  0.00    +0.052 C 
ATOM     18  C   UNL     1      -1.021   1.097  25.580  0.00  0.00    +0.163 C 
ATOM     19  C   UNL     1      -0.480   1.274  22.696  0.00  0.00    +0.039 C 
ATOM     20  C   UNL     1      -1.874   1.508  23.264  0.00  0.00    +0.110 C 
ATOM     22  C   UNL     1      -3.253   0.163  24.804  0.00  0.00    +0.242 C 
ENDROOT
BRANCH  18  21
ATOM      2  O   UNL     1      -0.779   2.828  27.209  0.00  0.00    -0.274 OA
ATOM     12  N   UNL     1      -2.196   3.179  25.395  0.00  0.00    -0.302 N 
ATOM     21  C   UNL     1      -1.298   2.454  26.161  0.00  0.00    +0.234 C 
ATOM     40  H   UNL     1      -2.504   2.805  24.502  0.00  0.00    +0.150 HD
BRANCH  12  23
ATOM     23  C   UNL     1      -2.645   4.506  25.748  0.00  0.00    +0.163 C 
BRANCH  23  27
ATOM      7  O   UNL     1      -1.877   6.699  25.037  0.00  0.00    -0.274 OA
ATOM     15  N   UNL     1      -0.493   4.893  24.718  0.00  0.00    -0.328 N 
ATOM     27  C   UNL     1      -1.666   5.491  25.126  0.00  0.00    +0.231 C 
ATOM     41  H   UNL     1      -0.324   3.896  24.819  0.00  0.00    +0.145 HD
ATOM     42  H   UNL     1       0.252   5.440  24.299  0.00  0.00    +0.145 HD
ENDBRANCH  23  27
BRANCH  23  26
ATOM     26  C   UNL     1      -4.070   4.785  25.256  0.00  0.00    +0.067 C 
BRANCH  26  29
ATOM     29  C   UNL     1      -4.987   3.598  25.418  0.00  0.00    -0.045 A 
ATOM     32  C   UNL     1      -5.516   2.968  24.292  0.00  0.00    +0.004 A 
ATOM     33  C   UNL     1      -5.307   3.130  26.693  0.00  0.00    +0.004 A 
ATOM     35  C   UNL     1      -6.364   1.870  24.440  0.00  0.00    +0.000 A 
ATOM     36  C   UNL     1      -6.154   2.034  26.842  0.00  0.00    +0.000 A 
ATOM     38  C   UNL     1      -6.684   1.403  25.715  0.00  0.00    +0.000 A 
ENDBRANCH  26  29
ENDBRANCH  23  26
ENDBRANCH  12  23
ENDBRANCH  18  21
BRANCH  16  11
ATOM     11  N   UNL     1       1.931   1.394  23.150  0.00  0.00    -0.185 NA
ATOM     39  H   UNL     1       2.459   2.191  22.773  0.00  0.00    +0.148 HD
BRANCH  11   1
ATOM      1  S   UNL     1       2.256  -0.161  22.548  0.00  0.00    +0.077 S 
ATOM      4  O   UNL     1       2.296  -0.119  21.099  0.00  0.00    -0.152 OA
ATOM      5  O   UNL     1       1.399  -1.113  23.227  0.00  0.00    -0.152 OA
BRANCH   1  25
ATOM     13  N   UNL     1       4.238  -1.546  23.871  0.00  0.00    -0.216 NA
ATOM     14  N   UNL     1       6.023  -0.263  23.563  0.00  0.00    -0.338 N 
ATOM     25  C   UNL     1       3.902  -0.440  23.130  0.00  0.00    +0.211 A 
ATOM     28  C   UNL     1       4.993   0.371  22.927  0.00  0.00    +0.135 A 
ATOM     30  C   UNL     1       5.522  -1.408  24.114  0.00  0.00    +0.201 A 
ATOM     34  C   UNL     1       7.390   0.193  23.639  0.00  0.00    +0.150 C 
ENDBRANCH   1  25
ENDBRANCH  11   1
ENDBRANCH  16  11
BRANCH  22  24
ATOM     24  C   UNL     1      -3.393  -0.508  26.148  0.00  0.00    +0.256 C 
BRANCH  24   6
ATOM      6  O   UNL     1      -3.996  -1.757  25.913  0.00  0.00    -0.359 OA
BRANCH   6  31
ATOM     31  C   UNL     1      -3.032  -2.790  25.716  0.00  0.00    +0.280 C 
BRANCH  31  37
ATOM      9  O   UNL     1      -1.529  -2.875  23.808  0.00  0.00    -0.248 OA
ATOM     37  C   UNL     1      -2.665  -2.872  24.260  0.00  0.00    +0.331 C 
BRANCH  37   8
ATOM      8  O   UNL     1      -3.785  -2.944  23.498  0.00  0.00    -0.479 OA
ATOM     43  H   UNL     1      -3.671  -2.490  22.636  0.00  0.00    +0.295 HD
ENDBRANCH  37   8
ENDBRANCH  31  37
ENDBRANCH   6  31
ENDBRANCH  24   6
ENDBRANCH  22  24
TORSDOF 13
ENDMDL
MODEL 2
REMARK VINA RESULT:       2.8      1.889      4.895
REMARK  Name = 44716833
REMARK  14 active torsions:
REMARK  status: ('A' for Active; 'I' for Inactive)
REMARK    1  A    between atoms: S_1  and  N_11
REMARK    2  A    between atoms: S_1  and  C_25
REMARK    3  A    between atoms: O_6  and  C_24
REMARK    4  A    between atoms: O_6  and  C_31
REMARK    5  A    between atoms: O_8  and  C_37
REMARK    6  A    between atoms: N_11  and  C_16
REMARK    7  A    between atoms: N_12  and  C_23
REMARK    8  A    between atoms: N_14  and  C_34
REMARK    9  A    between atoms: C_18  and  C_21
REMARK   10  A    between atoms: C_22  and  C_24
REMARK   11  A    between atoms: C_23  and  C_26
REMARK   12  A    between atoms: C_23  and  C_27
REMARK   13  A    between atoms: C_26  and  C_29
REMARK   14  A    between atoms: C_31  and  C_37
REMARK                            x       y       z     vdW  Elec       q    Type
REMARK                         _______ _______ _______ _____ _____    ______ ____
ROOT
ATOM      3  O   UNL     1      -1.758   4.686  26.097  0.00  0.00    -0.273 OA
ATOM     10  N   UNL     1      -1.544   2.785  24.770  0.00  0.00    -0.288 N 
ATOM     16  C   UNL     1      -0.117   0.310  24.195  0.00  0.00    +0.080 C 
ATOM     17  C   UNL     1      -0.749   1.126  23.067  0.00  0.00    +0.052 C 
ATOM     18  C   UNL     1      -1.881   2.038  23.547  0.00  0.00    +0.163 C 
ATOM     19  C   UNL     1       0.292   1.220  25.350  0.00  0.00    +0.039 C 
ATOM     20  C   UNL     1      -0.902   2.023  25.850  0.00  0.00    +0.110 C 
ATOM     22  C   UNL     1      -1.926   4.108  25.019  0.00  0.00    +0.242 C 
ENDROOT
BRANCH  18  21
ATOM      2  O   UNL     1      -3.770   0.703  22.951  0.00  0.00    -0.274 OA
ATOM     12  N   UNL     1      -3.484   1.319  25.178  0.00  0.00    -0.302 N 
ATOM     21  C   UNL     1      -3.140   1.273  23.836  0.00  0.00    +0.234 C 
ATOM     40  H   UNL     1      -2.848   1.752  25.840  0.00  0.00    +0.150 HD
BRANCH  12  23
ATOM     23  C   UNL     1      -4.664   0.680  25.713  0.00  0.00    +0.163 C 
BRANCH  23  27
ATOM      7  O   UNL     1      -6.164   2.021  24.350  0.00  0.00    -0.274 OA
ATOM     15  N   UNL     1      -6.520   1.938  26.618  0.00  0.00    -0.328 N 
ATOM     27  C   UNL     1      -5.834   1.621  25.464  0.00  0.00    +0.231 C 
ATOM     41  H   UNL     1      -6.249   1.582  27.529  0.00  0.00    +0.145 HD
ATOM     42  H   UNL     1      -7.331   2.547  26.590  0.00  0.00    +0.145 HD
ENDBRANCH  23  27
BRANCH  23  26
ATOM     26  C   UNL     1      -4.929  -0.684  25.067  0.00  0.00    +0.067 C 
BRANCH  26  29
ATOM     29  C   UNL     1      -3.684  -1.531  24.959  0.00  0.00    -0.045 A 
ATOM     32  C   UNL     1      -2.619  -1.319  25.834  0.00  0.00    +0.004 A 
ATOM     33  C   UNL     1      -3.597  -2.525  23.984  0.00  0.00    +0.004 A 
ATOM     35  C   UNL     1      -1.468  -2.100  25.735  0.00  0.00    +0.000 A 
ATOM     36  C   UNL     1      -2.447  -3.306  23.885  0.00  0.00    +0.000 A 
ATOM     38  C   UNL     1      -1.381  -3.094  24.760  0.00  0.00    +0.000 A 
ENDBRANCH  26  29
ENDBRANCH  23  26
ENDBRANCH  12  23
ENDBRANCH  18  21
BRANCH  16  11
ATOM     11  N   UNL     1       1.080  -0.396  23.677  0.00  0.00    -0.185 NA
ATOM     39  H   UNL     1       1.458  -1.137  24.280  0.00  0.00    +0.148 HD
BRANCH  11   1
ATOM      1  S   UNL     1       2.126   0.393  22.597  0.00  0.00    +0.077 S 
ATOM      4  O   UNL     1       2.078   1.822  22.836  0.00  0.00    -0.152 OA
ATOM      5  O   UNL     1       1.904  -0.132  21.264  0.00  0.00    -0.152 OA
BRANCH   1  25
ATOM     13  N   UNL     1       3.864  -1.407  23.752  0.00  0.00    -0.216 NA
ATOM     14  N   UNL     1       5.829  -0.395  23.543  0.00  0.00    -0.338 N 
ATOM     25  C   UNL     1       3.707  -0.195  23.126  0.00  0.00    +0.211 A 
ATOM     28  C   UNL     1       4.913   0.451  22.986  0.00  0.00    +0.135 A 
ATOM     30  C   UNL     1       5.154  -1.495  23.989  0.00  0.00    +0.201 A 
ATOM     34  C   UNL     1       7.251  -0.168  23.643  0.00  0.00    +0.150 C 
ENDBRANCH   1  25
ENDBRANCH  11   1
ENDBRANCH  16  11
BRANCH  22  24
ATOM     24  C   UNL     1      -2.571   4.855  23.879  0.00  0.00    +0.256 C 
BRANCH  24   6
ATOM      6  O   UNL     1      -3.895   4.387  23.789  0.00  0.00    -0.359 OA
BRANCH   6  31
ATOM     31  C   UNL     1      -4.820   5.266  24.426  0.00  0.00    +0.280 C 
BRANCH  31  37
ATOM      9  O   UNL     1      -4.597   4.079  26.536  0.00  0.00    -0.248 OA
ATOM     37  C   UNL     1      -5.296   4.656  25.716  0.00  0.00    +0.331 C 
BRANCH  37   8
ATOM      8  O   UNL     1      -6.634   4.835  25.852  0.00  0.00    -0.479 OA
ATOM     43  H   UNL     1      -6.867   5.198  26.733  0.00  0.00    +0.295 HD
ENDBRANCH  37   8
ENDBRANCH  31  37
ENDBRANCH   6  31
ENDBRANCH  24   6
ENDBRANCH  22  24
TORSDOF 13
ENDMDL
MODEL 3
REMARK VINA RESULT:       3.3      2.895      8.133
REMARK  Name = 44716833
REMARK  14 active torsions:
REMARK  status: ('A' for Active; 'I' for Inactive)
REMARK    1  A    between atoms: S_1  and  N_11
REMARK    2  A    between atoms: S_1  and  C_25
REMARK    3  A    between atoms: O_6  and  C_24
REMARK    4  A    between atoms: O_6  and  C_31
REMARK    5  A    between atoms: O_8  and  C_37
REMARK    6  A    between atoms: N_11  and  C_16
REMARK    7  A    between atoms: N_12  and  C_23
REMARK    8  A    between atoms: N_14  and  C_34
REMARK    9  A    between atoms: C_18  and  C_21
REMARK   10  A    between atoms: C_22  and  C_24
REMARK   11  A    between atoms: C_23  and  C_26
REMARK   12  A    between atoms: C_23  and  C_27
REMARK   13  A    between atoms: C_26  and  C_29
REMARK   14  A    between atoms: C_31  and  C_37
REMARK                            x       y       z     vdW  Elec       q    Type
REMARK                         _______ _______ _______ _____ _____    ______ ____
ROOT
ATOM      3  O   UNL     1       0.983   4.444  25.968  0.00  0.00    -0.273 OA
ATOM     10  N   UNL     1      -0.852   3.095  25.486  0.00  0.00    -0.288 N 
ATOM     16  C   UNL     1      -3.526   2.858  24.354  0.00  0.00    +0.080 C 
ATOM     17  C   UNL     1      -3.107   2.002  25.548  0.00  0.00    +0.052 C 
ATOM     18  C   UNL     1      -1.590   1.834  25.664  0.00  0.00    +0.163 C 
ATOM     19  C   UNL     1      -2.772   4.185  24.355  0.00  0.00    +0.039 C 
ATOM     20  C   UNL     1      -1.268   3.947  24.364  0.00  0.00    +0.110 C 
ATOM     22  C   UNL     1       0.291   3.452  26.210  0.00  0.00    +0.242 C 
ENDROOT
BRANCH  18  21
ATOM      2  O   UNL     1      -1.428   0.872  23.483  0.00  0.00    -0.274 OA
ATOM     12  N   UNL     1      -0.125  -0.006  25.201  0.00  0.00    -0.302 N 
ATOM     21  C   UNL     1      -1.050   0.867  24.651  0.00  0.00    +0.234 C 
ATOM     40  H   UNL     1       0.176   0.127  26.162  0.00  0.00    +0.150 HD
BRANCH  12  23
ATOM     23  C   UNL     1       0.526  -1.049  24.442  0.00  0.00    +0.163 C 
BRANCH  23  27
ATOM      7  O   UNL     1      -0.898  -2.434  23.043  0.00  0.00    -0.274 OA
ATOM     15  N   UNL     1      -0.952  -2.749  25.318  0.00  0.00    -0.328 N 
ATOM     27  C   UNL     1      -0.516  -2.123  24.169  0.00  0.00    +0.231 C 
ATOM     41  H   UNL     1      -0.611  -2.496  26.240  0.00  0.00    +0.145 HD
ATOM     42  H   UNL     1      -1.638  -3.495  25.275  0.00  0.00    +0.145 HD
ENDBRANCH  23  27
BRANCH  23  26
ATOM     26  C   UNL     1       1.113  -0.527  23.126  0.00  0.00    +0.067 C 
BRANCH  26  29
ATOM     29  C   UNL     1       2.605  -0.310  23.198  0.00  0.00    -0.045 A 
ATOM     32  C   UNL     1       3.159   0.883  22.734  0.00  0.00    +0.004 A 
ATOM     33  C   UNL     1       3.431  -1.301  23.727  0.00  0.00    +0.004 A 
ATOM     35  C   UNL     1       4.537   1.085  22.799  0.00  0.00    +0.000 A 
ATOM     36  C   UNL     1       4.809  -1.100  23.793  0.00  0.00    +0.000 A 
ATOM     38  C   UNL     1       5.363   0.094  23.329  0.00  0.00    +0.000 A 
ENDBRANCH  26  29
ENDBRANCH  23  26
ENDBRANCH  12  23
ENDBRANCH  18  21
BRANCH  16  11
ATOM     11  N   UNL     1      -4.985   3.120  24.427  0.00  0.00    -0.185 NA
ATOM     39  H   UNL     1      -5.269   4.103  24.328  0.00  0.00    +0.148 HD
BRANCH  11   1
ATOM      1  S   UNL     1      -5.992   2.062  25.294  0.00  0.00    +0.077 S 
ATOM      4  O   UNL     1      -7.269   1.950  24.617  0.00  0.00    -0.152 OA
ATOM      5  O   UNL     1      -5.939   2.413  26.699  0.00  0.00    -0.152 OA
BRANCH   1  25
ATOM     13  N   UNL     1      -4.363  -0.004  26.114  0.00  0.00    -0.216 NA
ATOM     14  N   UNL     1      -4.358  -1.354  24.351  0.00  0.00    -0.338 N 
ATOM     25  C   UNL     1      -5.142   0.522  25.114  0.00  0.00    +0.211 A 
ATOM     28  C   UNL     1      -5.154  -0.297  24.010  0.00  0.00    +0.135 A 
ATOM     30  C   UNL     1      -3.906  -1.134  25.622  0.00  0.00    +0.201 A 
ATOM     34  C   UNL     1      -4.050  -2.494  23.522  0.00  0.00    +0.150 C 
ENDBRANCH   1  25
ENDBRANCH  11   1
ENDBRANCH  16  11
BRANCH  22  24
ATOM     24  C   UNL     1       0.674   2.554  27.360  0.00  0.00    +0.256 C 
BRANCH  24   6
ATOM      6  O   UNL     1       2.067   2.674  27.518  0.00  0.00    -0.359 OA
BRANCH   6  31
ATOM     31  C   UNL     1       2.420   3.157  28.813  0.00  0.00    +0.280 C 
BRANCH  31  37
ATOM      9  O   UNL     1       0.596   2.824  30.384  0.00  0.00    -0.248 OA
ATOM     37  C   UNL     1       1.628   2.427  29.863  0.00  0.00    +0.331 C 
BRANCH  37   8
ATOM      8  O   UNL     1       2.222   1.245  30.160  0.00  0.00    -0.479 OA
ATOM     43  H   UNL     1       3.190   1.343  30.284  0.00  0.00    +0.295 HD
ENDBRANCH  37   8
ENDBRANCH  31  37
ENDBRANCH   6  31
ENDBRANCH  24   6
ENDBRANCH  22  24
TORSDOF 13
ENDMDL
MODEL 4
REMARK VINA RESULT:       3.8      2.962      8.207
REMARK  Name = 44716833
REMARK  14 active torsions:
REMARK  status: ('A' for Active; 'I' for Inactive)
REMARK    1  A    between atoms: S_1  and  N_11
REMARK    2  A    between atoms: S_1  and  C_25
REMARK    3  A    between atoms: O_6  and  C_24
REMARK    4  A    between atoms: O_6  and  C_31
REMARK    5  A    between atoms: O_8  and  C_37
REMARK    6  A    between atoms: N_11  and  C_16
REMARK    7  A    between atoms: N_12  and  C_23
REMARK    8  A    between atoms: N_14  and  C_34
REMARK    9  A    between atoms: C_18  and  C_21
REMARK   10  A    between atoms: C_22  and  C_24
REMARK   11  A    between atoms: C_23  and  C_26
REMARK   12  A    between atoms: C_23  and  C_27
REMARK   13  A    between atoms: C_26  and  C_29
REMARK   14  A    between atoms: C_31  and  C_37
REMARK                            x       y       z     vdW  Elec       q    Type
REMARK                         _______ _______ _______ _____ _____    ______ ____
ROOT
ATOM      3  O   UNL     1       0.054   3.722  23.763  0.00  0.00    -0.273 OA
ATOM     10  N   UNL     1      -1.396   2.131  24.649  0.00  0.00    -0.288 N 
ATOM     16  C   UNL     1      -3.816   0.536  24.342  0.00  0.00    +0.080 C 
ATOM     17  C   UNL     1      -3.370   1.018  25.722  0.00  0.00    +0.052 C 
ATOM     18  C   UNL     1      -1.875   1.337  25.794  0.00  0.00    +0.163 C 
ATOM     19  C   UNL     1      -3.356   1.509  23.260  0.00  0.00    +0.039 C 
ATOM     20  C   UNL     1      -1.846   1.702  23.318  0.00  0.00    +0.110 C 
ATOM     22  C   UNL     1      -0.443   3.151  24.738  0.00  0.00    +0.242 C 
ENDROOT
BRANCH  18  21
ATOM      2  O   UNL     1      -1.101  -0.696  26.780  0.00  0.00    -0.274 OA
ATOM     12  N   UNL     1      -0.195  -0.015  24.747  0.00  0.00    -0.302 N 
ATOM     21  C   UNL     1      -1.034   0.095  25.844  0.00  0.00    +0.234 C 
ATOM     40  H   UNL     1      -0.277   0.656  23.988  0.00  0.00    +0.150 HD
BRANCH  12  23
ATOM     23  C   UNL     1       0.732  -1.108  24.566  0.00  0.00    +0.163 C 
BRANCH  23  27
ATOM      7  O   UNL     1       0.297  -3.314  25.490  0.00  0.00    -0.274 OA
ATOM     15  N   UNL     1      -1.234  -2.411  24.035  0.00  0.00    -0.328 N 
ATOM     27  C   UNL     1      -0.055  -2.398  24.749  0.00  0.00    +0.231 C 
ATOM     41  H   UNL     1      -1.523  -1.637  23.444  0.00  0.00    +0.145 HD
ATOM     42  H   UNL     1      -1.861  -3.207  24.079  0.00  0.00    +0.145 HD
ENDBRANCH  23  27
BRANCH  23  26
ATOM     26  C   UNL     1       1.399  -1.081  23.187  0.00  0.00    +0.067 C 
BRANCH  26  29
ATOM     29  C   UNL     1       2.834  -0.615  23.241  0.00  0.00    -0.045 A 
ATOM     32  C   UNL     1       3.185   0.625  22.709  0.00  0.00    +0.004 A 
ATOM     33  C   UNL     1       3.809  -1.425  23.824  0.00  0.00    +0.004 A 
ATOM     35  C   UNL     1       4.510   1.056  22.759  0.00  0.00    +0.000 A 
ATOM     36  C   UNL     1       5.134  -0.994  23.874  0.00  0.00    +0.000 A 
ATOM     38  C   UNL     1       5.486   0.247  23.342  0.00  0.00    +0.000 A 
ENDBRANCH  26  29
ENDBRANCH  23  26
ENDBRANCH  12  23
ENDBRANCH  18  21
BRANCH  16  11
ATOM     11  N   UNL     1      -5.295   0.431  24.314  0.00  0.00    -0.185 NA
ATOM     39  H   UNL     1      -5.694  -0.063  23.506  0.00  0.00    +0.148 HD
BRANCH  11   1
ATOM      1  S   UNL     1      -6.241   1.599  25.105  0.00  0.00    +0.077 S 
ATOM      4  O   UNL     1      -6.513   1.162  26.461  0.00  0.00    -0.152 OA
ATOM      5  O   UNL     1      -7.331   1.987  24.232  0.00  0.00    -0.152 OA
BRANCH   1  25
ATOM     13  N   UNL     1      -4.668   3.467  26.381  0.00  0.00    -0.216 NA
ATOM     14  N   UNL     1      -3.820   4.632  24.691  0.00  0.00    -0.338 N 
ATOM     25  C   UNL     1      -5.131   2.972  25.188  0.00  0.00    +0.211 A 
ATOM     28  C   UNL     1      -4.619   3.679  24.125  0.00  0.00    +0.135 A 
ATOM     30  C   UNL     1      -3.882   4.466  26.046  0.00  0.00    +0.201 A 
ATOM     34  C   UNL     1      -3.053   5.631  23.988  0.00  0.00    +0.150 C 
ENDBRANCH   1  25
ENDBRANCH  11   1
ENDBRANCH  16  11
BRANCH  22  24
ATOM     24  C   UNL     1      -0.019   3.566  26.125  0.00  0.00    +0.256 C 
BRANCH  24   6
ATOM      6  O   UNL     1       0.848   2.564  26.598  0.00  0.00    -0.359 OA
BRANCH   6  31
ATOM     31  C   UNL     1       0.644   2.288  27.982  0.00  0.00    +0.280 C 
BRANCH  31  37
ATOM      9  O   UNL     1       2.830   3.273  28.382  0.00  0.00    -0.248 OA
ATOM     37  C   UNL     1       1.914   2.551  28.746  0.00  0.00    +0.331 C 
BRANCH  37   8
ATOM      8  O   UNL     1       1.906   1.867  29.917  0.00  0.00    -0.479 OA
ATOM     43  H   UNL     1       2.750   1.969  30.406  0.00  0.00    +0.295 HD
ENDBRANCH  37   8
ENDBRANCH  31  37
ENDBRANCH   6  31
ENDBRANCH  24   6
ENDBRANCH  22  24
TORSDOF 13
ENDMDL
MODEL 5
REMARK VINA RESULT:       4.0      1.695      4.999
REMARK  Name = 44716833
REMARK  14 active torsions:
REMARK  status: ('A' for Active; 'I' for Inactive)
REMARK    1  A    between atoms: S_1  and  N_11
REMARK    2  A    between atoms: S_1  and  C_25
REMARK    3  A    between atoms: O_6  and  C_24
REMARK    4  A    between atoms: O_6  and  C_31
REMARK    5  A    between atoms: O_8  and  C_37
REMARK    6  A    between atoms: N_11  and  C_16
REMARK    7  A    between atoms: N_12  and  C_23
REMARK    8  A    between atoms: N_14  and  C_34
REMARK    9  A    between atoms: C_18  and  C_21
REMARK   10  A    between atoms: C_22  and  C_24
REMARK   11  A    between atoms: C_23  and  C_26
REMARK   12  A    between atoms: C_23  and  C_27
REMARK   13  A    between atoms: C_26  and  C_29
REMARK   14  A    between atoms: C_31  and  C_37
REMARK                            x       y       z     vdW  Elec       q    Type
REMARK                         _______ _______ _______ _____ _____    ______ ____
ROOT
ATOM      3  O   UNL     1      -2.132   3.821  27.674  0.00  0.00    -0.273 OA
ATOM     10  N   UNL     1      -1.921   2.935  25.531  0.00  0.00    -0.288 N 
ATOM     16  C   UNL     1      -0.370   1.343  23.648  0.00  0.00    +0.080 C 
ATOM     17  C   UNL     1      -1.203   2.529  23.164  0.00  0.00    +0.052 C 
ATOM     18  C   UNL     1      -2.341   2.894  24.120  0.00  0.00    +0.163 C 
ATOM     19  C   UNL     1       0.099   1.567  25.083  0.00  0.00    +0.039 C 
ATOM     20  C   UNL     1      -1.089   1.821  26.002  0.00  0.00    +0.110 C 
ATOM     22  C   UNL     1      -2.381   3.870  26.466  0.00  0.00    +0.242 C 
ENDROOT
BRANCH  18  21
ATOM      2  O   UNL     1      -3.878   1.482  22.959  0.00  0.00    -0.274 OA
ATOM     12  N   UNL     1      -4.020   1.635  25.278  0.00  0.00    -0.302 N 
ATOM     21  C   UNL     1      -3.484   1.926  24.034  0.00  0.00    +0.234 C 
ATOM     40  H   UNL     1      -3.566   1.996  26.112  0.00  0.00    +0.150 HD
BRANCH  12  23
ATOM     23  C   UNL     1      -5.143   0.747  25.467  0.00  0.00    +0.163 C 
BRANCH  23  27
ATOM      7  O   UNL     1      -7.110   1.717  24.419  0.00  0.00    -0.274 OA
ATOM     15  N   UNL     1      -6.697   2.189  26.629  0.00  0.00    -0.328 N 
ATOM     27  C   UNL     1      -6.402   1.600  25.418  0.00  0.00    +0.231 C 
ATOM     41  H   UNL     1      -6.115   2.066  27.452  0.00  0.00    +0.145 HD
ATOM     42  H   UNL     1      -7.519   2.774  26.737  0.00  0.00    +0.145 HD
ENDBRANCH  23  27
BRANCH  23  26
ATOM     26  C   UNL     1      -5.200  -0.352  24.400  0.00  0.00    +0.067 C 
BRANCH  26  29
ATOM     29  C   UNL     1      -4.039  -1.312  24.488  0.00  0.00    -0.045 A 
ATOM     32  C   UNL     1      -4.057  -2.497  23.752  0.00  0.00    +0.004 A 
ATOM     33  C   UNL     1      -2.947  -1.014  25.303  0.00  0.00    +0.004 A 
ATOM     35  C   UNL     1      -2.984  -3.384  23.833  0.00  0.00    +0.000 A 
ATOM     36  C   UNL     1      -1.875  -1.901  25.384  0.00  0.00    +0.000 A 
ATOM     38  C   UNL     1      -1.893  -3.087  24.648  0.00  0.00    +0.000 A 
ENDBRANCH  26  29
ENDBRANCH  23  26
ENDBRANCH  12  23
ENDBRANCH  18  21
BRANCH  16  11
ATOM     11  N   UNL     1       0.810   1.180  22.764  0.00  0.00    -0.185 NA
ATOM     39  H   UNL     1       0.936   1.906  22.048  0.00  0.00    +0.148 HD
BRANCH  11   1
ATOM      1  S   UNL     1       1.447  -0.369  22.479  0.00  0.00    +0.077 S 
ATOM      4  O   UNL     1       1.442  -0.638  21.054  0.00  0.00    -0.152 OA
ATOM      5  O   UNL     1       0.831  -1.303  23.401  0.00  0.00    -0.152 OA
BRANCH   1  25
ATOM     13  N   UNL     1       3.797   1.020  22.858  0.00  0.00    -0.216 NA
ATOM     14  N   UNL     1       5.127  -0.506  23.771  0.00  0.00    -0.338 N 
ATOM     25  C   UNL     1       3.128  -0.171  22.990  0.00  0.00    +0.211 A 
ATOM     28  C   UNL     1       3.933  -1.133  23.554  0.00  0.00    +0.135 A 
ATOM     30  C   UNL     1       4.998   0.783  23.337  0.00  0.00    +0.201 A 
ATOM     34  C   UNL     1       6.309  -1.096  24.351  0.00  0.00    +0.150 C 
ENDBRANCH   1  25
ENDBRANCH  11   1
ENDBRANCH  16  11
BRANCH  22  24
ATOM     24  C   UNL     1      -3.223   5.004  25.935  0.00  0.00    +0.256 C 
BRANCH  24   6
ATOM      6  O   UNL     1      -2.340   6.063  25.656  0.00  0.00    -0.359 OA
BRANCH   6  31
ATOM     31  C   UNL     1      -1.850   6.014  24.317  0.00  0.00    +0.280 C 
BRANCH  31  37
ATOM      9  O   UNL     1       0.194   5.130  25.291  0.00  0.00    -0.248 OA
ATOM     37  C   UNL     1      -0.450   5.463  24.307  0.00  0.00    +0.331 C 
BRANCH  37   8
ATOM      8  O   UNL     1       0.012   5.383  23.034  0.00  0.00    -0.479 OA
ATOM     43  H   UNL     1      -0.719   5.328  22.382  0.00  0.00    +0.295 HD
ENDBRANCH  37   8
ENDBRANCH  31  37
ENDBRANCH   6  31
ENDBRANCH  24   6
ENDBRANCH  22  24
TORSDOF 13
ENDMDL
MODEL 6
REMARK VINA RESULT:       4.1      2.548      7.393
REMARK  Name = 44716833
REMARK  14 active torsions:
REMARK  status: ('A' for Active; 'I' for Inactive)
REMARK    1  A    between atoms: S_1  and  N_11
REMARK    2  A    between atoms: S_1  and  C_25
REMARK    3  A    between atoms: O_6  and  C_24
REMARK    4  A    between atoms: O_6  and  C_31
REMARK    5  A    between atoms: O_8  and  C_37
REMARK    6  A    between atoms: N_11  and  C_16
REMARK    7  A    between atoms: N_12  and  C_23
REMARK    8  A    between atoms: N_14  and  C_34
REMARK    9  A    between atoms: C_18  and  C_21
REMARK   10  A    between atoms: C_22  and  C_24
REMARK   11  A    between atoms: C_23  and  C_26
REMARK   12  A    between atoms: C_23  and  C_27
REMARK   13  A    between atoms: C_26  and  C_29
REMARK   14  A    between atoms: C_31  and  C_37
REMARK                            x       y       z     vdW  Elec       q    Type
REMARK                         _______ _______ _______ _____ _____    ______ ____
ROOT
ATOM      3  O   UNL     1       1.589  -0.306  21.512  0.00  0.00    -0.273 OA
ATOM     10  N   UNL     1       0.333   1.002  22.972  0.00  0.00    -0.288 N 
ATOM     16  C   UNL     1      -2.124   2.481  23.487  0.00  0.00    +0.080 C 
ATOM     17  C   UNL     1      -0.796   2.945  24.084  0.00  0.00    +0.052 C 
ATOM     18  C   UNL     1       0.240   1.822  24.191  0.00  0.00    +0.163 C 
ATOM     19  C   UNL     1      -1.892   1.748  22.168  0.00  0.00    +0.039 C 
ATOM     20  C   UNL     1      -0.935   0.579  22.365  0.00  0.00    +0.110 C 
ATOM     22  C   UNL     1       1.528   0.488  22.454  0.00  0.00    +0.242 C 
ENDROOT
BRANCH  18  21
ATOM      2  O   UNL     1      -0.196   1.284  26.477  0.00  0.00    -0.274 OA
ATOM     12  N   UNL     1      -0.132  -0.435  24.907  0.00  0.00    -0.302 N 
ATOM     21  C   UNL     1      -0.059   0.885  25.324  0.00  0.00    +0.234 C 
ATOM     40  H   UNL     1      -0.081  -0.647  23.916  0.00  0.00    +0.150 HD
BRANCH  12  23
ATOM     23  C   UNL     1      -0.385  -1.535  25.808  0.00  0.00    +0.163 C 
BRANCH  23  27
ATOM      7  O   UNL     1      -2.545  -0.803  26.647  0.00  0.00    -0.274 OA
ATOM     15  N   UNL     1      -0.778  -0.915  28.112  0.00  0.00    -0.328 N 
ATOM     27  C   UNL     1      -1.358  -1.034  26.866  0.00  0.00    +0.231 C 
ATOM     41  H   UNL     1       0.199  -1.132  28.282  0.00  0.00    +0.145 HD
ATOM     42  H   UNL     1      -1.321  -0.604  28.910  0.00  0.00    +0.145 HD
ENDBRANCH  23  27
BRANCH  23  26
ATOM     26  C   UNL     1      -0.966  -2.755  25.084  0.00  0.00    +0.067 C 
BRANCH  26  29
ATOM     29  C   UNL     1      -2.346  -2.502  24.528  0.00  0.00    -0.045 A 
ATOM     32  C   UNL     1      -3.264  -3.549  24.439  0.00  0.00    +0.004 A 
ATOM     33  C   UNL     1      -2.705  -1.223  24.104  0.00  0.00    +0.004 A 
ATOM     35  C   UNL     1      -4.540  -3.317  23.926  0.00  0.00    +0.000 A 
ATOM     36  C   UNL     1      -3.980  -0.990  23.591  0.00  0.00    +0.000 A 
ATOM     38  C   UNL     1      -4.898  -2.037  23.502  0.00  0.00    +0.000 A 
ENDBRANCH  26  29
ENDBRANCH  23  26
ENDBRANCH  12  23
ENDBRANCH  18  21
BRANCH  16  11
ATOM     11  N   UNL     1      -2.992   3.660  23.250  0.00  0.00    -0.185 NA
ATOM     39  H   UNL     1      -2.776   4.214  22.411  0.00  0.00    +0.148 HD
BRANCH  11   1
ATOM      1  S   UNL     1      -3.757   4.425  24.559  0.00  0.00    +0.077 S 
ATOM      4  O   UNL     1      -4.545   5.541  24.073  0.00  0.00    -0.152 OA
ATOM      5  O   UNL     1      -2.785   4.623  25.616  0.00  0.00    -0.152 OA
BRANCH   1  25
ATOM     13  N   UNL     1      -5.395   2.229  24.261  0.00  0.00    -0.216 NA
ATOM     14  N   UNL     1      -6.162   1.905  26.319  0.00  0.00    -0.338 N 
ATOM     25  C   UNL     1      -4.873   3.170  25.112  0.00  0.00    +0.211 A 
ATOM     28  C   UNL     1      -5.335   2.990  26.395  0.00  0.00    +0.135 A 
ATOM     30  C   UNL     1      -6.166   1.483  25.019  0.00  0.00    +0.201 A 
ATOM     34  C   UNL     1      -6.896   1.312  27.411  0.00  0.00    +0.150 C 
ENDBRANCH   1  25
ENDBRANCH  11   1
ENDBRANCH  16  11
BRANCH  22  24
ATOM     24  C   UNL     1       2.807   0.959  23.102  0.00  0.00    +0.256 C 
BRANCH  24   6
ATOM      6  O   UNL     1       3.860   0.516  22.281  0.00  0.00    -0.359 OA
BRANCH   6  31
ATOM     31  C   UNL     1       5.069   0.329  23.014  0.00  0.00    +0.280 C 
BRANCH  31  37
ATOM      9  O   UNL     1       4.208  -1.817  23.762  0.00  0.00    -0.248 OA
ATOM     37  C   UNL     1       4.925  -0.844  23.944  0.00  0.00    +0.331 C 
BRANCH  37   8
ATOM      8  O   UNL     1       5.713  -0.676  25.035  0.00  0.00    -0.479 OA
ATOM     43  H   UNL     1       6.623  -0.404  24.790  0.00  0.00    +0.295 HD
ENDBRANCH  37   8
ENDBRANCH  31  37
ENDBRANCH   6  31
ENDBRANCH  24   6
ENDBRANCH  22  24
TORSDOF 13
ENDMDL
MODEL 7
REMARK VINA RESULT:       4.7      2.287      7.967
REMARK  Name = 44716833
REMARK  14 active torsions:
REMARK  status: ('A' for Active; 'I' for Inactive)
REMARK    1  A    between atoms: S_1  and  N_11
REMARK    2  A    between atoms: S_1  and  C_25
REMARK    3  A    between atoms: O_6  and  C_24
REMARK    4  A    between atoms: O_6  and  C_31
REMARK    5  A    between atoms: O_8  and  C_37
REMARK    6  A    between atoms: N_11  and  C_16
REMARK    7  A    between atoms: N_12  and  C_23
REMARK    8  A    between atoms: N_14  and  C_34
REMARK    9  A    between atoms: C_18  and  C_21
REMARK   10  A    between atoms: C_22  and  C_24
REMARK   11  A    between atoms: C_23  and  C_26
REMARK   12  A    between atoms: C_23  and  C_27
REMARK   13  A    between atoms: C_26  and  C_29
REMARK   14  A    between atoms: C_31  and  C_37
REMARK                            x       y       z     vdW  Elec       q    Type
REMARK                         _______ _______ _______ _____ _____    ______ ____
ROOT
ATOM      3  O   UNL     1      -0.947  -0.983  27.339  0.00  0.00    -0.273 OA
ATOM     10  N   UNL     1      -1.096   0.605  25.643  0.00  0.00    -0.288 N 
ATOM     16  C   UNL     1      -1.609   3.368  24.871  0.00  0.00    +0.080 C 
ATOM     17  C   UNL     1      -1.978   2.216  23.936  0.00  0.00    +0.052 C 
ATOM     18  C   UNL     1      -1.180   0.939  24.211  0.00  0.00    +0.163 C 
ATOM     19  C   UNL     1      -1.676   2.918  26.328  0.00  0.00    +0.039 C 
ATOM     20  C   UNL     1      -0.779   1.709  26.558  0.00  0.00    +0.110 C 
ATOM     22  C   UNL     1      -1.150  -0.696  26.156  0.00  0.00    +0.242 C 
ENDROOT
BRANCH  18  21
ATOM      2  O   UNL     1       0.819   2.108  23.623  0.00  0.00    -0.274 OA
ATOM     12  N   UNL     1       0.738  -0.200  23.335  0.00  0.00    -0.302 N 
ATOM     21  C   UNL     1       0.230   1.035  23.704  0.00  0.00    +0.234 C 
ATOM     40  H   UNL     1       0.194  -1.038  23.517  0.00  0.00    +0.150 HD
BRANCH  12  23
ATOM     23  C   UNL     1       2.066  -0.379  22.794  0.00  0.00    +0.163 C 
BRANCH  23  27
ATOM      7  O   UNL     1       0.993  -0.744  20.644  0.00  0.00    -0.274 OA
ATOM     15  N   UNL     1       3.001   0.372  20.694  0.00  0.00    -0.328 N 
ATOM     27  C   UNL     1       1.947  -0.299  21.279  0.00  0.00    +0.231 C 
ATOM     41  H   UNL     1       3.771   0.753  21.234  0.00  0.00    +0.145 HD
ATOM     42  H   UNL     1       3.038   0.508  19.690  0.00  0.00    +0.145 HD
ENDBRANCH  23  27
BRANCH  23  26
ATOM     26  C   UNL     1       3.049   0.678  23.309  0.00  0.00    +0.067 C 
BRANCH  26  29
ATOM     29  C   UNL     1       4.425   0.117  23.572  0.00  0.00    -0.045 A 
ATOM     32  C   UNL     1       5.542   0.951  23.509  0.00  0.00    +0.004 A 
ATOM     33  C   UNL     1       4.581  -1.235  23.879  0.00  0.00    +0.004 A 
ATOM     35  C   UNL     1       6.814   0.433  23.752  0.00  0.00    +0.000 A 
ATOM     36  C   UNL     1       5.852  -1.752  24.123  0.00  0.00    +0.000 A 
ATOM     38  C   UNL     1       6.970  -0.919  24.059  0.00  0.00    +0.000 A 
ENDBRANCH  26  29
ENDBRANCH  23  26
ENDBRANCH  12  23
ENDBRANCH  18  21
BRANCH  16  11
ATOM     11  N   UNL     1      -2.553   4.492  24.658  0.00  0.00    -0.185 NA
ATOM     39  H   UNL     1      -2.560   5.215  25.389  0.00  0.00    +0.148 HD
BRANCH  11   1
ATOM      1  S   UNL     1      -3.956   4.255  23.731  0.00  0.00    +0.077 S 
ATOM      4  O   UNL     1      -3.599   3.652  22.461  0.00  0.00    -0.152 OA
ATOM      5  O   UNL     1      -4.748   5.469  23.764  0.00  0.00    -0.152 OA
BRANCH   1  25
ATOM     13  N   UNL     1      -4.919   1.734  24.289  0.00  0.00    -0.216 NA
ATOM     14  N   UNL     1      -5.983   2.030  26.215  0.00  0.00    -0.338 N 
ATOM     25  C   UNL     1      -4.823   3.045  24.684  0.00  0.00    +0.211 A 
ATOM     28  C   UNL     1      -5.476   3.253  25.876  0.00  0.00    +0.135 A 
ATOM     30  C   UNL     1      -5.623   1.151  25.233  0.00  0.00    +0.201 A 
ATOM     34  C   UNL     1      -6.756   1.723  27.394  0.00  0.00    +0.150 C 
ENDBRANCH   1  25
ENDBRANCH  11   1
ENDBRANCH  16  11
BRANCH  22  24
ATOM     24  C   UNL     1      -1.491  -1.796  25.182  0.00  0.00    +0.256 C 
BRANCH  24   6
ATOM      6  O   UNL     1      -2.658  -2.415  25.666  0.00  0.00    -0.359 OA
BRANCH   6  31
ATOM     31  C   UNL     1      -3.833  -1.674  25.341  0.00  0.00    +0.280 C 
BRANCH  31  37
ATOM      9  O   UNL     1      -4.627  -2.892  23.394  0.00  0.00    -0.248 OA
ATOM     37  C   UNL     1      -4.174  -1.871  23.890  0.00  0.00    +0.331 C 
BRANCH  37   8
ATOM      8  O   UNL     1      -3.907  -0.741  23.189  0.00  0.00    -0.479 OA
ATOM     43  H   UNL     1      -3.347  -0.118  23.699  0.00  0.00    +0.295 HD
ENDBRANCH  37   8
ENDBRANCH  31  37
ENDBRANCH   6  31
ENDBRANCH  24   6
ENDBRANCH  22  24
TORSDOF 13
ENDMDL
MODEL 8
REMARK VINA RESULT:       5.4      2.385      7.209
REMARK  Name = 44716833
REMARK  14 active torsions:
REMARK  status: ('A' for Active; 'I' for Inactive)
REMARK    1  A    between atoms: S_1  and  N_11
REMARK    2  A    between atoms: S_1  and  C_25
REMARK    3  A    between atoms: O_6  and  C_24
REMARK    4  A    between atoms: O_6  and  C_31
REMARK    5  A    between atoms: O_8  and  C_37
REMARK    6  A    between atoms: N_11  and  C_16
REMARK    7  A    between atoms: N_12  and  C_23
REMARK    8  A    between atoms: N_14  and  C_34
REMARK    9  A    between atoms: C_18  and  C_21
REMARK   10  A    between atoms: C_22  and  C_24
REMARK   11  A    between atoms: C_23  and  C_26
REMARK   12  A    between atoms: C_23  and  C_27
REMARK   13  A    between atoms: C_26  and  C_29
REMARK   14  A    between atoms: C_31  and  C_37
REMARK                            x       y       z     vdW  Elec       q    Type
REMARK                         _______ _______ _______ _____ _____    ______ ____
ROOT
ATOM      3  O   UNL     1       0.765  -0.348  21.754  0.00  0.00    -0.273 OA
ATOM     10  N   UNL     1       0.149   0.886  23.629  0.00  0.00    -0.288 N 
ATOM     16  C   UNL     1      -1.004   3.330  24.720  0.00  0.00    +0.080 C 
ATOM     17  C   UNL     1       0.099   2.586  25.472  0.00  0.00    +0.052 C 
ATOM     18  C   UNL     1       0.200   1.108  25.084  0.00  0.00    +0.163 C 
ATOM     19  C   UNL     1      -0.871   3.110  23.216  0.00  0.00    +0.039 C 
ATOM     20  C   UNL     1      -0.883   1.623  22.887  0.00  0.00    +0.110 C 
ATOM     22  C   UNL     1       0.906  -0.074  22.949  0.00  0.00    +0.242 C 
ENDROOT
BRANCH  18  21
ATOM      2  O   UNL     1      -0.678  -0.611  26.490  0.00  0.00    -0.274 OA
ATOM     12  N   UNL     1      -2.152   0.663  25.215  0.00  0.00    -0.302 N 
ATOM     21  C   UNL     1      -0.904   0.290  25.688  0.00  0.00    +0.234 C 
ATOM     40  H   UNL     1      -2.233   1.475  24.612  0.00  0.00    +0.150 HD
BRANCH  12  23
ATOM     23  C   UNL     1      -3.377   0.015  25.623  0.00  0.00    +0.163 C 
BRANCH  23  27
ATOM      7  O   UNL     1      -5.517  -0.169  24.486  0.00  0.00    -0.274 OA
ATOM     15  N   UNL     1      -3.640   0.258  23.233  0.00  0.00    -0.328 N 
ATOM     27  C   UNL     1      -4.302   0.004  24.415  0.00  0.00    +0.231 C 
ATOM     41  H   UNL     1      -2.638   0.421  23.192  0.00  0.00    +0.145 HD
ATOM     42  H   UNL     1      -4.143   0.293  22.352  0.00  0.00    +0.145 HD
ENDBRANCH  23  27
BRANCH  23  26
ATOM     26  C   UNL     1      -3.139  -1.412  26.128  0.00  0.00    +0.067 C 
BRANCH  26  29
ATOM     29  C   UNL     1      -2.901  -2.395  25.008  0.00  0.00    -0.045 A 
ATOM     32  C   UNL     1      -1.615  -2.572  24.497  0.00  0.00    +0.004 A 
ATOM     33  C   UNL     1      -3.966  -3.127  24.482  0.00  0.00    +0.004 A 
ATOM     35  C   UNL     1      -1.393  -3.480  23.462  0.00  0.00    +0.000 A 
ATOM     36  C   UNL     1      -3.745  -4.035  23.448  0.00  0.00    +0.000 A 
ATOM     38  C   UNL     1      -2.458  -4.212  22.937  0.00  0.00    +0.000 A 
ENDBRANCH  26  29
ENDBRANCH  23  26
ENDBRANCH  12  23
ENDBRANCH  18  21
BRANCH  16  11
ATOM     11  N   UNL     1      -0.907   4.780  25.018  0.00  0.00    -0.185 NA
ATOM     39  H   UNL     1      -0.138   5.059  25.640  0.00  0.00    +0.148 HD
BRANCH  11   1
ATOM      1  S   UNL     1      -2.298   5.752  24.950  0.00  0.00    +0.077 S 
ATOM      4  O   UNL     1      -2.363   6.413  23.661  0.00  0.00    -0.152 OA
ATOM      5  O   UNL     1      -2.385   6.527  26.172  0.00  0.00    -0.152 OA
BRANCH   1  25
ATOM     13  N   UNL     1      -4.112   3.977  23.876  0.00  0.00    -0.216 NA
ATOM     14  N   UNL     1      -5.120   3.156  25.676  0.00  0.00    -0.338 N 
ATOM     25  C   UNL     1      -3.589   4.546  25.011  0.00  0.00    +0.211 A 
ATOM     28  C   UNL     1      -4.199   4.052  26.140  0.00  0.00    +0.135 A 
ATOM     30  C   UNL     1      -5.031   3.146  24.313  0.00  0.00    +0.201 A 
ATOM     34  C   UNL     1      -6.022   2.366  26.478  0.00  0.00    +0.150 C 
ENDBRANCH   1  25
ENDBRANCH  11   1
ENDBRANCH  16  11
BRANCH  22  24
ATOM     24  C   UNL     1       1.962  -0.797  23.747  0.00  0.00    +0.256 C 
BRANCH  24   6
ATOM      6  O   UNL     1       3.122  -0.822  22.951  0.00  0.00    -0.359 OA
BRANCH   6  31
ATOM     31  C   UNL     1       3.813   0.425  22.971  0.00  0.00    +0.280 C 
BRANCH  31  37
ATOM      9  O   UNL     1       6.163  -0.197  22.956  0.00  0.00    -0.248 OA
ATOM     37  C   UNL     1       5.188   0.236  23.552  0.00  0.00    +0.331 C 
BRANCH  37   8
ATOM      8  O   UNL     1       5.203   0.618  24.853  0.00  0.00    -0.479 OA
ATOM     43  H   UNL     1       5.821   1.364  25.008  0.00  0.00    +0.295 HD
ENDBRANCH  37   8
ENDBRANCH  31  37
ENDBRANCH   6  31
ENDBRANCH  24   6
ENDBRANCH  22  24
TORSDOF 13
ENDMDL
MODEL 9
REMARK VINA RESULT:       5.5      1.871      3.389
REMARK  Name = 44716833
REMARK  14 active torsions:
REMARK  status: ('A' for Active; 'I' for Inactive)
REMARK    1  A    between atoms: S_1  and  N_11
REMARK    2  A    between atoms: S_1  and  C_25
REMARK    3  A    between atoms: O_6  and  C_24
REMARK    4  A    between atoms: O_6  and  C_31
REMARK    5  A    between atoms: O_8  and  C_37
REMARK    6  A    between atoms: N_11  and  C_16
REMARK    7  A    between atoms: N_12  and  C_23
REMARK    8  A    between atoms: N_14  and  C_34
REMARK    9  A    between atoms: C_18  and  C_21
REMARK   10  A    between atoms: C_22  and  C_24
REMARK   11  A    between atoms: C_23  and  C_26
REMARK   12  A    between atoms: C_23  and  C_27
REMARK   13  A    between atoms: C_26  and  C_29
REMARK   14  A    between atoms: C_31  and  C_37
REMARK                            x       y       z     vdW  Elec       q    Type
REMARK                         _______ _______ _______ _____ _____    ______ ____
ROOT
ATOM      3  O   UNL     1      -1.693  -3.112  24.965  0.00  0.00    -0.273 OA
ATOM     10  N   UNL     1      -1.051  -0.903  24.603  0.00  0.00    -0.288 N 
ATOM     16  C   UNL     1       0.860   0.966  23.443  0.00  0.00    +0.080 C 
ATOM     17  C   UNL     1       0.127   1.306  24.741  0.00  0.00    +0.052 C 
ATOM     18  C   UNL     1      -1.182   0.531  24.912  0.00  0.00    +0.163 C 
ATOM     19  C   UNL     1       1.032  -0.544  23.304  0.00  0.00    +0.039 C 
ATOM     20  C   UNL     1      -0.318  -1.247  23.378  0.00  0.00    +0.110 C 
ATOM     22  C   UNL     1      -1.697  -1.926  25.307  0.00  0.00    +0.242 C 
ENDROOT
BRANCH  18  21
ATOM      2  O   UNL     1      -2.200   1.032  22.810  0.00  0.00    -0.274 OA
ATOM     12  N   UNL     1      -3.321   1.604  24.769  0.00  0.00    -0.302 N 
ATOM     21  C   UNL     1      -2.275   1.067  24.035  0.00  0.00    +0.234 C 
ATOM     40  H   UNL     1      -3.319   1.510  25.780  0.00  0.00    +0.150 HD
BRANCH  12  23
ATOM     23  C   UNL     1      -4.486   2.205  24.163  0.00  0.00    +0.163 C 
BRANCH  23  27
ATOM      7  O   UNL     1      -5.333   2.966  26.309  0.00  0.00    -0.274 OA
ATOM     15  N   UNL     1      -6.744   1.797  24.923  0.00  0.00    -0.328 N 
ATOM     27  C   UNL     1      -5.531   2.362  25.257  0.00  0.00    +0.231 C 
ATOM     41  H   UNL     1      -6.899   1.320  24.040  0.00  0.00    +0.145 HD
ATOM     42  H   UNL     1      -7.532   1.843  25.560  0.00  0.00    +0.145 HD
ENDBRANCH  23  27
BRANCH  23  26
ATOM     26  C   UNL     1      -4.172   3.564  23.525  0.00  0.00    +0.067 C 
BRANCH  26  29
ATOM     29  C   UNL     1      -2.875   4.156  24.022  0.00  0.00    -0.045 A 
ATOM     32  C   UNL     1      -2.850   4.878  25.215  0.00  0.00    +0.004 A 
ATOM     33  C   UNL     1      -1.702   3.982  23.288  0.00  0.00    +0.004 A 
ATOM     35  C   UNL     1      -1.653   5.425  25.674  0.00  0.00    +0.000 A 
ATOM     36  C   UNL     1      -0.505   4.529  23.747  0.00  0.00    +0.000 A 
ATOM     38  C   UNL     1      -0.480   5.251  24.941  0.00  0.00    +0.000 A 
ENDBRANCH  26  29
ENDBRANCH  23  26
ENDBRANCH  12  23
ENDBRANCH  18  21
BRANCH  16  11
ATOM     11  N   UNL     1       2.193   1.616  23.450  0.00  0.00    -0.185 NA
ATOM     39  H   UNL     1       2.223   2.574  23.820  0.00  0.00    +0.148 HD
BRANCH  11   1
ATOM      1  S   UNL     1       3.373   1.137  22.325  0.00  0.00    +0.077 S 
ATOM      4  O   UNL     1       4.229   2.266  22.015  0.00  0.00    -0.152 OA
ATOM      5  O   UNL     1       2.728   0.396  21.259  0.00  0.00    -0.152 OA
BRANCH   1  25
ATOM     13  N   UNL     1       3.935  -1.334  23.408  0.00  0.00    -0.216 NA
ATOM     14  N   UNL     1       5.837  -0.973  24.493  0.00  0.00    -0.338 N 
ATOM     25  C   UNL     1       4.320  -0.024  23.262  0.00  0.00    +0.211 A 
ATOM     28  C   UNL     1       5.497   0.223  23.927  0.00  0.00    +0.135 A 
ATOM     30  C   UNL     1       4.870  -1.876  24.154  0.00  0.00    +0.201 A 
ATOM     34  C   UNL     1       7.004  -1.234  25.301  0.00  0.00    +0.150 C 
ENDBRANCH   1  25
ENDBRANCH  11   1
ENDBRANCH  16  11
BRANCH  22  24
ATOM     24  C   UNL     1      -2.428  -1.528  26.565  0.00  0.00    +0.256 C 
BRANCH  24   6
ATOM      6  O   UNL     1      -3.783  -1.850  26.361  0.00  0.00    -0.359 OA
BRANCH   6  31
ATOM     31  C   UNL     1      -4.380  -1.043  25.348  0.00  0.00    +0.280 C 
BRANCH  31  37
ATOM      9  O   UNL     1      -4.635  -2.990  23.914  0.00  0.00    -0.248 OA
ATOM     37  C   UNL     1      -4.404  -1.797  24.046  0.00  0.00    +0.331 C 
BRANCH  37   8
ATOM      8  O   UNL     1      -4.130  -0.959  23.015  0.00  0.00    -0.479 OA
ATOM     43  H   UNL     1      -4.935  -0.735  22.502  0.00  0.00    +0.295 HD
ENDBRANCH  37   8
ENDBRANCH  31  37
ENDBRANCH   6  31
ENDBRANCH  24   6
ENDBRANCH  22  24
TORSDOF 13
ENDMDL
MODEL 10
REMARK VINA RESULT:       5.6      1.867      8.106
REMARK  Name = 44716833
REMARK  14 active torsions:
REMARK  status: ('A' for Active; 'I' for Inactive)
REMARK    1  A    between atoms: S_1  and  N_11
REMARK    2  A    between atoms: S_1  and  C_25
REMARK    3  A    between atoms: O_6  and  C_24
REMARK    4  A    between atoms: O_6  and  C_31
REMARK    5  A    between atoms: O_8  and  C_37
REMARK    6  A    between atoms: N_11  and  C_16
REMARK    7  A    between atoms: N_12  and  C_23
REMARK    8  A    between atoms: N_14  and  C_34
REMARK    9  A    between atoms: C_18  and  C_21
REMARK   10  A    between atoms: C_22  and  C_24
REMARK   11  A    between atoms: C_23  and  C_26
REMARK   12  A    between atoms: C_23  and  C_27
REMARK   13  A    between atoms: C_26  and  C_29
REMARK   14  A    between atoms: C_31  and  C_37
REMARK                            x       y       z     vdW  Elec       q    Type
REMARK                         _______ _______ _______ _____ _____    ______ ____
ROOT
ATOM      3  O   UNL     1      -0.644  -2.191  26.159  0.00  0.00    -0.273 OA
ATOM     10  N   UNL     1      -0.599  -0.495  24.565  0.00  0.00    -0.288 N 
ATOM     16  C   UNL     1      -0.384   2.351  23.977  0.00  0.00    +0.080 C 
ATOM     17  C   UNL     1      -1.236   1.436  23.098  0.00  0.00    +0.052 C 
ATOM     18  C   UNL     1      -0.823  -0.035  23.184  0.00  0.00    +0.163 C 
ATOM     19  C   UNL     1      -0.332   1.823  25.408  0.00  0.00    +0.039 C 
ATOM     20  C   UNL     1       0.187   0.392  25.433  0.00  0.00    +0.110 C 
ATOM     22  C   UNL     1      -0.952  -1.761  25.044  0.00  0.00    +0.242 C 
ENDROOT
BRANCH  18  21
ATOM      2  O   UNL     1       0.443  -0.478  21.207  0.00  0.00    -0.274 OA
ATOM     12  N   UNL     1       1.550  -0.371  23.252  0.00  0.00    -0.302 N 
ATOM     21  C   UNL     1       0.441  -0.311  22.423  0.00  0.00    +0.234 C 
ATOM     40  H   UNL     1       1.449  -0.139  24.236  0.00  0.00    +0.150 HD
BRANCH  12  23
ATOM     23  C   UNL     1       2.883  -0.646  22.770  0.00  0.00    +0.163 C 
BRANCH  23  27
ATOM      7  O   UNL     1       4.061   0.740  21.158  0.00  0.00    -0.274 OA
ATOM     15  N   UNL     1       3.121   1.749  22.995  0.00  0.00    -0.328 N 
ATOM     27  C   UNL     1       3.437   0.657  22.214  0.00  0.00    +0.231 C 
ATOM     41  H   UNL     1       2.585   1.668  23.855  0.00  0.00    +0.145 HD
ATOM     42  H   UNL     1       3.418   2.682  22.730  0.00  0.00    +0.145 HD
ENDBRANCH  23  27
BRANCH  23  26
ATOM     26  C   UNL     1       3.799  -1.188  23.874  0.00  0.00    +0.067 C 
BRANCH  26  29
ATOM     29  C   UNL     1       5.219  -0.692  23.750  0.00  0.00    -0.045 A 
ATOM     32  C   UNL     1       5.610   0.475  24.405  0.00  0.00    +0.004 A 
ATOM     33  C   UNL     1       6.142  -1.401  22.980  0.00  0.00    +0.004 A 
ATOM     35  C   UNL     1       6.922   0.934  24.291  0.00  0.00    +0.000 A 
ATOM     36  C   UNL     1       7.453  -0.943  22.866  0.00  0.00    +0.000 A 
ATOM     38  C   UNL     1       7.844   0.225  23.522  0.00  0.00    +0.000 A 
ENDBRANCH  26  29
ENDBRANCH  23  26
ENDBRANCH  12  23
ENDBRANCH  18  21
BRANCH  16  11
ATOM     11  N   UNL     1      -0.969   3.715  23.976  0.00  0.00    -0.185 NA
ATOM     39  H   UNL     1      -0.532   4.389  23.336  0.00  0.00    +0.148 HD
BRANCH  11   1
ATOM      1  S   UNL     1      -1.758   4.298  25.363  0.00  0.00    +0.077 S 
ATOM      4  O   UNL     1      -1.886   5.740  25.275  0.00  0.00    -0.152 OA
ATOM      5  O   UNL     1      -1.157   3.689  26.533  0.00  0.00    -0.152 OA
BRANCH   1  25
ATOM     13  N   UNL     1      -3.934   3.356  23.958  0.00  0.00    -0.216 NA
ATOM     14  N   UNL     1      -5.331   2.741  25.570  0.00  0.00    -0.338 N 
ATOM     25  C   UNL     1      -3.371   3.596  25.186  0.00  0.00    +0.211 A 
ATOM     28  C   UNL     1      -4.219   3.222  26.202  0.00  0.00    +0.135 A 
ATOM     30  C   UNL     1      -5.113   2.841  24.225  0.00  0.00    +0.201 A 
ATOM     34  C   UNL     1      -6.517   2.221  26.206  0.00  0.00    +0.150 C 
ENDBRANCH   1  25
ENDBRANCH  11   1
ENDBRANCH  16  11
BRANCH  22  24
ATOM     24  C   UNL     1      -1.769  -2.632  24.122  0.00  0.00    +0.256 C 
BRANCH  24   6
ATOM      6  O   UNL     1      -2.979  -2.899  24.788  0.00  0.00    -0.359 OA
BRANCH   6  31
ATOM     31  C   UNL     1      -4.085  -2.238  24.176  0.00  0.00    +0.280 C 
BRANCH  31  37
ATOM      9  O   UNL     1      -4.119  -0.403  25.771  0.00  0.00    -0.248 OA
ATOM     37  C   UNL     1      -4.124  -0.799  24.614  0.00  0.00    +0.331 C 
BRANCH  37   8
ATOM      8  O   UNL     1      -4.165   0.018  23.533  0.00  0.00    -0.479 OA
ATOM     43  H   UNL     1      -3.274   0.347  23.289  0.00  0.00    +0.295 HD
ENDBRANCH  37   8
ENDBRANCH  31  37
ENDBRANCH   6  31
ENDBRANCH  24   6
ENDBRANCH  22  24
TORSDOF 13
ENDMDL
