MODEL 1
REMARK VINA RESULT:       4.3      0.000      0.000
REMARK  Name = 11885248
REMARK  10 active torsions:
REMARK  status: ('A' for Active; 'I' for Inactive)
REMARK    1  A    between atoms: S_1  and  C_21
REMARK    2  A    between atoms: S_1  and  C_28
REMARK    3  A    between atoms: O_4  and  C_32
REMARK    4  A    between atoms: N_8  and  C_25
REMARK    5  A    between atoms: N_8  and  C_30
REMARK    6  A    between atoms: N_8  and  C_31
REMARK    7  A    between atoms: C_18  and  C_21
REMARK    8  A    between atoms: C_19  and  C_22
REMARK    9  A    between atoms: C_23  and  C_25
REMARK   10  A    between atoms: C_28  and  C_32
REMARK                            x       y       z     vdW  Elec       q    Type
REMARK                         _______ _______ _______ _____ _____    ______ ____
ROOT
ATOM      2  O   UNL     1      -3.172   0.715  22.444  0.00  0.00    -0.267 OA
ATOM      3  O   UNL     1      -0.296   4.470  24.939  0.00  0.00    -0.275 OA
ATOM      6  N   UNL     1      -2.546   4.659  25.487  0.00  0.00    -0.300 N 
ATOM      7  N   UNL     1      -3.999   2.226  24.017  0.00  0.00    -0.311 N 
ATOM      9  C   UNL     1      -4.140   4.743  23.566  0.00  0.00    +0.027 C 
ATOM     10  C   UNL     1      -4.884   3.846  25.730  0.00  0.00    +0.054 C 
ATOM     11  C   UNL     1      -5.306   4.712  24.546  0.00  0.00    +0.018 C 
ATOM     12  C   UNL     1      -2.889   5.337  24.235  0.00  0.00    +0.113 C 
ATOM     13  C   UNL     1      -3.895   3.322  23.043  0.00  0.00    +0.130 C 
ATOM     14  C   UNL     1      -3.664   4.480  26.426  0.00  0.00    +0.117 C 
ATOM     15  C   UNL     1      -4.547   2.435  25.284  0.00  0.00    +0.027 A 
ATOM     16  C   UNL     1      -4.744   1.397  26.112  0.00  0.00    +0.022 A 
ATOM     17  C   UNL     1      -3.626   0.945  23.567  0.00  0.00    +0.259 A 
ATOM     18  C   UNL     1      -1.219   4.310  25.742  0.00  0.00    +0.225 C 
ATOM     19  C   UNL     1      -3.825  -0.194  24.532  0.00  0.00    +0.047 A 
ATOM     20  C   UNL     1      -4.371   0.066  25.729  0.00  0.00    +0.015 A 
ENDROOT
BRANCH  19  22
ATOM     22  C   UNL     1      -3.424  -1.568  24.183  0.00  0.00    -0.008 A 
ATOM     23  C   UNL     1      -2.104  -2.001  24.325  0.00  0.00    -0.026 A 
ATOM     24  C   UNL     1      -4.394  -2.451  23.700  0.00  0.00    +0.009 A 
ATOM     26  C   UNL     1      -1.755  -3.309  23.986  0.00  0.00    +0.005 A 
ATOM     27  C   UNL     1      -4.045  -3.758  23.361  0.00  0.00    +0.001 A 
ATOM     29  C   UNL     1      -2.726  -4.186  23.505  0.00  0.00    +0.000 A 
BRANCH  23  25
ATOM     25  C   UNL     1      -1.038  -1.087  24.837  0.00  0.00    +0.119 C 
BRANCH  25   8
ATOM      8  N   UNL     1      -0.444  -0.278  23.774  0.00  0.00    -0.304 NA
ATOM     30  C   UNL     1      -0.327   1.117  24.197  0.00  0.00    +0.104 C 
ATOM     31  C   UNL     1       0.867  -0.809  23.398  0.00  0.00    +0.104 C 
ENDBRANCH  25   8
ENDBRANCH  23  25
ENDBRANCH  19  22
BRANCH  18  21
ATOM     21  C   UNL     1      -0.929   3.695  27.087  0.00  0.00    +0.165 C 
BRANCH  21   1
ATOM      1  S   UNL     1       0.550   2.686  26.920  0.00  0.00    -0.140 S 
BRANCH   1  28
ATOM     28  C   UNL     1       0.651   2.055  28.613  0.00  0.00    +0.189 C 
BRANCH  28  32
ATOM      5  O   UNL     1       2.801   3.141  28.688  0.00  0.00    -0.250 OA
ATOM     32  C   UNL     1       2.020   2.329  29.166  0.00  0.00    +0.315 C 
BRANCH  32   4
ATOM      4  O   UNL     1       2.297   1.590  30.271  0.00  0.00    -0.480 OA
ATOM     33  H   UNL     1       2.586   0.682  30.040  0.00  0.00    +0.295 HD
ENDBRANCH  32   4
ENDBRANCH  28  32
ENDBRANCH   1  28
ENDBRANCH  21   1
ENDBRANCH  18  21
TORSDOF 8
ENDMDL
MODEL 2
REMARK VINA RESULT:       4.4      2.483      5.393
REMARK  Name = 11885248
REMARK  10 active torsions:
REMARK  status: ('A' for Active; 'I' for Inactive)
REMARK    1  A    between atoms: S_1  and  C_21
REMARK    2  A    between atoms: S_1  and  C_28
REMARK    3  A    between atoms: O_4  and  C_32
REMARK    4  A    between atoms: N_8  and  C_25
REMARK    5  A    between atoms: N_8  and  C_30
REMARK    6  A    between atoms: N_8  and  C_31
REMARK    7  A    between atoms: C_18  and  C_21
REMARK    8  A    between atoms: C_19  and  C_22
REMARK    9  A    between atoms: C_23  and  C_25
REMARK   10  A    between atoms: C_28  and  C_32
REMARK                            x       y       z     vdW  Elec       q    Type
REMARK                         _______ _______ _______ _____ _____    ______ ____
ROOT
ATOM      2  O   UNL     1       0.025   2.126  25.843  0.00  0.00    -0.267 OA
ATOM      3  O   UNL     1      -4.955   0.379  26.708  0.00  0.00    -0.275 OA
ATOM      6  N   UNL     1      -4.972   2.288  25.383  0.00  0.00    -0.300 N 
ATOM      7  N   UNL     1      -1.904   3.018  24.883  0.00  0.00    -0.311 N 
ATOM      9  C   UNL     1      -3.685   4.242  26.257  0.00  0.00    +0.027 C 
ATOM     10  C   UNL     1      -3.988   3.966  23.833  0.00  0.00    +0.054 C 
ATOM     11  C   UNL     1      -3.969   4.994  24.962  0.00  0.00    +0.018 C 
ATOM     12  C   UNL     1      -4.777   3.190  26.520  0.00  0.00    +0.113 C 
ATOM     13  C   UNL     1      -2.289   3.615  26.170  0.00  0.00    +0.130 C 
ATOM     14  C   UNL     1      -5.121   2.950  24.079  0.00  0.00    +0.117 C 
ATOM     15  C   UNL     1      -2.660   3.241  23.729  0.00  0.00    +0.027 A 
ATOM     16  C   UNL     1      -2.225   2.788  22.543  0.00  0.00    +0.022 A 
ATOM     17  C   UNL     1      -0.686   2.312  24.853  0.00  0.00    +0.259 A 
ATOM     18  C   UNL     1      -5.083   0.915  25.604  0.00  0.00    +0.225 C 
ATOM     19  C   UNL     1      -0.244   1.785  23.514  0.00  0.00    +0.047 A 
ATOM     20  C   UNL     1      -1.002   2.045  22.438  0.00  0.00    +0.015 A 
ENDROOT
BRANCH  19  22
ATOM     22  C   UNL     1       0.990   0.992  23.376  0.00  0.00    -0.008 A 
ATOM     23  C   UNL     1       1.008  -0.380  23.637  0.00  0.00    -0.026 A 
ATOM     24  C   UNL     1       2.163   1.636  22.974  0.00  0.00    +0.009 A 
ATOM     26  C   UNL     1       2.192  -1.104  23.497  0.00  0.00    +0.005 A 
ATOM     27  C   UNL     1       3.347   0.911  22.835  0.00  0.00    +0.001 A 
ATOM     29  C   UNL     1       3.361  -0.458  23.097  0.00  0.00    +0.000 A 
BRANCH  23  25
ATOM     25  C   UNL     1      -0.226  -1.105  24.069  0.00  0.00    +0.119 C 
BRANCH  25   8
ATOM      8  N   UNL     1      -0.246  -1.355  25.510  0.00  0.00    -0.304 NA
ATOM     30  C   UNL     1      -1.500  -0.880  26.094  0.00  0.00    +0.104 C 
ATOM     31  C   UNL     1      -0.062  -2.780  25.784  0.00  0.00    +0.104 C 
ENDBRANCH  25   8
ENDBRANCH  23  25
ENDBRANCH  19  22
BRANCH  18  21
ATOM     21  C   UNL     1      -5.370   0.057  24.398  0.00  0.00    +0.165 C 
BRANCH  21   1
ATOM      1  S   UNL     1      -3.793  -0.493  23.729  0.00  0.00    -0.140 S 
BRANCH   1  28
ATOM     28  C   UNL     1      -4.204  -2.230  23.438  0.00  0.00    +0.189 C 
BRANCH  28  32
ATOM      5  O   UNL     1      -3.553  -3.232  25.530  0.00  0.00    -0.250 OA
ATOM     32  C   UNL     1      -3.363  -3.099  24.328  0.00  0.00    +0.315 C 
BRANCH  32   4
ATOM      4  O   UNL     1      -2.374  -3.739  23.654  0.00  0.00    -0.480 OA
ATOM     33  H   UNL     1      -1.781  -3.110  23.190  0.00  0.00    +0.295 HD
ENDBRANCH  32   4
ENDBRANCH  28  32
ENDBRANCH   1  28
ENDBRANCH  21   1
ENDBRANCH  18  21
TORSDOF 8
ENDMDL
MODEL 3
REMARK VINA RESULT:       5.6      2.552      4.788
REMARK  Name = 11885248
REMARK  10 active torsions:
REMARK  status: ('A' for Active; 'I' for Inactive)
REMARK    1  A    between atoms: S_1  and  C_21
REMARK    2  A    between atoms: S_1  and  C_28
REMARK    3  A    between atoms: O_4  and  C_32
REMARK    4  A    between atoms: N_8  and  C_25
REMARK    5  A    between atoms: N_8  and  C_30
REMARK    6  A    between atoms: N_8  and  C_31
REMARK    7  A    between atoms: C_18  and  C_21
REMARK    8  A    between atoms: C_19  and  C_22
REMARK    9  A    between atoms: C_23  and  C_25
REMARK   10  A    between atoms: C_28  and  C_32
REMARK                            x       y       z     vdW  Elec       q    Type
REMARK                         _______ _______ _______ _____ _____    ______ ____
ROOT
ATOM      2  O   UNL     1      -0.535   1.630  26.505  0.00  0.00    -0.267 OA
ATOM      3  O   UNL     1      -5.776   2.433  27.202  0.00  0.00    -0.275 OA
ATOM      6  N   UNL     1      -4.984   3.685  25.413  0.00  0.00    -0.300 N 
ATOM      7  N   UNL     1      -1.903   2.903  25.110  0.00  0.00    -0.311 N 
ATOM      9  C   UNL     1      -2.977   5.101  25.868  0.00  0.00    +0.027 C 
ATOM     10  C   UNL     1      -3.387   4.260  23.594  0.00  0.00    +0.054 C 
ATOM     11  C   UNL     1      -2.921   5.476  24.392  0.00  0.00    +0.018 C 
ATOM     12  C   UNL     1      -4.412   4.723  26.273  0.00  0.00    +0.113 C 
ATOM     13  C   UNL     1      -1.985   3.961  26.127  0.00  0.00    +0.130 C 
ATOM     14  C   UNL     1      -4.844   3.925  23.969  0.00  0.00    +0.117 C 
ATOM     15  C   UNL     1      -2.499   3.059  23.856  0.00  0.00    +0.027 A 
ATOM     16  C   UNL     1      -2.310   2.134  22.902  0.00  0.00    +0.022 A 
ATOM     17  C   UNL     1      -1.105   1.786  25.423  0.00  0.00    +0.259 A 
ATOM     18  C   UNL     1      -5.671   2.615  25.986  0.00  0.00    +0.225 C 
ATOM     19  C   UNL     1      -0.942   0.748  24.344  0.00  0.00    +0.047 A 
ATOM     20  C   UNL     1      -1.524   0.961  23.155  0.00  0.00    +0.015 A 
ENDROOT
BRANCH  19  22
ATOM     22  C   UNL     1      -0.168  -0.483  24.581  0.00  0.00    -0.008 A 
ATOM     23  C   UNL     1       1.131  -0.633  24.090  0.00  0.00    -0.026 A 
ATOM     24  C   UNL     1      -0.756  -1.518  25.312  0.00  0.00    +0.009 A 
ATOM     26  C   UNL     1       1.839  -1.811  24.330  0.00  0.00    +0.005 A 
ATOM     27  C   UNL     1      -0.048  -2.696  25.551  0.00  0.00    +0.001 A 
ATOM     29  C   UNL     1       1.249  -2.842  25.060  0.00  0.00    +0.000 A 
BRANCH  23  25
ATOM     25  C   UNL     1       1.794   0.451  23.303  0.00  0.00    +0.119 C 
BRANCH  25   8
ATOM      8  N   UNL     1       3.023  -0.007  22.656  0.00  0.00    -0.304 NA
ATOM     30  C   UNL     1       2.839  -0.084  21.206  0.00  0.00    +0.104 C 
ATOM     31  C   UNL     1       4.136   0.884  22.982  0.00  0.00    +0.104 C 
ENDBRANCH  25   8
ENDBRANCH  23  25
ENDBRANCH  19  22
BRANCH  18  21
ATOM     21  C   UNL     1      -6.307   1.633  25.036  0.00  0.00    +0.165 C 
BRANCH  21   1
ATOM      1  S   UNL     1      -4.986   0.822  24.122  0.00  0.00    -0.140 S 
BRANCH   1  28
ATOM     28  C   UNL     1      -4.332  -0.223  25.446  0.00  0.00    +0.189 C 
BRANCH  28  32
ATOM      5  O   UNL     1      -3.620  -2.522  25.574  0.00  0.00    -0.250 OA
ATOM     32  C   UNL     1      -3.985  -1.574  24.890  0.00  0.00    +0.315 C 
BRANCH  32   4
ATOM      4  O   UNL     1      -4.135  -1.642  23.542  0.00  0.00    -0.480 OA
ATOM     33  H   UNL     1      -3.310  -1.930  23.097  0.00  0.00    +0.295 HD
ENDBRANCH  32   4
ENDBRANCH  28  32
ENDBRANCH   1  28
ENDBRANCH  21   1
ENDBRANCH  18  21
TORSDOF 8
ENDMDL
MODEL 4
REMARK VINA RESULT:       6.1      2.804      6.676
REMARK  Name = 11885248
REMARK  10 active torsions:
REMARK  status: ('A' for Active; 'I' for Inactive)
REMARK    1  A    between atoms: S_1  and  C_21
REMARK    2  A    between atoms: S_1  and  C_28
REMARK    3  A    between atoms: O_4  and  C_32
REMARK    4  A    between atoms: N_8  and  C_25
REMARK    5  A    between atoms: N_8  and  C_30
REMARK    6  A    between atoms: N_8  and  C_31
REMARK    7  A    between atoms: C_18  and  C_21
REMARK    8  A    between atoms: C_19  and  C_22
REMARK    9  A    between atoms: C_23  and  C_25
REMARK   10  A    between atoms: C_28  and  C_32
REMARK                            x       y       z     vdW  Elec       q    Type
REMARK                         _______ _______ _______ _____ _____    ______ ____
ROOT
ATOM      2  O   UNL     1      -2.882   1.884  26.411  0.00  0.00    -0.267 OA
ATOM      3  O   UNL     1       0.378  -2.346  26.114  0.00  0.00    -0.275 OA
ATOM      6  N   UNL     1      -1.437  -2.605  24.687  0.00  0.00    -0.300 N 
ATOM      7  N   UNL     1      -3.118   0.099  24.928  0.00  0.00    -0.311 N 
ATOM      9  C   UNL     1      -3.692  -2.272  25.708  0.00  0.00    +0.027 C 
ATOM     10  C   UNL     1      -3.358  -1.820  23.315  0.00  0.00    +0.054 C 
ATOM     11  C   UNL     1      -4.326  -2.422  24.330  0.00  0.00    +0.018 C 
ATOM     12  C   UNL     1      -2.343  -3.009  25.764  0.00  0.00    +0.113 C 
ATOM     13  C   UNL     1      -3.547  -0.779  26.026  0.00  0.00    +0.130 C 
ATOM     14  C   UNL     1      -2.030  -2.602  23.341  0.00  0.00    +0.117 C 
ATOM     15  C   UNL     1      -3.098  -0.354  23.607  0.00  0.00    +0.027 A 
ATOM     16  C   UNL     1      -2.820   0.497  22.608  0.00  0.00    +0.022 A 
ATOM     17  C   UNL     1      -2.840   1.438  25.262  0.00  0.00    +0.259 A 
ATOM     18  C   UNL     1      -0.099  -2.337  24.976  0.00  0.00    +0.225 C 
ATOM     19  C   UNL     1      -2.496   2.361  24.123  0.00  0.00    +0.047 A 
ATOM     20  C   UNL     1      -2.510   1.872  22.873  0.00  0.00    +0.015 A 
ENDROOT
BRANCH  19  22
ATOM     22  C   UNL     1      -2.142   3.770  24.363  0.00  0.00    -0.008 A 
ATOM     23  C   UNL     1      -3.114   4.773  24.382  0.00  0.00    -0.026 A 
ATOM     24  C   UNL     1      -0.801   4.102  24.574  0.00  0.00    +0.009 A 
ATOM     26  C   UNL     1      -2.748   6.100  24.612  0.00  0.00    +0.005 A 
ATOM     27  C   UNL     1      -0.435   5.428  24.804  0.00  0.00    +0.001 A 
ATOM     29  C   UNL     1      -1.409   6.426  24.822  0.00  0.00    +0.000 A 
BRANCH  23  25
ATOM     25  C   UNL     1      -4.558   4.459  24.159  0.00  0.00    +0.119 C 
BRANCH  25   8
ATOM      8  N   UNL     1      -5.237   4.072  25.396  0.00  0.00    -0.304 NA
ATOM     30  C   UNL     1      -6.243   5.069  25.761  0.00  0.00    +0.104 C 
ATOM     31  C   UNL     1      -5.855   2.754  25.249  0.00  0.00    +0.104 C 
ENDBRANCH  25   8
ENDBRANCH  23  25
ENDBRANCH  19  22
BRANCH  18  21
ATOM     21  C   UNL     1       0.793  -2.012  23.805  0.00  0.00    +0.165 C 
BRANCH  21   1
ATOM      1  S   UNL     1       0.711  -0.236  23.530  0.00  0.00    -0.140 S 
BRANCH   1  28
ATOM     28  C   UNL     1       2.004  -0.089  22.272  0.00  0.00    +0.189 C 
BRANCH  28  32
ATOM      5  O   UNL     1       3.800   1.357  22.974  0.00  0.00    -0.250 OA
ATOM     32  C   UNL     1       3.311   0.235  22.936  0.00  0.00    +0.315 C 
BRANCH  32   4
ATOM      4  O   UNL     1       3.892  -0.850  23.508  0.00  0.00    -0.480 OA
ATOM     33  H   UNL     1       3.400  -1.154  24.300  0.00  0.00    +0.295 HD
ENDBRANCH  32   4
ENDBRANCH  28  32
ENDBRANCH   1  28
ENDBRANCH  21   1
ENDBRANCH  18  21
TORSDOF 8
ENDMDL
MODEL 5
REMARK VINA RESULT:       6.4      2.562      6.268
REMARK  Name = 11885248
REMARK  10 active torsions:
REMARK  status: ('A' for Active; 'I' for Inactive)
REMARK    1  A    between atoms: S_1  and  C_21
REMARK    2  A    between atoms: S_1  and  C_28
REMARK    3  A    between atoms: O_4  and  C_32
REMARK    4  A    between atoms: N_8  and  C_25
REMARK    5  A    between atoms: N_8  and  C_30
REMARK    6  A    between atoms: N_8  and  C_31
REMARK    7  A    between atoms: C_18  and  C_21
REMARK    8  A    between atoms: C_19  and  C_22
REMARK    9  A    between atoms: C_23  and  C_25
REMARK   10  A    between atoms: C_28  and  C_32
REMARK                            x       y       z     vdW  Elec       q    Type
REMARK                         _______ _______ _______ _____ _____    ______ ____
ROOT
ATOM      2  O   UNL     1      -3.489   2.031  26.134  0.00  0.00    -0.267 OA
ATOM      3  O   UNL     1      -0.168  -2.151  26.413  0.00  0.00    -0.275 OA
ATOM      6  N   UNL     1      -1.747  -2.466  24.738  0.00  0.00    -0.300 N 
ATOM      7  N   UNL     1      -3.479   0.215  24.670  0.00  0.00    -0.311 N 
ATOM      9  C   UNL     1      -4.133  -2.148  25.406  0.00  0.00    +0.027 C 
ATOM     10  C   UNL     1      -3.452  -1.737  23.079  0.00  0.00    +0.054 C 
ATOM     11  C   UNL     1      -4.553  -2.335  23.953  0.00  0.00    +0.018 C 
ATOM     12  C   UNL     1      -2.799  -2.864  25.677  0.00  0.00    +0.113 C 
ATOM     13  C   UNL     1      -4.056  -0.648  25.710  0.00  0.00    +0.130 C 
ATOM     14  C   UNL     1      -2.133  -2.498  23.319  0.00  0.00    +0.117 C 
ATOM     15  C   UNL     1      -3.257  -0.262  23.376  0.00  0.00    +0.027 A 
ATOM     16  C   UNL     1      -2.844   0.575  22.412  0.00  0.00    +0.022 A 
ATOM     17  C   UNL     1      -3.271   1.565  25.013  0.00  0.00    +0.259 A 
ATOM     18  C   UNL     1      -0.471  -2.171  25.217  0.00  0.00    +0.225 C 
ATOM     19  C   UNL     1      -2.773   2.472  23.919  0.00  0.00    +0.047 A 
ATOM     20  C   UNL     1      -2.595   1.959  22.692  0.00  0.00    +0.015 A 
ENDROOT
BRANCH  19  22
ATOM     22  C   UNL     1      -2.477   3.891  24.179  0.00  0.00    -0.008 A 
ATOM     23  C   UNL     1      -1.238   4.296  24.682  0.00  0.00    -0.026 A 
ATOM     24  C   UNL     1      -3.463   4.845  23.915  0.00  0.00    +0.009 A 
ATOM     26  C   UNL     1      -0.987   5.648  24.918  0.00  0.00    +0.005 A 
ATOM     27  C   UNL     1      -3.212   6.196  24.152  0.00  0.00    +0.001 A 
ATOM     29  C   UNL     1      -1.974   6.597  24.653  0.00  0.00    +0.000 A 
BRANCH  23  25
ATOM     25  C   UNL     1      -0.158   3.307  24.977  0.00  0.00    +0.119 C 
BRANCH  25   8
ATOM      8  N   UNL     1      -0.299   2.713  26.306  0.00  0.00    -0.304 NA
ATOM     30  C   UNL     1      -0.499   1.267  26.202  0.00  0.00    +0.104 C 
ATOM     31  C   UNL     1       0.875   3.008  27.126  0.00  0.00    +0.104 C 
ENDBRANCH  25   8
ENDBRANCH  23  25
ENDBRANCH  19  22
BRANCH  18  21
ATOM     21  C   UNL     1       0.582  -1.855  24.185  0.00  0.00    +0.165 C 
BRANCH  21   1
ATOM      1  S   UNL     1       0.365  -0.139  23.690  0.00  0.00    -0.140 S 
BRANCH   1  28
ATOM     28  C   UNL     1       1.539  -0.094  22.315  0.00  0.00    +0.189 C 
BRANCH  28  32
ATOM      5  O   UNL     1       3.763  -0.645  23.063  0.00  0.00    -0.250 OA
ATOM     32  C   UNL     1       2.913   0.208  22.841  0.00  0.00    +0.315 C 
BRANCH  32   4
ATOM      4  O   UNL     1       3.122   1.536  23.031  0.00  0.00    -0.480 OA
ATOM     33  H   UNL     1       2.388   2.077  22.671  0.00  0.00    +0.295 HD
ENDBRANCH  32   4
ENDBRANCH  28  32
ENDBRANCH   1  28
ENDBRANCH  21   1
ENDBRANCH  18  21
TORSDOF 8
ENDMDL
MODEL 6
REMARK VINA RESULT:       7.9      2.627      6.231
REMARK  Name = 11885248
REMARK  10 active torsions:
REMARK  status: ('A' for Active; 'I' for Inactive)
REMARK    1  A    between atoms: S_1  and  C_21
REMARK    2  A    between atoms: S_1  and  C_28
REMARK    3  A    between atoms: O_4  and  C_32
REMARK    4  A    between atoms: N_8  and  C_25
REMARK    5  A    between atoms: N_8  and  C_30
REMARK    6  A    between atoms: N_8  and  C_31
REMARK    7  A    between atoms: C_18  and  C_21
REMARK    8  A    between atoms: C_19  and  C_22
REMARK    9  A    between atoms: C_23  and  C_25
REMARK   10  A    between atoms: C_28  and  C_32
REMARK                            x       y       z     vdW  Elec       q    Type
REMARK                         _______ _______ _______ _____ _____    ______ ____
ROOT
ATOM      2  O   UNL     1      -4.078   0.818  26.871  0.00  0.00    -0.267 OA
ATOM      3  O   UNL     1       0.694  -1.118  25.427  0.00  0.00    -0.275 OA
ATOM      6  N   UNL     1      -1.020  -2.309  24.405  0.00  0.00    -0.300 N 
ATOM      7  N   UNL     1      -3.724  -0.861  25.291  0.00  0.00    -0.311 N 
ATOM      9  C   UNL     1      -2.811  -3.170  25.918  0.00  0.00    +0.027 C 
ATOM     10  C   UNL     1      -3.337  -2.660  23.571  0.00  0.00    +0.054 C 
ATOM     11  C   UNL     1      -3.590  -3.655  24.701  0.00  0.00    +0.018 C 
ATOM     12  C   UNL     1      -1.307  -3.102  25.602  0.00  0.00    +0.113 C 
ATOM     13  C   UNL     1      -3.371  -1.812  26.355  0.00  0.00    +0.130 C 
ATOM     14  C   UNL     1      -1.834  -2.640  23.227  0.00  0.00    +0.117 C 
ATOM     15  C   UNL     1      -3.794  -1.265  23.956  0.00  0.00    +0.027 A 
ATOM     16  C   UNL     1      -4.235  -0.413  23.017  0.00  0.00    +0.022 A 
ATOM     17  C   UNL     1      -4.093   0.435  25.699  0.00  0.00    +0.259 A 
ATOM     18  C   UNL     1       0.022  -1.381  24.426  0.00  0.00    +0.225 C 
ATOM     19  C   UNL     1      -4.549   1.379  24.618  0.00  0.00    +0.047 A 
ATOM     20  C   UNL     1      -4.612   0.929  23.356  0.00  0.00    +0.015 A 
ENDROOT
BRANCH  19  22
ATOM     22  C   UNL     1      -4.912   2.773  24.926  0.00  0.00    -0.008 A 
ATOM     23  C   UNL     1      -3.986   3.812  24.807  0.00  0.00    -0.026 A 
ATOM     24  C   UNL     1      -6.216   3.052  25.346  0.00  0.00    +0.009 A 
ATOM     26  C   UNL     1      -4.360   5.122  25.106  0.00  0.00    +0.005 A 
ATOM     27  C   UNL     1      -6.589   4.362  25.646  0.00  0.00    +0.001 A 
ATOM     29  C   UNL     1      -5.661   5.397  25.525  0.00  0.00    +0.000 A 
BRANCH  23  25
ATOM     25  C   UNL     1      -2.583   3.554  24.362  0.00  0.00    +0.119 C 
BRANCH  25   8
ATOM      8  N   UNL     1      -1.603   3.888  25.395  0.00  0.00    -0.304 NA
ATOM     30  C   UNL     1      -0.891   2.687  25.833  0.00  0.00    +0.104 C 
ATOM     31  C   UNL     1      -0.659   4.889  24.900  0.00  0.00    +0.104 C 
ENDBRANCH  25   8
ENDBRANCH  23  25
ENDBRANCH  19  22
BRANCH  18  21
ATOM     21  C   UNL     1       0.315  -0.665  23.132  0.00  0.00    +0.165 C 
BRANCH  21   1
ATOM      1  S   UNL     1       1.438   0.692  23.500  0.00  0.00    -0.140 S 
BRANCH   1  28
ATOM     28  C   UNL     1       2.822   0.203  22.442  0.00  0.00    +0.189 C 
BRANCH  28  32
ATOM      5  O   UNL     1       4.887   0.859  23.498  0.00  0.00    -0.250 OA
ATOM     32  C   UNL     1       4.046  -0.006  23.287  0.00  0.00    +0.315 C 
BRANCH  32   4
ATOM      4  O   UNL     1       4.116  -1.256  23.810  0.00  0.00    -0.480 OA
ATOM     33  H   UNL     1       3.233  -1.597  24.063  0.00  0.00    +0.295 HD
ENDBRANCH  32   4
ENDBRANCH  28  32
ENDBRANCH   1  28
ENDBRANCH  21   1
ENDBRANCH  18  21
TORSDOF 8
ENDMDL
