MODEL 1
REMARK VINA RESULT:      14.6      0.000      0.000
REMARK  Name = 11939954
REMARK  9 active torsions:
REMARK  status: ('A' for Active; 'I' for Inactive)
REMARK    1  A    between atoms: N_5  and  C_13
REMARK    2  A    between atoms: N_6  and  C_14
REMARK    3  A    between atoms: N_7  and  C_20
REMARK    4  A    between atoms: N_10  and  C_33
REMARK    5  A    between atoms: N_10  and  C_35
REMARK    6  A    between atoms: N_10  and  C_36
REMARK    7  A    between atoms: C_19  and  C_23
REMARK    8  A    between atoms: C_30  and  C_34
REMARK    9  A    between atoms: C_34  and  C_37
REMARK                            x       y       z     vdW  Elec       q    Type
REMARK                         _______ _______ _______ _____ _____    ______ ____
ROOT
ATOM      1  O   UNL     1      -5.619  -0.774  23.865  0.00  0.00    -0.370 OA
ATOM      2  O   UNL     1      -3.756  -0.704  26.366  0.00  0.00    -0.370 OA
ATOM     11  C   UNL     1      -3.864   0.125  25.196  0.00  0.00    +0.171 C 
ATOM     12  C   UNL     1      -4.191  -0.787  24.029  0.00  0.00    +0.171 C 
ATOM     13  C   UNL     1      -5.067   1.032  25.306  0.00  0.00    +0.130 C 
ATOM     14  C   UNL     1      -3.727  -2.150  24.485  0.00  0.00    +0.131 C 
ATOM     15  C   UNL     1      -6.195   0.151  24.798  0.00  0.00    +0.185 C 
ATOM     16  C   UNL     1      -3.930  -2.077  25.988  0.00  0.00    +0.185 C 
ENDROOT
BRANCH  13   5
ATOM      5  N   UNL     1      -4.901   2.181  24.443  0.00  0.00    -0.306 N 
ATOM      8  N   UNL     1      -2.862   2.729  25.407  0.00  0.00    -0.214 NA
ATOM      9  N   UNL     1      -3.796   4.050  23.622  0.00  0.00    -0.223 NA
ATOM     17  C   UNL     1      -3.806   3.023  24.493  0.00  0.00    +0.216 A 
ATOM     19  C   UNL     1      -1.808   3.571  25.429  0.00  0.00    +0.076 A 
ATOM     21  C   UNL     1      -2.714   4.852  23.698  0.00  0.00    +0.116 A 
ATOM     22  C   UNL     1      -1.678   4.659  24.589  0.00  0.00    +0.048 A 
ATOM     38  H   UNL     1      -5.590   2.365  23.722  0.00  0.00    +0.149 HD
BRANCH  19  23
ATOM     23  C   UNL     1      -0.794   3.259  26.407  0.00  0.00    +0.001 A 
ATOM     26  C   UNL     1       0.535   3.110  26.011  0.00  0.00    +0.012 A 
ATOM     27  C   UNL     1      -1.143   3.108  27.750  0.00  0.00    +0.012 A 
ATOM     31  C   UNL     1       1.515   2.811  26.957  0.00  0.00    +0.024 A 
ATOM     32  C   UNL     1      -0.164   2.808  28.696  0.00  0.00    +0.024 A 
ATOM     33  C   UNL     1       1.165   2.659  28.300  0.00  0.00    +0.029 A 
BRANCH  33  10
ATOM     10  N   UNL     1       2.157   2.355  29.257  0.00  0.00    -0.336 N 
ATOM     35  C   UNL     1       3.559   2.556  28.949  0.00  0.00    +0.129 C 
ATOM     36  C   UNL     1       1.785   1.851  30.564  0.00  0.00    +0.129 C 
ENDBRANCH  33  10
ENDBRANCH  19  23
ENDBRANCH  13   5
BRANCH  14   6
ATOM      3  O   UNL     1      -1.685  -0.152  24.277  0.00  0.00    -0.252 OA
ATOM      6  N   UNL     1      -2.338  -2.366  24.155  0.00  0.00    -0.292 N 
ATOM      7  N   UNL     1      -0.143  -1.837  23.736  0.00  0.00    -0.269 N 
ATOM     18  C   UNL     1      -1.401  -1.330  24.073  0.00  0.00    +0.304 C 
ATOM     39  H   UNL     1      -2.012  -3.321  24.038  0.00  0.00    +0.151 HD
ATOM     40  H   UNL     1      -0.078  -2.842  23.598  0.00  0.00    +0.156 HD
BRANCH   7  20
ATOM     20  C   UNL     1       1.063  -1.120  23.557  0.00  0.00    +0.035 A 
ATOM     24  C   UNL     1       1.027   0.215  23.151  0.00  0.00    +0.024 A 
ATOM     25  C   UNL     1       2.288  -1.745  23.788  0.00  0.00    +0.024 A 
ATOM     28  C   UNL     1       2.217   0.923  22.977  0.00  0.00    +0.013 A 
ATOM     29  C   UNL     1       3.477  -1.038  23.612  0.00  0.00    +0.013 A 
ATOM     30  C   UNL     1       3.441   0.296  23.207  0.00  0.00    +0.017 A 
BRANCH  30  34
ATOM      4  O   UNL     1       4.709   2.117  22.407  0.00  0.00    -0.292 OA
ATOM     34  C   UNL     1       4.681   1.033  23.024  0.00  0.00    +0.160 C 
ATOM     37  C   UNL     1       5.989   0.490  23.589  0.00  0.00    +0.091 C 
ENDBRANCH  30  34
ENDBRANCH   7  20
ENDBRANCH  14   6
TORSDOF 6
ENDMDL
MODEL 2
REMARK VINA RESULT:      16.1      1.495      2.051
REMARK  Name = 11939954
REMARK  9 active torsions:
REMARK  status: ('A' for Active; 'I' for Inactive)
REMARK    1  A    between atoms: N_5  and  C_13
REMARK    2  A    between atoms: N_6  and  C_14
REMARK    3  A    between atoms: N_7  and  C_20
REMARK    4  A    between atoms: N_10  and  C_33
REMARK    5  A    between atoms: N_10  and  C_35
REMARK    6  A    between atoms: N_10  and  C_36
REMARK    7  A    between atoms: C_19  and  C_23
REMARK    8  A    between atoms: C_30  and  C_34
REMARK    9  A    between atoms: C_34  and  C_37
REMARK                            x       y       z     vdW  Elec       q    Type
REMARK                         _______ _______ _______ _____ _____    ______ ____
ROOT
ATOM      1  O   UNL     1      -3.966  -0.667  23.003  0.00  0.00    -0.370 OA
ATOM      2  O   UNL     1      -3.058  -1.100  25.956  0.00  0.00    -0.370 OA
ATOM     11  C   UNL     1      -3.414   0.067  25.198  0.00  0.00    +0.171 C 
ATOM     12  C   UNL     1      -2.888  -0.133  23.790  0.00  0.00    +0.171 C 
ATOM     13  C   UNL     1      -4.913   0.142  25.025  0.00  0.00    +0.130 C 
ATOM     14  C   UNL     1      -1.793  -1.162  23.949  0.00  0.00    +0.131 C 
ATOM     15  C   UNL     1      -5.152  -0.732  23.808  0.00  0.00    +0.185 C 
ATOM     16  C   UNL     1      -2.287  -1.983  25.127  0.00  0.00    +0.185 C 
ENDROOT
BRANCH  13   5
ATOM      5  N   UNL     1      -5.312   1.505  24.749  0.00  0.00    -0.306 N 
ATOM      8  N   UNL     1      -3.422   2.369  25.784  0.00  0.00    -0.214 NA
ATOM      9  N   UNL     1      -5.076   3.815  24.794  0.00  0.00    -0.223 NA
ATOM     17  C   UNL     1      -4.572   2.611  25.125  0.00  0.00    +0.216 A 
ATOM     19  C   UNL     1      -2.725   3.469  26.136  0.00  0.00    +0.076 A 
ATOM     21  C   UNL     1      -4.329   4.870  25.176  0.00  0.00    +0.116 A 
ATOM     22  C   UNL     1      -3.133   4.757  25.856  0.00  0.00    +0.048 A 
ATOM     38  H   UNL     1      -6.152   1.678  24.206  0.00  0.00    +0.149 HD
BRANCH  19  23
ATOM     23  C   UNL     1      -1.493   3.214  26.843  0.00  0.00    +0.001 A 
ATOM     26  C   UNL     1      -1.464   3.267  28.236  0.00  0.00    +0.012 A 
ATOM     27  C   UNL     1      -0.331   2.911  26.132  0.00  0.00    +0.012 A 
ATOM     31  C   UNL     1      -0.274   3.018  28.918  0.00  0.00    +0.024 A 
ATOM     32  C   UNL     1       0.859   2.661  26.814  0.00  0.00    +0.024 A 
ATOM     33  C   UNL     1       0.888   2.715  28.207  0.00  0.00    +0.029 A 
BRANCH  33  10
ATOM     10  N   UNL     1       2.093   2.464  28.898  0.00  0.00    -0.336 N 
ATOM     35  C   UNL     1       3.365   2.832  28.310  0.00  0.00    +0.129 C 
ATOM     36  C   UNL     1       2.073   1.847  30.209  0.00  0.00    +0.129 C 
ENDBRANCH  33  10
ENDBRANCH  19  23
ENDBRANCH  13   5
BRANCH  14   6
ATOM      3  O   UNL     1       0.759  -1.857  22.848  0.00  0.00    -0.252 OA
ATOM      6  N   UNL     1      -0.527  -0.535  24.242  0.00  0.00    -0.292 N 
ATOM      7  N   UNL     1       1.735  -0.151  24.131  0.00  0.00    -0.269 N 
ATOM     18  C   UNL     1       0.680  -0.937  23.658  0.00  0.00    +0.304 C 
ATOM     39  H   UNL     1      -0.520   0.277  24.853  0.00  0.00    +0.151 HD
ATOM     40  H   UNL     1       1.499   0.572  24.806  0.00  0.00    +0.156 HD
BRANCH   7  20
ATOM     20  C   UNL     1       3.104  -0.238  23.788  0.00  0.00    +0.035 A 
ATOM     24  C   UNL     1       3.724   0.816  23.118  0.00  0.00    +0.024 A 
ATOM     25  C   UNL     1       3.836  -1.378  24.121  0.00  0.00    +0.024 A 
ATOM     28  C   UNL     1       5.076   0.731  22.782  0.00  0.00    +0.013 A 
ATOM     29  C   UNL     1       5.186  -1.464  23.784  0.00  0.00    +0.013 A 
ATOM     30  C   UNL     1       5.806  -0.410  23.114  0.00  0.00    +0.017 A 
BRANCH  30  34
ATOM      4  O   UNL     1       7.617  -1.291  21.886  0.00  0.00    -0.292 OA
ATOM     34  C   UNL     1       7.214  -0.500  22.762  0.00  0.00    +0.160 C 
ATOM     37  C   UNL     1       8.240   0.381  23.466  0.00  0.00    +0.091 C 
ENDBRANCH  30  34
ENDBRANCH   7  20
ENDBRANCH  14   6
TORSDOF 6
ENDMDL
