MODEL 1
REMARK VINA RESULT:       9.3      0.000      0.000
REMARK  Name = 11867292
REMARK  12 active torsions:
REMARK  status: ('A' for Active; 'I' for Inactive)
REMARK    1  A    between atoms: O_2  and  C_16
REMARK    2  A    between atoms: O_3  and  C_21
REMARK    3  A    between atoms: O_6  and  C_30
REMARK    4  A    between atoms: O_6  and  C_35
REMARK    5  A    between atoms: N_8  and  C_27
REMARK    6  A    between atoms: C_11  and  C_19
REMARK    7  A    between atoms: C_13  and  C_21
REMARK    8  A    between atoms: C_13  and  C_22
REMARK    9  A    between atoms: C_14  and  C_24
REMARK   10  A    between atoms: C_24  and  C_25
REMARK   11  A    between atoms: C_27  and  C_29
REMARK   12  A    between atoms: C_28  and  C_30
REMARK                            x       y       z     vdW  Elec       q    Type
REMARK                         _______ _______ _______ _____ _____    ______ ____
ROOT
ATOM      1  S   UNL     1      -0.674  -0.992  23.542  0.00  0.00    -0.057 S 
ATOM      5  O   UNL     1       3.100   1.723  23.177  0.00  0.00    -0.273 OA
ATOM      7  N   UNL     1       0.225   1.413  23.852  0.00  0.00    -0.229 NA
ATOM      9  N   UNL     1       1.793  -0.241  23.069  0.00  0.00    -0.263 N 
ATOM     11  C   UNL     1      -3.388   2.526  24.615  0.00  0.00    -0.019 C 
ATOM     12  C   UNL     1      -3.771   1.117  25.251  0.00  0.00    +0.011 C 
ATOM     13  C   UNL     1      -5.275   0.909  25.675  0.00  0.00    +0.021 C 
ATOM     14  C   UNL     1      -1.797   2.677  24.674  0.00  0.00    +0.054 C 
ATOM     15  C   UNL     1      -4.018   3.662  25.462  0.00  0.00    +0.010 C 
ATOM     16  C   UNL     1      -5.759   2.153  26.471  0.00  0.00    +0.123 C 
ATOM     17  C   UNL     1      -3.185  -0.061  24.417  0.00  0.00    +0.049 C 
ATOM     18  C   UNL     1      -5.500   3.469  25.746  0.00  0.00    +0.032 C 
ATOM     19  C   UNL     1      -3.865   2.675  23.150  0.00  0.00    +0.012 C 
ATOM     20  C   UNL     1      -1.115   1.423  24.191  0.00  0.00    +0.058 A 
ATOM     22  C   UNL     1      -5.368  -0.316  26.629  0.00  0.00    +0.016 C 
ATOM     23  C   UNL     1      -1.751   0.202  24.100  0.00  0.00    +0.015 A 
ATOM     26  C   UNL     1       0.565   0.196  23.487  0.00  0.00    +0.165 A 
ATOM     28  C   UNL     1       2.965   0.527  22.940  0.00  0.00    +0.244 C 
ATOM     39  H   UNL     1       1.841  -1.229  22.833  0.00  0.00    +0.157 HD
ENDROOT
BRANCH  16   2
ATOM      2  O   UNL     1      -7.154   2.055  26.759  0.00  0.00    -0.391 OA
ATOM     36  H   UNL     1      -7.449   2.920  27.089  0.00  0.00    +0.210 HD
ENDBRANCH  16   2
BRANCH  13  21
ATOM     21  C   UNL     1      -6.234   0.596  24.505  0.00  0.00    +0.165 C 
BRANCH  21   3
ATOM      3  O   UNL     1      -7.111   1.690  24.361  0.00  0.00    -0.394 OA
ATOM     37  H   UNL     1      -7.799   1.601  25.042  0.00  0.00    +0.209 HD
ENDBRANCH  21   3
ENDBRANCH  13  21
BRANCH  14  24
ATOM     24  C   UNL     1      -1.249   3.923  23.967  0.00  0.00    +0.106 C 
BRANCH  24  25
ATOM      4  O   UNL     1       0.021   5.835  24.734  0.00  0.00    -0.276 OA
ATOM      8  N   UNL     1       0.476   3.730  25.608  0.00  0.00    -0.311 N 
ATOM     25  C   UNL     1      -0.197   4.628  24.793  0.00  0.00    +0.214 C 
ATOM     38  H   UNL     1       0.213   2.748  25.588  0.00  0.00    +0.149 HD
BRANCH   8  27
ATOM     27  C   UNL     1       1.538   4.122  26.507  0.00  0.00    +0.141 C 
BRANCH  27  29
ATOM     10  N   UNL     1       2.753   2.462  29.680  0.00  0.00    -0.263 NA
ATOM     29  C   UNL     1       1.540   3.305  27.766  0.00  0.00    -0.012 A 
ATOM     31  C   UNL     1       0.393   2.644  28.193  0.00  0.00    +0.008 A 
ATOM     32  C   UNL     1       2.684   3.183  28.539  0.00  0.00    +0.115 A 
ATOM     33  C   UNL     1       0.425   1.893  29.362  0.00  0.00    +0.020 A 
ATOM     34  C   UNL     1       1.619   1.834  30.063  0.00  0.00    +0.111 A 
ENDBRANCH  27  29
ENDBRANCH   8  27
ENDBRANCH  24  25
ENDBRANCH  14  24
BRANCH  28  30
ATOM     30  C   UNL     1       4.126  -0.317  22.448  0.00  0.00    +0.255 C 
BRANCH  30   6
ATOM      6  O   UNL     1       5.337   0.090  23.050  0.00  0.00    -0.374 OA
ATOM     35  C   UNL     1       5.569  -0.582  24.284  0.00  0.00    +0.194 C 
ENDBRANCH  30   6
ENDBRANCH  28  30
TORSDOF 9
ENDMDL
MODEL 2
REMARK VINA RESULT:      11.0      2.561      4.099
REMARK  Name = 11867292
REMARK  12 active torsions:
REMARK  status: ('A' for Active; 'I' for Inactive)
REMARK    1  A    between atoms: O_2  and  C_16
REMARK    2  A    between atoms: O_3  and  C_21
REMARK    3  A    between atoms: O_6  and  C_30
REMARK    4  A    between atoms: O_6  and  C_35
REMARK    5  A    between atoms: N_8  and  C_27
REMARK    6  A    between atoms: C_11  and  C_19
REMARK    7  A    between atoms: C_13  and  C_21
REMARK    8  A    between atoms: C_13  and  C_22
REMARK    9  A    between atoms: C_14  and  C_24
REMARK   10  A    between atoms: C_24  and  C_25
REMARK   11  A    between atoms: C_27  and  C_29
REMARK   12  A    between atoms: C_28  and  C_30
REMARK                            x       y       z     vdW  Elec       q    Type
REMARK                         _______ _______ _______ _____ _____    ______ ____
ROOT
ATOM      1  S   UNL     1       2.096  -1.760  22.642  0.00  0.00    -0.057 S 
ATOM      5  O   UNL     1       5.395   1.280  23.920  0.00  0.00    -0.273 OA
ATOM      7  N   UNL     1       2.545   0.443  23.921  0.00  0.00    -0.229 NA
ATOM      9  N   UNL     1       4.449  -0.633  22.907  0.00  0.00    -0.263 N 
ATOM     11  C   UNL     1      -1.268   0.811  24.364  0.00  0.00    -0.019 C 
ATOM     12  C   UNL     1      -1.496  -0.765  24.393  0.00  0.00    +0.011 C 
ATOM     13  C   UNL     1      -2.988  -1.271  24.443  0.00  0.00    +0.021 C 
ATOM     14  C   UNL     1       0.255   1.096  24.755  0.00  0.00    +0.054 C 
ATOM     15  C   UNL     1      -2.178   1.483  25.425  0.00  0.00    +0.010 C 
ATOM     16  C   UNL     1      -3.767  -0.465  25.521  0.00  0.00    +0.123 C 
ATOM     17  C   UNL     1      -0.624  -1.485  23.322  0.00  0.00    +0.049 C 
ATOM     18  C   UNL     1      -3.634   1.044  25.355  0.00  0.00    +0.032 C 
ATOM     19  C   UNL     1      -1.571   1.437  22.981  0.00  0.00    +0.012 C 
ATOM     20  C   UNL     1       1.189   0.186  23.997  0.00  0.00    +0.058 A 
ATOM     22  C   UNL     1      -3.003  -2.763  24.882  0.00  0.00    +0.016 C 
ATOM     23  C   UNL     1       0.776  -0.975  23.377  0.00  0.00    +0.015 A 
ATOM     26  C   UNL     1       3.122  -0.512  23.225  0.00  0.00    +0.165 A 
ATOM     28  C   UNL     1       5.487   0.247  23.264  0.00  0.00    +0.244 C 
ATOM     39  H   UNL     1       4.686  -1.454  22.357  0.00  0.00    +0.157 HD
ENDROOT
BRANCH  16   2
ATOM      2  O   UNL     1      -5.152  -0.809  25.503  0.00  0.00    -0.391 OA
ATOM     36  H   UNL     1      -5.373  -1.097  24.601  0.00  0.00    +0.210 HD
ENDBRANCH  16   2
BRANCH  13  21
ATOM     21  C   UNL     1      -3.725  -1.231  23.086  0.00  0.00    +0.165 C 
BRANCH  21   3
ATOM      3  O   UNL     1      -4.617  -2.322  23.047  0.00  0.00    -0.394 OA
ATOM     37  H   UNL     1      -4.847  -2.541  23.966  0.00  0.00    +0.209 HD
ENDBRANCH  21   3
ENDBRANCH  13  21
BRANCH  14  24
ATOM     24  C   UNL     1       0.680   2.565  24.633  0.00  0.00    +0.106 C 
BRANCH  24  25
ATOM      4  O   UNL     1      -0.372   3.438  26.629  0.00  0.00    -0.276 OA
ATOM      8  N   UNL     1      -0.883   4.371  24.563  0.00  0.00    -0.311 N 
ATOM     25  C   UNL     1      -0.233   3.486  25.410  0.00  0.00    +0.214 C 
ATOM     38  H   UNL     1      -0.692   4.333  23.565  0.00  0.00    +0.149 HD
BRANCH   8  27
ATOM     27  C   UNL     1      -1.820   5.367  25.030  0.00  0.00    +0.141 C 
BRANCH  27  29
ATOM     10  N   UNL     1      -4.862   3.991  26.807  0.00  0.00    -0.263 NA
ATOM     29  C   UNL     1      -3.187   4.789  25.256  0.00  0.00    -0.012 A 
ATOM     31  C   UNL     1      -4.035   4.512  24.188  0.00  0.00    +0.008 A 
ATOM     32  C   UNL     1      -3.645   4.512  26.535  0.00  0.00    +0.115 A 
ATOM     33  C   UNL     1      -5.294   3.976  24.428  0.00  0.00    +0.020 A 
ATOM     34  C   UNL     1      -5.657   3.735  25.744  0.00  0.00    +0.111 A 
ENDBRANCH  27  29
ENDBRANCH   8  27
ENDBRANCH  24  25
ENDBRANCH  14  24
BRANCH  28  30
ATOM     30  C   UNL     1       6.823  -0.230  22.726  0.00  0.00    +0.255 C 
BRANCH  30   6
ATOM      6  O   UNL     1       7.881   0.177  23.569  0.00  0.00    -0.374 OA
ATOM     35  C   UNL     1       9.154  -0.122  23.006  0.00  0.00    +0.194 C 
ENDBRANCH  30   6
ENDBRANCH  28  30
TORSDOF 9
ENDMDL
MODEL 3
REMARK VINA RESULT:      11.8      1.914      3.339
REMARK  Name = 11867292
REMARK  12 active torsions:
REMARK  status: ('A' for Active; 'I' for Inactive)
REMARK    1  A    between atoms: O_2  and  C_16
REMARK    2  A    between atoms: O_3  and  C_21
REMARK    3  A    between atoms: O_6  and  C_30
REMARK    4  A    between atoms: O_6  and  C_35
REMARK    5  A    between atoms: N_8  and  C_27
REMARK    6  A    between atoms: C_11  and  C_19
REMARK    7  A    between atoms: C_13  and  C_21
REMARK    8  A    between atoms: C_13  and  C_22
REMARK    9  A    between atoms: C_14  and  C_24
REMARK   10  A    between atoms: C_24  and  C_25
REMARK   11  A    between atoms: C_27  and  C_29
REMARK   12  A    between atoms: C_28  and  C_30
REMARK                            x       y       z     vdW  Elec       q    Type
REMARK                         _______ _______ _______ _____ _____    ______ ____
ROOT
ATOM      1  S   UNL     1       0.458   2.806  23.961  0.00  0.00    -0.057 S 
ATOM      5  O   UNL     1       2.922  -0.940  22.679  0.00  0.00    -0.273 OA
ATOM      7  N   UNL     1       0.326   0.271  23.462  0.00  0.00    -0.229 NA
ATOM      9  N   UNL     1       2.489   1.313  23.239  0.00  0.00    -0.263 N 
ATOM     11  C   UNL     1      -3.342   0.360  24.648  0.00  0.00    -0.019 C 
ATOM     12  C   UNL     1      -3.546   1.862  24.160  0.00  0.00    +0.011 C 
ATOM     13  C   UNL     1      -4.924   2.545  24.504  0.00  0.00    +0.021 C 
ATOM     14  C   UNL     1      -2.111  -0.259  23.837  0.00  0.00    +0.054 C 
ATOM     15  C   UNL     1      -4.611  -0.466  24.315  0.00  0.00    +0.010 C 
ATOM     16  C   UNL     1      -6.081   1.568  24.154  0.00  0.00    +0.123 C 
ATOM     17  C   UNL     1      -2.307   2.743  24.500  0.00  0.00    +0.049 C 
ATOM     18  C   UNL     1      -5.908   0.185  24.771  0.00  0.00    +0.032 C 
ATOM     19  C   UNL     1      -3.064   0.253  26.168  0.00  0.00    +0.012 C 
ATOM     20  C   UNL     1      -0.941   0.692  23.818  0.00  0.00    +0.058 A 
ATOM     22  C   UNL     1      -5.100   3.808  23.614  0.00  0.00    +0.016 C 
ATOM     23  C   UNL     1      -1.055   2.037  24.102  0.00  0.00    +0.015 A 
ATOM     26  C   UNL     1       1.146   1.299  23.509  0.00  0.00    +0.165 A 
ATOM     28  C   UNL     1       3.283   0.220  22.847  0.00  0.00    +0.244 C 
ATOM     39  H   UNL     1       2.937   2.219  23.336  0.00  0.00    +0.157 HD
ENDROOT
BRANCH  16   2
ATOM      2  O   UNL     1      -7.337   2.104  24.572  0.00  0.00    -0.391 OA
ATOM     36  H   UNL     1      -7.408   1.975  25.533  0.00  0.00    +0.210 HD
ENDBRANCH  16   2
BRANCH  13  21
ATOM     21  C   UNL     1      -5.047   3.045  25.961  0.00  0.00    +0.165 C 
BRANCH  21   3
ATOM      3  O   UNL     1      -6.062   4.023  25.997  0.00  0.00    -0.394 OA
ATOM     37  H   UNL     1      -6.011   4.460  26.864  0.00  0.00    +0.209 HD
ENDBRANCH  21   3
ENDBRANCH  13  21
BRANCH  14  24
ATOM     24  C   UNL     1      -1.688  -1.661  24.293  0.00  0.00    +0.106 C 
BRANCH  24  25
ATOM      4  O   UNL     1       0.367  -2.214  25.446  0.00  0.00    -0.276 OA
ATOM      8  N   UNL     1      -1.178  -0.808  26.466  0.00  0.00    -0.311 N 
ATOM     25  C   UNL     1      -0.704  -1.611  25.440  0.00  0.00    +0.214 C 
ATOM     38  H   UNL     1      -2.077  -0.346  26.359  0.00  0.00    +0.149 HD
BRANCH   8  27
ATOM     27  C   UNL     1      -0.447  -0.578  27.691  0.00  0.00    +0.141 C 
BRANCH  27  29
ATOM     10  N   UNL     1       1.451   2.446  28.939  0.00  0.00    -0.263 NA
ATOM     29  C   UNL     1       0.116   0.812  27.758  0.00  0.00    -0.012 A 
ATOM     31  C   UNL     1      -0.150   1.742  26.759  0.00  0.00    +0.008 A 
ATOM     32  C   UNL     1       0.915   1.210  28.818  0.00  0.00    +0.115 A 
ATOM     33  C   UNL     1       0.383   3.022  26.848  0.00  0.00    +0.020 A 
ATOM     34  C   UNL     1       1.170   3.322  27.949  0.00  0.00    +0.111 A 
ENDBRANCH  27  29
ENDBRANCH   8  27
ENDBRANCH  24  25
ENDBRANCH  14  24
BRANCH  28  30
ATOM     30  C   UNL     1       4.728   0.635  22.639  0.00  0.00    +0.255 C 
BRANCH  30   6
ATOM      6  O   UNL     1       5.397   0.774  23.874  0.00  0.00    -0.374 OA
ATOM     35  C   UNL     1       5.724  -0.488  24.447  0.00  0.00    +0.194 C 
ENDBRANCH  30   6
ENDBRANCH  28  30
TORSDOF 9
ENDMDL
MODEL 4
REMARK VINA RESULT:      11.8      2.791      4.334
REMARK  Name = 11867292
REMARK  12 active torsions:
REMARK  status: ('A' for Active; 'I' for Inactive)
REMARK    1  A    between atoms: O_2  and  C_16
REMARK    2  A    between atoms: O_3  and  C_21
REMARK    3  A    between atoms: O_6  and  C_30
REMARK    4  A    between atoms: O_6  and  C_35
REMARK    5  A    between atoms: N_8  and  C_27
REMARK    6  A    between atoms: C_11  and  C_19
REMARK    7  A    between atoms: C_13  and  C_21
REMARK    8  A    between atoms: C_13  and  C_22
REMARK    9  A    between atoms: C_14  and  C_24
REMARK   10  A    between atoms: C_24  and  C_25
REMARK   11  A    between atoms: C_27  and  C_29
REMARK   12  A    between atoms: C_28  and  C_30
REMARK                            x       y       z     vdW  Elec       q    Type
REMARK                         _______ _______ _______ _____ _____    ______ ____
ROOT
ATOM      1  S   UNL     1       0.844   2.154  25.614  0.00  0.00    -0.057 S 
ATOM      5  O   UNL     1       2.425   0.562  21.525  0.00  0.00    -0.273 OA
ATOM      7  N   UNL     1       0.201   1.664  23.156  0.00  0.00    -0.229 NA
ATOM      9  N   UNL     1       2.470   1.174  23.806  0.00  0.00    -0.263 N 
ATOM     11  C   UNL     1      -3.439   2.553  24.067  0.00  0.00    -0.019 C 
ATOM     12  C   UNL     1      -2.988   3.598  25.180  0.00  0.00    +0.011 C 
ATOM     13  C   UNL     1      -4.129   4.256  26.048  0.00  0.00    +0.021 C 
ATOM     14  C   UNL     1      -2.221   2.360  23.050  0.00  0.00    +0.054 C 
ATOM     15  C   UNL     1      -4.646   3.126  23.280  0.00  0.00    +0.010 C 
ATOM     16  C   UNL     1      -5.275   4.731  25.111  0.00  0.00    +0.123 C 
ATOM     17  C   UNL     1      -1.795   3.055  26.020  0.00  0.00    +0.049 C 
ATOM     18  C   UNL     1      -5.770   3.643  24.166  0.00  0.00    +0.032 C 
ATOM     19  C   UNL     1      -3.838   1.178  24.658  0.00  0.00    +0.012 C 
ATOM     20  C   UNL     1      -0.923   2.159  23.790  0.00  0.00    +0.058 A 
ATOM     22  C   UNL     1      -3.561   5.516  26.761  0.00  0.00    +0.016 C 
ATOM     23  C   UNL     1      -0.749   2.494  25.117  0.00  0.00    +0.015 A 
ATOM     26  C   UNL     1       1.190   1.611  24.022  0.00  0.00    +0.165 A 
ATOM     28  C   UNL     1       3.004   0.686  22.599  0.00  0.00    +0.244 C 
ATOM     39  H   UNL     1       3.082   1.218  24.616  0.00  0.00    +0.157 HD
ENDROOT
BRANCH  16   2
ATOM      2  O   UNL     1      -6.381   5.215  25.874  0.00  0.00    -0.391 OA
ATOM     36  H   UNL     1      -6.644   4.511  26.491  0.00  0.00    +0.210 HD
ENDBRANCH  16   2
BRANCH  13  21
ATOM     21  C   UNL     1      -4.678   3.354  27.175  0.00  0.00    +0.165 C 
BRANCH  21   3
ATOM      3  O   UNL     1      -5.845   2.726  26.696  0.00  0.00    -0.394 OA
ATOM     37  H   UNL     1      -5.705   2.535  25.753  0.00  0.00    +0.209 HD
ENDBRANCH  21   3
ENDBRANCH  13  21
BRANCH  14  24
ATOM     24  C   UNL     1      -2.440   1.269  21.993  0.00  0.00    +0.106 C 
BRANCH  24  25
ATOM      4  O   UNL     1      -3.594  -0.711  22.769  0.00  0.00    -0.276 OA
ATOM      8  N   UNL     1      -1.282  -0.578  22.971  0.00  0.00    -0.311 N 
ATOM     25  C   UNL     1      -2.536  -0.107  22.611  0.00  0.00    +0.214 C 
ATOM     38  H   UNL     1      -0.465  -0.001  22.790  0.00  0.00    +0.149 HD
BRANCH   8  27
ATOM     27  C   UNL     1      -1.070  -1.867  23.588  0.00  0.00    +0.141 C 
BRANCH  27  29
ATOM     10  N   UNL     1      -3.486  -3.133  26.208  0.00  0.00    -0.263 NA
ATOM     29  C   UNL     1      -1.808  -1.996  24.889  0.00  0.00    -0.012 A 
ATOM     31  C   UNL     1      -1.537  -1.146  25.955  0.00  0.00    +0.008 A 
ATOM     32  C   UNL     1      -2.784  -2.965  25.064  0.00  0.00    +0.115 A 
ATOM     33  C   UNL     1      -2.238  -1.288  27.147  0.00  0.00    +0.020 A 
ATOM     34  C   UNL     1      -3.194  -2.288  27.221  0.00  0.00    +0.111 A 
ENDBRANCH  27  29
ENDBRANCH   8  27
ENDBRANCH  24  25
ENDBRANCH  14  24
BRANCH  28  30
ATOM     30  C   UNL     1       4.464   0.301  22.758  0.00  0.00    +0.255 C 
BRANCH  30   6
ATOM      6  O   UNL     1       4.904   0.529  24.080  0.00  0.00    -0.374 OA
ATOM     35  C   UNL     1       5.700  -0.547  24.568  0.00  0.00    +0.194 C 
ENDBRANCH  30   6
ENDBRANCH  28  30
TORSDOF 9
ENDMDL
