MODEL 1
REMARK VINA RESULT:      -2.7      0.000      0.000
REMARK  Name = 75536064
REMARK  8 active torsions:
REMARK  status: ('A' for Active; 'I' for Inactive)
REMARK    1  A    between atoms: O_1  and  C_10
REMARK    2  A    between atoms: O_2  and  C_12
REMARK    3  A    between atoms: N_4  and  C_9
REMARK    4  A    between atoms: N_6  and  C_21
REMARK    5  A    between atoms: C_8  and  C_13
REMARK    6  A    between atoms: C_15  and  C_17
REMARK    7  A    between atoms: C_21  and  C_23
REMARK    8  A    between atoms: C_22  and  C_24
REMARK                            x       y       z     vdW  Elec       q    Type
REMARK                         _______ _______ _______ _____ _____    ______ ____
ROOT
ATOM      8  C   UNL     1      -2.675  -0.325  25.533  0.00  0.00    +0.046 C 
ATOM      9  C   UNL     1      -1.904  -0.932  24.339  0.00  0.00    +0.112 C 
ATOM     10  C   UNL     1      -1.910  -2.431  24.636  0.00  0.00    +0.164 C 
ATOM     11  C   UNL     1      -3.557  -1.472  26.092  0.00  0.00    +0.044 C 
ATOM     12  C   UNL     1      -3.315  -2.670  25.176  0.00  0.00    +0.145 C 
ENDROOT
BRANCH   8  13
ATOM      5  N   UNL     1      -3.400   3.265  24.548  0.00  0.00    -0.263 NA
ATOM     13  C   UNL     1      -3.439   0.929  25.168  0.00  0.00    -0.024 A 
ATOM     14  C   UNL     1      -4.828   0.930  25.110  0.00  0.00    +0.007 A 
ATOM     16  C   UNL     1      -2.778   2.112  24.881  0.00  0.00    +0.114 A 
ATOM     18  C   UNL     1      -5.505   2.099  24.772  0.00  0.00    +0.020 A 
ATOM     19  C   UNL     1      -4.750   3.229  24.503  0.00  0.00    +0.111 A 
ENDBRANCH   8  13
BRANCH   9   4
ATOM      3  O   UNL     1      -0.206  -0.994  22.023  0.00  0.00    -0.269 OA
ATOM      4  N   UNL     1      -0.564  -0.410  24.240  0.00  0.00    -0.304 N 
ATOM     15  C   UNL     1       0.183  -0.486  23.072  0.00  0.00    +0.262 C 
ATOM     25  H   UNL     1      -0.170   0.052  25.054  0.00  0.00    +0.149 HD
BRANCH  15  17
ATOM      6  N   UNL     1       1.869   1.366  23.454  0.00  0.00    -0.259 N 
ATOM      7  N   UNL     1       3.188   1.622  23.446  0.00  0.00    -0.176 NA
ATOM     17  C   UNL     1       1.557   0.076  23.140  0.00  0.00    +0.123 A 
ATOM     20  C   UNL     1       2.755  -0.555  22.911  0.00  0.00    +0.057 A 
ATOM     22  C   UNL     1       3.724   0.446  23.114  0.00  0.00    +0.061 A 
ATOM     24  C   UNL     1       5.186   0.314  22.999  0.00  0.00    +0.067 C 
BRANCH   6  21
ATOM     21  C   UNL     1       0.945   2.428  23.779  0.00  0.00    +0.141 C 
ATOM     23  C   UNL     1       0.486   2.356  25.228  0.00  0.00    +0.029 C 
ENDBRANCH   6  21
ENDBRANCH  15  17
ENDBRANCH   9   4
BRANCH  10   1
ATOM      1  O   UNL     1      -1.670  -3.208  23.478  0.00  0.00    -0.387 OA
ATOM     26  H   UNL     1      -2.149  -2.792  22.742  0.00  0.00    +0.210 HD
ENDBRANCH  10   1
BRANCH  12   2
ATOM      2  O   UNL     1      -4.277  -2.645  24.126  0.00  0.00    -0.389 OA
ATOM     27  H   UNL     1      -4.975  -2.018  24.385  0.00  0.00    +0.210 HD
ENDBRANCH  12   2
TORSDOF 6
ENDMDL
MODEL 2
REMARK VINA RESULT:      -2.3     16.012     18.262
REMARK  Name = 75536064
REMARK  8 active torsions:
REMARK  status: ('A' for Active; 'I' for Inactive)
REMARK    1  A    between atoms: O_1  and  C_10
REMARK    2  A    between atoms: O_2  and  C_12
REMARK    3  A    between atoms: N_4  and  C_9
REMARK    4  A    between atoms: N_6  and  C_21
REMARK    5  A    between atoms: C_8  and  C_13
REMARK    6  A    between atoms: C_15  and  C_17
REMARK    7  A    between atoms: C_21  and  C_23
REMARK    8  A    between atoms: C_22  and  C_24
REMARK                            x       y       z     vdW  Elec       q    Type
REMARK                         _______ _______ _______ _____ _____    ______ ____
ROOT
ATOM      8  C   UNL     1      12.602  -9.291  31.902  0.00  0.00    +0.046 C 
ATOM      9  C   UNL     1      13.296  -8.487  30.780  0.00  0.00    +0.112 C 
ATOM     10  C   UNL     1      14.228  -9.511  30.132  0.00  0.00    +0.164 C 
ATOM     11  C   UNL     1      12.701 -10.780  31.477  0.00  0.00    +0.044 C 
ATOM     12  C   UNL     1      13.386 -10.780  30.112  0.00  0.00    +0.145 C 
ENDROOT
BRANCH   8  13
ATOM      5  N   UNL     1       9.710  -7.015  32.817  0.00  0.00    -0.263 NA
ATOM     13  C   UNL     1      11.194  -8.816  32.187  0.00  0.00    -0.024 A 
ATOM     14  C   UNL     1      10.112  -9.684  32.094  0.00  0.00    +0.007 A 
ATOM     16  C   UNL     1      10.942  -7.503  32.549  0.00  0.00    +0.114 A 
ATOM     18  C   UNL     1       8.828  -9.219  32.361  0.00  0.00    +0.020 A 
ATOM     19  C   UNL     1       8.683  -7.887  32.716  0.00  0.00    +0.111 A 
ENDBRANCH   8  13
BRANCH   9   4
ATOM      3  O   UNL     1      14.431  -6.336  29.252  0.00  0.00    -0.269 OA
ATOM      4  N   UNL     1      14.020  -7.353  31.296  0.00  0.00    -0.304 N 
ATOM     15  C   UNL     1      14.534  -6.357  30.476  0.00  0.00    +0.262 C 
ATOM     25  H   UNL     1      14.131  -7.276  32.303  0.00  0.00    +0.149 HD
BRANCH  15  17
ATOM      6  N   UNL     1      16.523  -5.383  31.705  0.00  0.00    -0.259 N 
ATOM      7  N   UNL     1      16.975  -4.249  32.268  0.00  0.00    -0.176 NA
ATOM     17  C   UNL     1      15.277  -5.269  31.161  0.00  0.00    +0.123 A 
ATOM     20  C   UNL     1      14.888  -3.971  31.384  0.00  0.00    +0.057 A 
ATOM     22  C   UNL     1      15.972  -3.391  32.069  0.00  0.00    +0.061 A 
ATOM     24  C   UNL     1      16.088  -2.005  32.553  0.00  0.00    +0.067 C 
BRANCH   6  21
ATOM     21  C   UNL     1      17.357  -6.562  31.726  0.00  0.00    +0.141 C 
ATOM     23  C   UNL     1      16.911  -7.552  32.792  0.00  0.00    +0.029 C 
ENDBRANCH   6  21
ENDBRANCH  15  17
ENDBRANCH   9   4
BRANCH  10   1
ATOM      1  O   UNL     1      14.614  -9.133  28.824  0.00  0.00    -0.387 OA
ATOM     26  H   UNL     1      14.906  -8.206  28.862  0.00  0.00    +0.210 HD
ENDBRANCH  10   1
BRANCH  12   2
ATOM      2  O   UNL     1      12.387 -10.714  29.100  0.00  0.00    -0.389 OA
ATOM     27  H   UNL     1      11.735 -11.412  29.286  0.00  0.00    +0.210 HD
ENDBRANCH  12   2
TORSDOF 6
ENDMDL
MODEL 3
REMARK VINA RESULT:      -1.3      2.914      5.719
REMARK  Name = 75536064
REMARK  8 active torsions:
REMARK  status: ('A' for Active; 'I' for Inactive)
REMARK    1  A    between atoms: O_1  and  C_10
REMARK    2  A    between atoms: O_2  and  C_12
REMARK    3  A    between atoms: N_4  and  C_9
REMARK    4  A    between atoms: N_6  and  C_21
REMARK    5  A    between atoms: C_8  and  C_13
REMARK    6  A    between atoms: C_15  and  C_17
REMARK    7  A    between atoms: C_21  and  C_23
REMARK    8  A    between atoms: C_22  and  C_24
REMARK                            x       y       z     vdW  Elec       q    Type
REMARK                         _______ _______ _______ _____ _____    ______ ____
ROOT
ATOM      8  C   UNL     1      -3.325   3.273  26.108  0.00  0.00    +0.046 C 
ATOM      9  C   UNL     1      -4.305   2.503  25.192  0.00  0.00    +0.112 C 
ATOM     10  C   UNL     1      -5.668   2.765  25.830  0.00  0.00    +0.164 C 
ATOM     11  C   UNL     1      -4.174   4.365  26.809  0.00  0.00    +0.044 C 
ATOM     12  C   UNL     1      -5.584   4.231  26.237  0.00  0.00    +0.145 C 
ENDROOT
BRANCH   8  13
ATOM      5  N   UNL     1      -0.099   3.348  24.116  0.00  0.00    -0.263 NA
ATOM     13  C   UNL     1      -2.116   3.803  25.368  0.00  0.00    -0.024 A 
ATOM     14  C   UNL     1      -1.890   5.169  25.248  0.00  0.00    +0.007 A 
ATOM     16  C   UNL     1      -1.198   2.941  24.789  0.00  0.00    +0.114 A 
ATOM     18  C   UNL     1      -0.770   5.627  24.563  0.00  0.00    +0.020 A 
ATOM     19  C   UNL     1       0.087   4.683  24.020  0.00  0.00    +0.111 A 
ENDBRANCH   8  13
BRANCH   9   4
ATOM      3  O   UNL     1      -3.116   1.093  22.991  0.00  0.00    -0.269 OA
ATOM      4  N   UNL     1      -3.998   1.097  25.136  0.00  0.00    -0.304 N 
ATOM     15  C   UNL     1      -3.420   0.501  24.023  0.00  0.00    +0.262 C 
ATOM     25  H   UNL     1      -4.194   0.532  25.958  0.00  0.00    +0.149 HD
BRANCH  15  17
ATOM      6  N   UNL     1      -2.030  -1.560  24.509  0.00  0.00    -0.259 N 
ATOM      7  N   UNL     1      -2.081  -2.903  24.504  0.00  0.00    -0.176 NA
ATOM     17  C   UNL     1      -3.192  -0.964  24.113  0.00  0.00    +0.123 A 
ATOM     20  C   UNL     1      -4.061  -1.989  23.829  0.00  0.00    +0.057 A 
ATOM     22  C   UNL     1      -3.323  -3.159  24.088  0.00  0.00    +0.061 A 
ATOM     24  C   UNL     1      -3.775  -4.553  23.949  0.00  0.00    +0.067 C 
BRANCH   6  21
ATOM     21  C   UNL     1      -0.810  -0.901  24.915  0.00  0.00    +0.141 C 
ATOM     23  C   UNL     1       0.052  -0.521  23.720  0.00  0.00    +0.029 C 
ENDBRANCH   6  21
ENDBRANCH  15  17
ENDBRANCH   9   4
BRANCH  10   1
ATOM      1  O   UNL     1      -6.734   2.546  24.926  0.00  0.00    -0.387 OA
ATOM     26  H   UNL     1      -6.882   1.586  24.875  0.00  0.00    +0.210 HD
ENDBRANCH  10   1
BRANCH  12   2
ATOM      2  O   UNL     1      -5.700   5.083  25.102  0.00  0.00    -0.389 OA
ATOM     27  H   UNL     1      -4.906   5.644  25.076  0.00  0.00    +0.210 HD
ENDBRANCH  12   2
TORSDOF 6
ENDMDL
MODEL 4
REMARK VINA RESULT:      -0.7      2.533      4.009
REMARK  Name = 75536064
REMARK  8 active torsions:
REMARK  status: ('A' for Active; 'I' for Inactive)
REMARK    1  A    between atoms: O_1  and  C_10
REMARK    2  A    between atoms: O_2  and  C_12
REMARK    3  A    between atoms: N_4  and  C_9
REMARK    4  A    between atoms: N_6  and  C_21
REMARK    5  A    between atoms: C_8  and  C_13
REMARK    6  A    between atoms: C_15  and  C_17
REMARK    7  A    between atoms: C_21  and  C_23
REMARK    8  A    between atoms: C_22  and  C_24
REMARK                            x       y       z     vdW  Elec       q    Type
REMARK                         _______ _______ _______ _____ _____    ______ ____
ROOT
ATOM      8  C   UNL     1      -3.142   1.625  23.721  0.00  0.00    +0.046 C 
ATOM      9  C   UNL     1      -1.965   2.290  24.471  0.00  0.00    +0.112 C 
ATOM     10  C   UNL     1      -2.298   3.780  24.406  0.00  0.00    +0.164 C 
ATOM     11  C   UNL     1      -4.316   2.635  23.800  0.00  0.00    +0.044 C 
ATOM     12  C   UNL     1      -3.805   3.807  24.635  0.00  0.00    +0.145 C 
ENDROOT
BRANCH   8  13
ATOM      5  N   UNL     1      -3.589  -1.284  26.113  0.00  0.00    -0.263 NA
ATOM     13  C   UNL     1      -3.471   0.243  24.243  0.00  0.00    -0.024 A 
ATOM     14  C   UNL     1      -3.940  -0.752  23.393  0.00  0.00    +0.007 A 
ATOM     16  C   UNL     1      -3.314  -0.071  25.583  0.00  0.00    +0.114 A 
ATOM     18  C   UNL     1      -4.234  -2.013  23.901  0.00  0.00    +0.020 A 
ATOM     19  C   UNL     1      -4.043  -2.225  25.257  0.00  0.00    +0.111 A 
ENDBRANCH   8  13
BRANCH   9   4
ATOM      3  O   UNL     1      -0.210   0.109  25.112  0.00  0.00    -0.269 OA
ATOM      4  N   UNL     1      -0.697   1.996  23.854  0.00  0.00    -0.304 N 
ATOM     15  C   UNL     1       0.086   0.913  24.232  0.00  0.00    +0.262 C 
ATOM     25  H   UNL     1      -0.383   2.597  23.097  0.00  0.00    +0.149 HD
BRANCH  15  17
ATOM      6  N   UNL     1       1.580   0.005  22.399  0.00  0.00    -0.259 N 
ATOM      7  N   UNL     1       2.845   0.036  21.945  0.00  0.00    -0.176 NA
ATOM     17  C   UNL     1       1.379   0.762  23.517  0.00  0.00    +0.123 A 
ATOM     20  C   UNL     1       2.596   1.325  23.813  0.00  0.00    +0.057 A 
ATOM     22  C   UNL     1       3.460   0.844  22.812  0.00  0.00    +0.061 A 
ATOM     24  C   UNL     1       4.894   1.136  22.649  0.00  0.00    +0.067 C 
BRANCH   6  21
ATOM     21  C   UNL     1       0.597  -0.787  21.698  0.00  0.00    +0.141 C 
ATOM     23  C   UNL     1      -0.279  -1.580  22.656  0.00  0.00    +0.029 C 
ENDBRANCH   6  21
ENDBRANCH  15  17
ENDBRANCH   9   4
BRANCH  10   1
ATOM      1  O   UNL     1      -1.618   4.525  25.398  0.00  0.00    -0.387 OA
ATOM     26  H   UNL     1      -2.290   4.973  25.940  0.00  0.00    +0.210 HD
ENDBRANCH  10   1
BRANCH  12   2
ATOM      2  O   UNL     1      -4.118   3.566  26.003  0.00  0.00    -0.389 OA
ATOM     27  H   UNL     1      -4.608   4.340  26.331  0.00  0.00    +0.210 HD
ENDBRANCH  12   2
TORSDOF 6
ENDMDL
MODEL 5
REMARK VINA RESULT:      -0.6      2.900      4.304
REMARK  Name = 75536064
REMARK  8 active torsions:
REMARK  status: ('A' for Active; 'I' for Inactive)
REMARK    1  A    between atoms: O_1  and  C_10
REMARK    2  A    between atoms: O_2  and  C_12
REMARK    3  A    between atoms: N_4  and  C_9
REMARK    4  A    between atoms: N_6  and  C_21
REMARK    5  A    between atoms: C_8  and  C_13
REMARK    6  A    between atoms: C_15  and  C_17
REMARK    7  A    between atoms: C_21  and  C_23
REMARK    8  A    between atoms: C_22  and  C_24
REMARK                            x       y       z     vdW  Elec       q    Type
REMARK                         _______ _______ _______ _____ _____    ______ ____
ROOT
ATOM      8  C   UNL     1      -3.136   2.981  23.735  0.00  0.00    +0.046 C 
ATOM      9  C   UNL     1      -1.800   3.089  24.506  0.00  0.00    +0.112 C 
ATOM     10  C   UNL     1      -1.514   4.590  24.512  0.00  0.00    +0.164 C 
ATOM     11  C   UNL     1      -3.814   4.369  23.869  0.00  0.00    +0.044 C 
ATOM     12  C   UNL     1      -2.888   5.204  24.752  0.00  0.00    +0.145 C 
ENDROOT
BRANCH   8  13
ATOM      5  N   UNL     1      -5.961   1.045  25.366  0.00  0.00    -0.263 NA
ATOM     13  C   UNL     1      -3.993   1.821  24.197  0.00  0.00    -0.024 A 
ATOM     14  C   UNL     1      -3.640   0.509  23.904  0.00  0.00    +0.007 A 
ATOM     16  C   UNL     1      -5.152   2.035  24.924  0.00  0.00    +0.114 A 
ATOM     18  C   UNL     1      -4.448  -0.537  24.342  0.00  0.00    +0.020 A 
ATOM     19  C   UNL     1      -5.587  -0.217  25.063  0.00  0.00    +0.111 A 
ENDBRANCH   8  13
BRANCH   9   4
ATOM      3  O   UNL     1       0.625   2.156  25.729  0.00  0.00    -0.269 OA
ATOM      4  N   UNL     1      -0.746   2.344  23.867  0.00  0.00    -0.304 N 
ATOM     15  C   UNL     1       0.395   1.933  24.543  0.00  0.00    +0.262 C 
ATOM     25  H   UNL     1      -0.864   2.092  22.889  0.00  0.00    +0.149 HD
BRANCH  15  17
ATOM      6  N   UNL     1       1.195  -0.007  23.123  0.00  0.00    -0.259 N 
ATOM      7  N   UNL     1       2.267  -0.464  22.452  0.00  0.00    -0.176 NA
ATOM     17  C   UNL     1       1.400   1.195  23.735  0.00  0.00    +0.123 A 
ATOM     20  C   UNL     1       2.695   1.548  23.444  0.00  0.00    +0.057 A 
ATOM     22  C   UNL     1       3.179   0.490  22.652  0.00  0.00    +0.061 A 
ATOM     24  C   UNL     1       4.521   0.354  22.061  0.00  0.00    +0.067 C 
BRANCH   6  21
ATOM     21  C   UNL     1      -0.018  -0.792  23.135  0.00  0.00    +0.141 C 
ATOM     23  C   UNL     1      -0.391  -1.235  24.542  0.00  0.00    +0.029 C 
ENDBRANCH   6  21
ENDBRANCH  15  17
ENDBRANCH   9   4
BRANCH  10   1
ATOM      1  O   UNL     1      -0.605   4.959  25.531  0.00  0.00    -0.387 OA
ATOM     26  H   UNL     1      -0.946   4.605  26.370  0.00  0.00    +0.210 HD
ENDBRANCH  10   1
BRANCH  12   2
ATOM      2  O   UNL     1      -3.287   5.046  26.110  0.00  0.00    -0.389 OA
ATOM     27  H   UNL     1      -2.495   4.804  26.621  0.00  0.00    +0.210 HD
ENDBRANCH  12   2
TORSDOF 6
ENDMDL
MODEL 6
REMARK VINA RESULT:      -0.3     12.353     17.513
REMARK  Name = 75536064
REMARK  8 active torsions:
REMARK  status: ('A' for Active; 'I' for Inactive)
REMARK    1  A    between atoms: O_1  and  C_10
REMARK    2  A    between atoms: O_2  and  C_12
REMARK    3  A    between atoms: N_4  and  C_9
REMARK    4  A    between atoms: N_6  and  C_21
REMARK    5  A    between atoms: C_8  and  C_13
REMARK    6  A    between atoms: C_15  and  C_17
REMARK    7  A    between atoms: C_21  and  C_23
REMARK    8  A    between atoms: C_22  and  C_24
REMARK                            x       y       z     vdW  Elec       q    Type
REMARK                         _______ _______ _______ _____ _____    ______ ____
ROOT
ATOM      8  C   UNL     1      14.180   8.357  18.646  0.00  0.00    +0.046 C 
ATOM      9  C   UNL     1      12.970   7.487  18.235  0.00  0.00    +0.112 C 
ATOM     10  C   UNL     1      12.439   8.184  16.984  0.00  0.00    +0.164 C 
ATOM     11  C   UNL     1      14.626   9.094  17.356  0.00  0.00    +0.044 C 
ATOM     12  C   UNL     1      13.710   8.585  16.245  0.00  0.00    +0.145 C 
ENDROOT
BRANCH   8  13
ATOM      5  N   UNL     1      16.825   5.709  19.257  0.00  0.00    -0.263 NA
ATOM     13  C   UNL     1      15.277   7.564  19.323  0.00  0.00    -0.024 A 
ATOM     14  C   UNL     1      15.747   7.920  20.582  0.00  0.00    +0.007 A 
ATOM     16  C   UNL     1      15.844   6.459  18.708  0.00  0.00    +0.114 A 
ATOM     18  C   UNL     1      16.757   7.172  21.179  0.00  0.00    +0.020 A 
ATOM     19  C   UNL     1      17.257   6.085  20.480  0.00  0.00    +0.111 A 
ENDBRANCH   8  13
BRANCH   9   4
ATOM      3  O   UNL     1      13.173   6.044  20.711  0.00  0.00    -0.269 OA
ATOM      4  N   UNL     1      11.976   7.419  19.276  0.00  0.00    -0.304 N 
ATOM     15  C   UNL     1      12.164   6.693  20.444  0.00  0.00    +0.262 C 
ATOM     25  H   UNL     1      11.117   7.947  19.150  0.00  0.00    +0.149 HD
BRANCH  15  17
ATOM      6  N   UNL     1      10.639   7.775  22.153  0.00  0.00    -0.259 N 
ATOM      7  N   UNL     1       9.585   7.523  22.949  0.00  0.00    -0.176 NA
ATOM     17  C   UNL     1      11.033   6.702  21.407  0.00  0.00    +0.123 A 
ATOM     20  C   UNL     1      10.179   5.680  21.740  0.00  0.00    +0.057 A 
ATOM     22  C   UNL     1       9.310   6.243  22.693  0.00  0.00    +0.061 A 
ATOM     24  C   UNL     1       8.192   5.582  23.387  0.00  0.00    +0.067 C 
BRANCH   6  21
ATOM     21  C   UNL     1      11.229   9.093  22.157  0.00  0.00    +0.141 C 
ATOM     23  C   UNL     1      12.736   9.038  22.357  0.00  0.00    +0.029 C 
ENDBRANCH   6  21
ENDBRANCH  15  17
ENDBRANCH   9   4
BRANCH  10   1
ATOM      1  O   UNL     1      11.637   7.328  16.192  0.00  0.00    -0.387 OA
ATOM     26  H   UNL     1      11.157   6.736  16.796  0.00  0.00    +0.210 HD
ENDBRANCH  10   1
BRANCH  12   2
ATOM      2  O   UNL     1      14.321   7.455  15.631  0.00  0.00    -0.389 OA
ATOM     27  H   UNL     1      15.284   7.585  15.673  0.00  0.00    +0.210 HD
ENDBRANCH  12   2
TORSDOF 6
ENDMDL
MODEL 7
REMARK VINA RESULT:      -0.3      1.835      5.928
REMARK  Name = 75536064
REMARK  8 active torsions:
REMARK  status: ('A' for Active; 'I' for Inactive)
REMARK    1  A    between atoms: O_1  and  C_10
REMARK    2  A    between atoms: O_2  and  C_12
REMARK    3  A    between atoms: N_4  and  C_9
REMARK    4  A    between atoms: N_6  and  C_21
REMARK    5  A    between atoms: C_8  and  C_13
REMARK    6  A    between atoms: C_15  and  C_17
REMARK    7  A    between atoms: C_21  and  C_23
REMARK    8  A    between atoms: C_22  and  C_24
REMARK                            x       y       z     vdW  Elec       q    Type
REMARK                         _______ _______ _______ _____ _____    ______ ____
ROOT
ATOM      8  C   UNL     1      -1.122  -0.485  23.769  0.00  0.00    +0.046 C 
ATOM      9  C   UNL     1      -1.557  -0.322  25.244  0.00  0.00    +0.112 C 
ATOM     10  C   UNL     1      -2.444  -1.542  25.489  0.00  0.00    +0.164 C 
ATOM     11  C   UNL     1      -1.263  -1.997  23.452  0.00  0.00    +0.044 C 
ATOM     12  C   UNL     1      -1.710  -2.657  24.755  0.00  0.00    +0.145 C 
ENDROOT
BRANCH   8  13
ATOM      5  N   UNL     1       1.870   1.844  23.855  0.00  0.00    -0.263 NA
ATOM     13  C   UNL     1       0.252   0.085  23.491  0.00  0.00    -0.024 A 
ATOM     14  C   UNL     1       1.146  -0.573  22.655  0.00  0.00    +0.007 A 
ATOM     16  C   UNL     1       0.659   1.281  24.062  0.00  0.00    +0.114 A 
ATOM     18  C   UNL     1       2.402  -0.025  22.417  0.00  0.00    +0.020 A 
ATOM     19  C   UNL     1       2.712   1.175  23.037  0.00  0.00    +0.111 A 
ENDBRANCH   8  13
BRANCH   9   4
ATOM      3  O   UNL     1      -3.574   0.822  23.550  0.00  0.00    -0.269 OA
ATOM      4  N   UNL     1      -2.267   0.912  25.464  0.00  0.00    -0.304 N 
ATOM     15  C   UNL     1      -3.232   1.387  24.585  0.00  0.00    +0.262 C 
ATOM     25  H   UNL     1      -2.065   1.434  26.312  0.00  0.00    +0.149 HD
BRANCH  15  17
ATOM      6  N   UNL     1      -3.177   3.810  25.323  0.00  0.00    -0.259 N 
ATOM      7  N   UNL     1      -3.975   4.858  25.592  0.00  0.00    -0.176 NA
ATOM     17  C   UNL     1      -3.854   2.688  24.942  0.00  0.00    +0.123 A 
ATOM     20  C   UNL     1      -5.185   3.026  24.964  0.00  0.00    +0.057 A 
ATOM     22  C   UNL     1      -5.199   4.373  25.372  0.00  0.00    +0.061 A 
ATOM     24  C   UNL     1      -6.374   5.239  25.563  0.00  0.00    +0.067 C 
BRANCH   6  21
ATOM     21  C   UNL     1      -1.747   3.958  25.454  0.00  0.00    +0.141 C 
ATOM     23  C   UNL     1      -1.270   5.313  24.951  0.00  0.00    +0.029 C 
ENDBRANCH   6  21
ENDBRANCH  15  17
ENDBRANCH   9   4
BRANCH  10   1
ATOM      1  O   UNL     1      -2.578  -1.840  26.866  0.00  0.00    -0.387 OA
ATOM     26  H   UNL     1      -1.706  -1.714  27.279  0.00  0.00    +0.210 HD
ENDBRANCH  10   1
BRANCH  12   2
ATOM      2  O   UNL     1      -0.555  -3.070  25.478  0.00  0.00    -0.389 OA
ATOM     27  H   UNL     1      -0.629  -2.708  26.377  0.00  0.00    +0.210 HD
ENDBRANCH  12   2
TORSDOF 6
ENDMDL
MODEL 8
REMARK VINA RESULT:      -0.1      2.376      3.813
REMARK  Name = 75536064
REMARK  8 active torsions:
REMARK  status: ('A' for Active; 'I' for Inactive)
REMARK    1  A    between atoms: O_1  and  C_10
REMARK    2  A    between atoms: O_2  and  C_12
REMARK    3  A    between atoms: N_4  and  C_9
REMARK    4  A    between atoms: N_6  and  C_21
REMARK    5  A    between atoms: C_8  and  C_13
REMARK    6  A    between atoms: C_15  and  C_17
REMARK    7  A    between atoms: C_21  and  C_23
REMARK    8  A    between atoms: C_22  and  C_24
REMARK                            x       y       z     vdW  Elec       q    Type
REMARK                         _______ _______ _______ _____ _____    ______ ____
ROOT
ATOM      8  C   UNL     1      -4.008   0.686  24.064  0.00  0.00    +0.046 C 
ATOM      9  C   UNL     1      -3.102   1.538  24.981  0.00  0.00    +0.112 C 
ATOM     10  C   UNL     1      -3.833   2.878  25.057  0.00  0.00    +0.164 C 
ATOM     11  C   UNL     1      -5.420   1.322  24.157  0.00  0.00    +0.044 C 
ATOM     12  C   UNL     1      -5.297   2.468  25.159  0.00  0.00    +0.145 C 
ENDROOT
BRANCH   8  13
ATOM      5  N   UNL     1      -3.508  -2.531  26.011  0.00  0.00    -0.263 NA
ATOM     13  C   UNL     1      -3.966  -0.790  24.397  0.00  0.00    -0.024 A 
ATOM     14  C   UNL     1      -4.324  -1.748  23.455  0.00  0.00    +0.007 A 
ATOM     16  C   UNL     1      -3.568  -1.229  25.649  0.00  0.00    +0.114 A 
ATOM     18  C   UNL     1      -4.275  -3.098  23.790  0.00  0.00    +0.020 A 
ATOM     19  C   UNL     1      -3.864  -3.433  25.070  0.00  0.00    +0.111 A 
ENDBRANCH   8  13
BRANCH   9   4
ATOM      3  O   UNL     1      -1.005  -0.422  25.051  0.00  0.00    -0.269 OA
ATOM      4  N   UNL     1      -1.773   1.681  24.445  0.00  0.00    -0.304 N 
ATOM     15  C   UNL     1      -0.821   0.673  24.526  0.00  0.00    +0.262 C 
ATOM     25  H   UNL     1      -1.540   2.549  23.969  0.00  0.00    +0.149 HD
BRANCH  15  17
ATOM      6  N   UNL     1       1.048   2.234  23.831  0.00  0.00    -0.259 N 
ATOM      7  N   UNL     1       2.271   2.248  23.271  0.00  0.00    -0.176 NA
ATOM     17  C   UNL     1       0.510   0.986  23.947  0.00  0.00    +0.123 A 
ATOM     20  C   UNL     1       1.446   0.125  23.428  0.00  0.00    +0.057 A 
ATOM     22  C   UNL     1       2.507   0.957  23.027  0.00  0.00    +0.061 A 
ATOM     24  C   UNL     1       3.778   0.552  22.402  0.00  0.00    +0.067 C 
BRANCH   6  21
ATOM     21  C   UNL     1       0.444   3.481  24.239  0.00  0.00    +0.141 C 
ATOM     23  C   UNL     1       0.099   3.485  25.721  0.00  0.00    +0.029 C 
ENDBRANCH   6  21
ENDBRANCH  15  17
ENDBRANCH   9   4
BRANCH  10   1
ATOM      1  O   UNL     1      -3.438   3.642  26.181  0.00  0.00    -0.387 OA
ATOM     26  H   UNL     1      -3.708   3.153  26.977  0.00  0.00    +0.210 HD
ENDBRANCH  10   1
BRANCH  12   2
ATOM      2  O   UNL     1      -5.600   1.973  26.459  0.00  0.00    -0.389 OA
ATOM     27  H   UNL     1      -5.736   1.013  26.382  0.00  0.00    +0.210 HD
ENDBRANCH  12   2
TORSDOF 6
ENDMDL
MODEL 9
REMARK VINA RESULT:       0.7      2.554      5.993
REMARK  Name = 75536064
REMARK  8 active torsions:
REMARK  status: ('A' for Active; 'I' for Inactive)
REMARK    1  A    between atoms: O_1  and  C_10
REMARK    2  A    between atoms: O_2  and  C_12
REMARK    3  A    between atoms: N_4  and  C_9
REMARK    4  A    between atoms: N_6  and  C_21
REMARK    5  A    between atoms: C_8  and  C_13
REMARK    6  A    between atoms: C_15  and  C_17
REMARK    7  A    between atoms: C_21  and  C_23
REMARK    8  A    between atoms: C_22  and  C_24
REMARK                            x       y       z     vdW  Elec       q    Type
REMARK                         _______ _______ _______ _____ _____    ______ ____
ROOT
ATOM      8  C   UNL     1      -1.242  -0.778  24.959  0.00  0.00    +0.046 C 
ATOM      9  C   UNL     1      -1.155   0.539  24.154  0.00  0.00    +0.112 C 
ATOM     10  C   UNL     1       0.326   0.906  24.231  0.00  0.00    +0.164 C 
ATOM     11  C   UNL     1       0.186  -1.383  24.932  0.00  0.00    +0.044 C 
ATOM     12  C   UNL     1       1.024  -0.439  24.072  0.00  0.00    +0.145 C 
ENDROOT
BRANCH   8  13
ATOM      5  N   UNL     1      -2.970  -3.922  23.729  0.00  0.00    -0.263 NA
ATOM     13  C   UNL     1      -2.324  -1.709  24.455  0.00  0.00    -0.024 A 
ATOM     14  C   UNL     1      -3.622  -1.256  24.253  0.00  0.00    +0.007 A 
ATOM     16  C   UNL     1      -2.051  -3.039  24.181  0.00  0.00    +0.114 A 
ATOM     18  C   UNL     1      -4.596  -2.135  23.789  0.00  0.00    +0.020 A 
ATOM     19  C   UNL     1      -4.221  -3.446  23.545  0.00  0.00    +0.111 A 
ENDBRANCH   8  13
BRANCH   9   4
ATOM      3  O   UNL     1      -3.232   1.984  22.795  0.00  0.00    -0.269 OA
ATOM      4  N   UNL     1      -1.993   1.569  24.712  0.00  0.00    -0.304 N 
ATOM     15  C   UNL     1      -2.977   2.214  23.975  0.00  0.00    +0.262 C 
ATOM     25  H   UNL     1      -1.868   1.808  25.692  0.00  0.00    +0.149 HD
BRANCH  15  17
ATOM      6  N   UNL     1      -3.199   4.209  25.521  0.00  0.00    -0.259 N 
ATOM      7  N   UNL     1      -4.104   5.055  26.043  0.00  0.00    -0.176 NA
ATOM     17  C   UNL     1      -3.738   3.272  24.688  0.00  0.00    +0.123 A 
ATOM     20  C   UNL     1      -5.088   3.523  24.665  0.00  0.00    +0.057 A 
ATOM     22  C   UNL     1      -5.256   4.630  25.517  0.00  0.00    +0.061 A 
ATOM     24  C   UNL     1      -6.512   5.319  25.856  0.00  0.00    +0.067 C 
BRANCH   6  21
ATOM     21  C   UNL     1      -1.806   4.361  25.870  0.00  0.00    +0.141 C 
ATOM     23  C   UNL     1      -1.076   5.277  24.899  0.00  0.00    +0.029 C 
ENDBRANCH   6  21
ENDBRANCH  15  17
ENDBRANCH   9   4
BRANCH  10   1
ATOM      1  O   UNL     1       0.710   1.804  23.207  0.00  0.00    -0.387 OA
ATOM     26  H   UNL     1      -0.099   2.088  22.748  0.00  0.00    +0.210 HD
ENDBRANCH  10   1
BRANCH  12   2
ATOM      2  O   UNL     1       0.973  -0.885  22.720  0.00  0.00    -0.389 OA
ATOM     27  H   UNL     1       1.638  -0.380  22.221  0.00  0.00    +0.210 HD
ENDBRANCH  12   2
TORSDOF 6
ENDMDL
