MODEL 1
REMARK VINA RESULT:       0.1      0.000      0.000
REMARK  Name = 28961362
REMARK  9 active torsions:
REMARK  status: ('A' for Active; 'I' for Inactive)
REMARK    1  A    between atoms: S_1  and  N_9
REMARK    2  A    between atoms: S_1  and  C_23
REMARK    3  A    between atoms: O_3  and  C_12
REMARK    4  A    between atoms: O_4  and  C_19
REMARK    5  A    between atoms: N_7  and  C_10
REMARK    6  A    between atoms: N_8  and  C_20
REMARK    7  A    between atoms: N_9  and  C_16
REMARK    8  A    between atoms: C_11  and  C_16
REMARK    9  A    between atoms: C_13  and  C_19
REMARK                            x       y       z     vdW  Elec       q    Type
REMARK                         _______ _______ _______ _____ _____    ______ ____
ROOT
ATOM      2  O   UNL     1      -5.269   2.886  24.649  0.00  0.00    -0.366 OA
ATOM     10  C   UNL     1      -3.022   2.603  23.914  0.00  0.00    +0.118 C 
ATOM     11  C   UNL     1      -4.328   1.868  24.243  0.00  0.00    +0.154 C 
ATOM     12  C   UNL     1      -3.115   3.861  24.764  0.00  0.00    +0.165 C 
ATOM     13  C   UNL     1      -4.604   4.165  24.656  0.00  0.00    +0.174 C 
ENDROOT
BRANCH  10   7
ATOM      7  N   UNL     1      -1.798   1.838  24.071  0.00  0.00    -0.292 NA
ATOM      8  N   UNL     1       0.920   1.130  23.549  0.00  0.00    -0.327 N 
ATOM     14  C   UNL     1      -1.430   1.190  22.806  0.00  0.00    +0.104 C 
ATOM     15  C   UNL     1      -0.704   2.704  24.527  0.00  0.00    +0.104 C 
ATOM     17  C   UNL     1      -0.172   0.334  22.973  0.00  0.00    +0.120 C 
ATOM     18  C   UNL     1       0.579   1.899  24.749  0.00  0.00    +0.120 C 
BRANCH   8  20
ATOM     20  C   UNL     1       2.231   0.679  23.363  0.00  0.00    +0.030 A 
ATOM     21  C   UNL     1       3.221   1.570  22.947  0.00  0.00    +0.023 A 
ATOM     22  C   UNL     1       2.548  -0.660  23.593  0.00  0.00    +0.023 A 
ATOM     24  C   UNL     1       4.529   1.120  22.761  0.00  0.00    +0.002 A 
ATOM     25  C   UNL     1       3.856  -1.108  23.406  0.00  0.00    +0.002 A 
ATOM     26  C   UNL     1       4.847  -0.218  22.992  0.00  0.00    +0.000 A 
ENDBRANCH   8  20
ENDBRANCH  10   7
BRANCH  12   3
ATOM      3  O   UNL     1      -2.759   3.603  26.117  0.00  0.00    -0.388 OA
ATOM     32  H   UNL     1      -2.060   4.233  26.361  0.00  0.00    +0.210 HD
ENDBRANCH  12   3
BRANCH  11  16
ATOM     16  C   UNL     1      -4.269   0.835  25.363  0.00  0.00    +0.139 C 
BRANCH  16   9
ATOM      9  N   UNL     1      -4.927  -0.407  24.918  0.00  0.00    -0.187 NA
ATOM     33  H   UNL     1      -5.643  -0.785  25.552  0.00  0.00    +0.148 HD
BRANCH   9   1
ATOM      1  S   UNL     1      -4.108  -1.485  23.885  0.00  0.00    +0.058 S 
ATOM      5  O   UNL     1      -3.881  -0.842  22.605  0.00  0.00    -0.153 OA
ATOM      6  O   UNL     1      -4.755  -2.782  23.947  0.00  0.00    -0.153 OA
BRANCH   1  23
ATOM     23  C   UNL     1      -2.547  -1.647  24.698  0.00  0.00    +0.105 A 
ATOM     27  C   UNL     1      -1.639  -2.618  24.276  0.00  0.00    +0.028 A 
ATOM     28  C   UNL     1      -2.222  -0.804  25.760  0.00  0.00    +0.028 A 
ATOM     29  C   UNL     1      -0.406  -2.746  24.916  0.00  0.00    +0.002 A 
ATOM     30  C   UNL     1      -0.990  -0.931  26.401  0.00  0.00    +0.002 A 
ATOM     31  C   UNL     1      -0.082  -1.902  25.978  0.00  0.00    +0.000 A 
ENDBRANCH   1  23
ENDBRANCH   9   1
ENDBRANCH  16   9
ENDBRANCH  11  16
BRANCH  13  19
ATOM     19  C   UNL     1      -5.179   5.022  25.769  0.00  0.00    +0.190 C 
BRANCH  19   4
ATOM      4  O   UNL     1      -6.585   4.845  25.805  0.00  0.00    -0.392 OA
ATOM     34  H   UNL     1      -6.977   5.545  25.255  0.00  0.00    +0.210 HD
ENDBRANCH  19   4
ENDBRANCH  13  19
TORSDOF 9
ENDMDL
MODEL 2
REMARK VINA RESULT:       1.4      1.074      1.504
REMARK  Name = 28961362
REMARK  9 active torsions:
REMARK  status: ('A' for Active; 'I' for Inactive)
REMARK    1  A    between atoms: S_1  and  N_9
REMARK    2  A    between atoms: S_1  and  C_23
REMARK    3  A    between atoms: O_3  and  C_12
REMARK    4  A    between atoms: O_4  and  C_19
REMARK    5  A    between atoms: N_7  and  C_10
REMARK    6  A    between atoms: N_8  and  C_20
REMARK    7  A    between atoms: N_9  and  C_16
REMARK    8  A    between atoms: C_11  and  C_16
REMARK    9  A    between atoms: C_13  and  C_19
REMARK                            x       y       z     vdW  Elec       q    Type
REMARK                         _______ _______ _______ _____ _____    ______ ____
ROOT
ATOM      2  O   UNL     1      -4.431   3.222  23.322  0.00  0.00    -0.366 OA
ATOM     10  C   UNL     1      -2.093   3.038  23.734  0.00  0.00    +0.118 C 
ATOM     11  C   UNL     1      -3.259   2.490  22.900  0.00  0.00    +0.154 C 
ATOM     12  C   UNL     1      -2.782   3.553  24.988  0.00  0.00    +0.165 C 
ATOM     13  C   UNL     1      -4.067   4.115  24.392  0.00  0.00    +0.174 C 
ENDROOT
BRANCH  10   7
ATOM      7  N   UNL     1      -0.986   2.127  23.965  0.00  0.00    -0.292 NA
ATOM      8  N   UNL     1       1.632   1.053  23.574  0.00  0.00    -0.327 N 
ATOM     14  C   UNL     1      -0.662   1.388  22.738  0.00  0.00    +0.104 C 
ATOM     15  C   UNL     1       0.196   2.862  24.432  0.00  0.00    +0.104 C 
ATOM     17  C   UNL     1       0.466   0.384  22.984  0.00  0.00    +0.120 C 
ATOM     18  C   UNL     1       1.354   1.907  24.733  0.00  0.00    +0.120 C 
BRANCH   8  20
ATOM     20  C   UNL     1       2.879   0.430  23.455  0.00  0.00    +0.030 A 
ATOM     21  C   UNL     1       3.011  -0.926  23.754  0.00  0.00    +0.023 A 
ATOM     22  C   UNL     1       3.989   1.164  23.038  0.00  0.00    +0.023 A 
ATOM     24  C   UNL     1       4.255  -1.548  23.636  0.00  0.00    +0.002 A 
ATOM     25  C   UNL     1       5.232   0.542  22.920  0.00  0.00    +0.002 A 
ATOM     26  C   UNL     1       5.365  -0.814  23.218  0.00  0.00    +0.000 A 
ENDBRANCH   8  20
ENDBRANCH  10   7
BRANCH  12   3
ATOM      3  O   UNL     1      -3.078   2.496  25.892  0.00  0.00    -0.388 OA
ATOM     32  H   UNL     1      -4.041   2.482  26.023  0.00  0.00    +0.210 HD
ENDBRANCH  12   3
BRANCH  11  16
ATOM     16  C   UNL     1      -3.573   1.006  23.055  0.00  0.00    +0.139 C 
BRANCH  16   9
ATOM      9  N   UNL     1      -4.225   0.778  24.358  0.00  0.00    -0.187 NA
ATOM     33  H   UNL     1      -4.190   1.565  25.019  0.00  0.00    +0.148 HD
BRANCH   9   1
ATOM      1  S   UNL     1      -4.356  -0.800  24.982  0.00  0.00    +0.058 S 
ATOM      5  O   UNL     1      -5.001  -1.651  24.001  0.00  0.00    -0.153 OA
ATOM      6  O   UNL     1      -4.868  -0.731  26.338  0.00  0.00    -0.153 OA
BRANCH   1  23
ATOM     23  C   UNL     1      -2.660  -1.285  25.095  0.00  0.00    +0.105 A 
ATOM     27  C   UNL     1      -2.186  -2.347  24.325  0.00  0.00    +0.028 A 
ATOM     28  C   UNL     1      -1.796  -0.606  25.952  0.00  0.00    +0.028 A 
ATOM     29  C   UNL     1      -0.849  -2.731  24.412  0.00  0.00    +0.002 A 
ATOM     30  C   UNL     1      -0.457  -0.989  26.040  0.00  0.00    +0.002 A 
ATOM     31  C   UNL     1       0.017  -2.051  25.270  0.00  0.00    +0.000 A 
ENDBRANCH   1  23
ENDBRANCH   9   1
ENDBRANCH  16   9
ENDBRANCH  11  16
BRANCH  13  19
ATOM     19  C   UNL     1      -5.233   4.243  25.356  0.00  0.00    +0.190 C 
BRANCH  19   4
ATOM      4  O   UNL     1      -5.890   2.990  25.450  0.00  0.00    -0.392 OA
ATOM     34  H   UNL     1      -5.310   2.330  25.032  0.00  0.00    +0.210 HD
ENDBRANCH  19   4
ENDBRANCH  13  19
TORSDOF 9
ENDMDL
MODEL 3
REMARK VINA RESULT:       1.7      1.515      2.019
REMARK  Name = 28961362
REMARK  9 active torsions:
REMARK  status: ('A' for Active; 'I' for Inactive)
REMARK    1  A    between atoms: S_1  and  N_9
REMARK    2  A    between atoms: S_1  and  C_23
REMARK    3  A    between atoms: O_3  and  C_12
REMARK    4  A    between atoms: O_4  and  C_19
REMARK    5  A    between atoms: N_7  and  C_10
REMARK    6  A    between atoms: N_8  and  C_20
REMARK    7  A    between atoms: N_9  and  C_16
REMARK    8  A    between atoms: C_11  and  C_16
REMARK    9  A    between atoms: C_13  and  C_19
REMARK                            x       y       z     vdW  Elec       q    Type
REMARK                         _______ _______ _______ _____ _____    ______ ____
ROOT
ATOM      2  O   UNL     1      -4.854   2.608  23.722  0.00  0.00    -0.366 OA
ATOM     10  C   UNL     1      -2.474   2.610  23.731  0.00  0.00    +0.118 C 
ATOM     11  C   UNL     1      -3.718   1.824  23.295  0.00  0.00    +0.154 C 
ATOM     12  C   UNL     1      -2.978   3.421  24.915  0.00  0.00    +0.165 C 
ATOM     13  C   UNL     1      -4.385   3.765  24.441  0.00  0.00    +0.174 C 
ENDROOT
BRANCH  10   7
ATOM      7  N   UNL     1      -1.276   1.827  23.981  0.00  0.00    -0.292 NA
ATOM      8  N   UNL     1       1.410   0.959  23.545  0.00  0.00    -0.327 N 
ATOM     14  C   UNL     1      -0.942   1.008  22.809  0.00  0.00    +0.104 C 
ATOM     15  C   UNL     1      -0.149   2.704  24.317  0.00  0.00    +0.104 C 
ATOM     17  C   UNL     1       0.286   0.136  23.081  0.00  0.00    +0.120 C 
ATOM     18  C   UNL     1       1.107   1.889  24.637  0.00  0.00    +0.120 C 
BRANCH   8  20
ATOM     20  C   UNL     1       2.703   0.441  23.414  0.00  0.00    +0.030 A 
ATOM     21  C   UNL     1       3.744   1.265  22.983  0.00  0.00    +0.023 A 
ATOM     22  C   UNL     1       2.952  -0.899  23.713  0.00  0.00    +0.023 A 
ATOM     24  C   UNL     1       5.033   0.748  22.852  0.00  0.00    +0.002 A 
ATOM     25  C   UNL     1       4.241  -1.415  23.581  0.00  0.00    +0.002 A 
ATOM     26  C   UNL     1       5.282  -0.592  23.152  0.00  0.00    +0.000 A 
ENDBRANCH   8  20
ENDBRANCH  10   7
BRANCH  12   3
ATOM      3  O   UNL     1      -3.033   2.635  26.099  0.00  0.00    -0.388 OA
ATOM     32  H   UNL     1      -3.484   1.802  25.877  0.00  0.00    +0.210 HD
ENDBRANCH  12   3
BRANCH  11  16
ATOM     16  C   UNL     1      -3.886   0.427  23.882  0.00  0.00    +0.139 C 
BRANCH  16   9
ATOM      9  N   UNL     1      -3.691   0.484  25.342  0.00  0.00    -0.187 NA
ATOM     33  H   UNL     1      -3.780   1.415  25.770  0.00  0.00    +0.148 HD
BRANCH   9   1
ATOM      1  S   UNL     1      -2.715  -0.674  26.119  0.00  0.00    +0.058 S 
ATOM      5  O   UNL     1      -3.395  -1.155  27.306  0.00  0.00    -0.153 OA
ATOM      6  O   UNL     1      -1.359  -0.165  26.210  0.00  0.00    -0.153 OA
BRANCH   1  23
ATOM     23  C   UNL     1      -2.696  -1.984  24.933  0.00  0.00    +0.105 A 
ATOM     27  C   UNL     1      -1.484  -2.429  24.404  0.00  0.00    +0.028 A 
ATOM     28  C   UNL     1      -3.892  -2.574  24.526  0.00  0.00    +0.028 A 
ATOM     29  C   UNL     1      -1.468  -3.463  23.469  0.00  0.00    +0.002 A 
ATOM     30  C   UNL     1      -3.877  -3.609  23.591  0.00  0.00    +0.002 A 
ATOM     31  C   UNL     1      -2.665  -4.053  23.062  0.00  0.00    +0.000 A 
ENDBRANCH   1  23
ENDBRANCH   9   1
ENDBRANCH  16   9
ENDBRANCH  11  16
BRANCH  13  19
ATOM     19  C   UNL     1      -5.377   4.110  25.536  0.00  0.00    +0.190 C 
BRANCH  19   4
ATOM      4  O   UNL     1      -5.867   2.908  26.107  0.00  0.00    -0.392 OA
ATOM     34  H   UNL     1      -6.620   3.147  26.675  0.00  0.00    +0.210 HD
ENDBRANCH  19   4
ENDBRANCH  13  19
TORSDOF 9
ENDMDL
MODEL 4
REMARK VINA RESULT:       2.0      2.118      4.616
REMARK  Name = 28961362
REMARK  9 active torsions:
REMARK  status: ('A' for Active; 'I' for Inactive)
REMARK    1  A    between atoms: S_1  and  N_9
REMARK    2  A    between atoms: S_1  and  C_23
REMARK    3  A    between atoms: O_3  and  C_12
REMARK    4  A    between atoms: O_4  and  C_19
REMARK    5  A    between atoms: N_7  and  C_10
REMARK    6  A    between atoms: N_8  and  C_20
REMARK    7  A    between atoms: N_9  and  C_16
REMARK    8  A    between atoms: C_11  and  C_16
REMARK    9  A    between atoms: C_13  and  C_19
REMARK                            x       y       z     vdW  Elec       q    Type
REMARK                         _______ _______ _______ _____ _____    ______ ____
ROOT
ATOM      2  O   UNL     1      -3.988  -0.509  25.930  0.00  0.00    -0.366 OA
ATOM     10  C   UNL     1      -2.526  -1.446  24.301  0.00  0.00    +0.118 C 
ATOM     11  C   UNL     1      -2.707  -1.164  25.798  0.00  0.00    +0.154 C 
ATOM     12  C   UNL     1      -3.383  -0.375  23.645  0.00  0.00    +0.165 C 
ATOM     13  C   UNL     1      -4.554  -0.316  24.619  0.00  0.00    +0.174 C 
ENDROOT
BRANCH  10   7
ATOM      7  N   UNL     1      -1.157  -1.522  23.824  0.00  0.00    -0.292 NA
ATOM      8  N   UNL     1       1.589  -0.754  23.644  0.00  0.00    -0.327 N 
ATOM     14  C   UNL     1      -0.777  -0.276  23.145  0.00  0.00    +0.104 C 
ATOM     15  C   UNL     1      -0.237  -1.784  24.938  0.00  0.00    +0.104 C 
ATOM     17  C   UNL     1       0.646  -0.366  22.588  0.00  0.00    +0.120 C 
ATOM     18  C   UNL     1       1.204  -1.923  24.441  0.00  0.00    +0.120 C 
BRANCH   8  20
ATOM     20  C   UNL     1       2.943  -0.457  23.458  0.00  0.00    +0.030 A 
ATOM     21  C   UNL     1       3.920  -1.341  23.917  0.00  0.00    +0.023 A 
ATOM     22  C   UNL     1       3.317   0.724  22.816  0.00  0.00    +0.023 A 
ATOM     24  C   UNL     1       5.271  -1.044  23.732  0.00  0.00    +0.002 A 
ATOM     25  C   UNL     1       4.668   1.020  22.631  0.00  0.00    +0.002 A 
ATOM     26  C   UNL     1       5.645   0.136  23.088  0.00  0.00    +0.000 A 
ENDBRANCH   8  20
ENDBRANCH  10   7
BRANCH  12   3
ATOM      3  O   UNL     1      -2.711   0.878  23.603  0.00  0.00    -0.388 OA
ATOM     32  H   UNL     1      -3.057   1.421  24.332  0.00  0.00    +0.210 HD
ENDBRANCH  12   3
BRANCH  11  16
ATOM     16  C   UNL     1      -1.669  -0.260  26.455  0.00  0.00    +0.139 C 
BRANCH  16   9
ATOM      9  N   UNL     1      -1.620   1.028  25.740  0.00  0.00    -0.187 NA
ATOM     33  H   UNL     1      -2.086   1.049  24.823  0.00  0.00    +0.148 HD
BRANCH   9   1
ATOM      1  S   UNL     1      -0.340   2.114  26.024  0.00  0.00    +0.058 S 
ATOM      5  O   UNL     1       0.716   1.872  25.059  0.00  0.00    -0.153 OA
ATOM      6  O   UNL     1      -0.042   2.134  27.444  0.00  0.00    -0.153 OA
BRANCH   1  23
ATOM     23  C   UNL     1      -1.091   3.666  25.632  0.00  0.00    +0.105 A 
ATOM     27  C   UNL     1      -2.369   3.962  26.106  0.00  0.00    +0.028 A 
ATOM     28  C   UNL     1      -0.405   4.596  24.851  0.00  0.00    +0.028 A 
ATOM     29  C   UNL     1      -2.962   5.186  25.799  0.00  0.00    +0.002 A 
ATOM     30  C   UNL     1      -0.997   5.820  24.543  0.00  0.00    +0.002 A 
ATOM     31  C   UNL     1      -2.275   6.116  25.017  0.00  0.00    +0.000 A 
ENDBRANCH   1  23
ENDBRANCH   9   1
ENDBRANCH  16   9
ENDBRANCH  11  16
BRANCH  13  19
ATOM     19  C   UNL     1      -5.353   0.975  24.604  0.00  0.00    +0.190 C 
BRANCH  19   4
ATOM      4  O   UNL     1      -4.645   1.961  25.337  0.00  0.00    -0.392 OA
ATOM     34  H   UNL     1      -5.308   2.536  25.757  0.00  0.00    +0.210 HD
ENDBRANCH  19   4
ENDBRANCH  13  19
TORSDOF 9
ENDMDL
MODEL 5
REMARK VINA RESULT:       3.4      2.028      2.929
REMARK  Name = 28961362
REMARK  9 active torsions:
REMARK  status: ('A' for Active; 'I' for Inactive)
REMARK    1  A    between atoms: S_1  and  N_9
REMARK    2  A    between atoms: S_1  and  C_23
REMARK    3  A    between atoms: O_3  and  C_12
REMARK    4  A    between atoms: O_4  and  C_19
REMARK    5  A    between atoms: N_7  and  C_10
REMARK    6  A    between atoms: N_8  and  C_20
REMARK    7  A    between atoms: N_9  and  C_16
REMARK    8  A    between atoms: C_11  and  C_16
REMARK    9  A    between atoms: C_13  and  C_19
REMARK                            x       y       z     vdW  Elec       q    Type
REMARK                         _______ _______ _______ _____ _____    ______ ____
ROOT
ATOM      2  O   UNL     1      -3.617   2.264  25.219  0.00  0.00    -0.366 OA
ATOM     10  C   UNL     1      -2.111   1.932  23.406  0.00  0.00    +0.118 C 
ATOM     11  C   UNL     1      -2.545   1.401  24.778  0.00  0.00    +0.154 C 
ATOM     12  C   UNL     1      -2.502   3.401  23.467  0.00  0.00    +0.165 C 
ATOM     13  C   UNL     1      -3.808   3.311  24.248  0.00  0.00    +0.174 C 
ENDROOT
BRANCH  10   7
ATOM      7  N   UNL     1      -0.734   1.673  23.024  0.00  0.00    -0.292 NA
ATOM      8  N   UNL     1       1.900   0.608  23.327  0.00  0.00    -0.327 N 
ATOM     14  C   UNL     1       0.191   2.247  24.011  0.00  0.00    +0.104 C 
ATOM     15  C   UNL     1      -0.497   0.230  22.898  0.00  0.00    +0.104 C 
ATOM     17  C   UNL     1       1.646   2.030  23.590  0.00  0.00    +0.120 C 
ATOM     18  C   UNL     1       0.936  -0.055  22.443  0.00  0.00    +0.120 C 
BRANCH   8  20
ATOM     20  C   UNL     1       3.222   0.155  23.375  0.00  0.00    +0.030 A 
ATOM     21  C   UNL     1       3.494  -1.171  23.714  0.00  0.00    +0.023 A 
ATOM     22  C   UNL     1       4.270   1.029  23.085  0.00  0.00    +0.023 A 
ATOM     24  C   UNL     1       4.813  -1.622  23.762  0.00  0.00    +0.002 A 
ATOM     25  C   UNL     1       5.589   0.577  23.133  0.00  0.00    +0.002 A 
ATOM     26  C   UNL     1       5.860  -0.748  23.471  0.00  0.00    +0.000 A 
ENDBRANCH   8  20
ENDBRANCH  10   7
BRANCH  12   3
ATOM      3  O   UNL     1      -1.545   4.165  24.189  0.00  0.00    -0.388 OA
ATOM     32  H   UNL     1      -0.762   3.604  24.323  0.00  0.00    +0.210 HD
ENDBRANCH  12   3
BRANCH  11  16
ATOM     16  C   UNL     1      -1.488   1.397  25.876  0.00  0.00    +0.139 C 
BRANCH  16   9
ATOM      9  N   UNL     1      -0.565   0.268  25.662  0.00  0.00    -0.187 NA
ATOM     33  H   UNL     1       0.034   0.331  24.828  0.00  0.00    +0.148 HD
BRANCH   9   1
ATOM      1  S   UNL     1      -0.950  -1.276  26.268  0.00  0.00    +0.058 S 
ATOM      5  O   UNL     1      -1.449  -1.147  27.624  0.00  0.00    -0.153 OA
ATOM      6  O   UNL     1       0.143  -2.185  25.975  0.00  0.00    -0.153 OA
BRANCH   1  23
ATOM     23  C   UNL     1      -2.303  -1.743  25.231  0.00  0.00    +0.105 A 
ATOM     27  C   UNL     1      -3.494  -1.018  25.269  0.00  0.00    +0.028 A 
ATOM     28  C   UNL     1      -2.180  -2.836  24.374  0.00  0.00    +0.028 A 
ATOM     29  C   UNL     1      -4.561  -1.385  24.451  0.00  0.00    +0.002 A 
ATOM     30  C   UNL     1      -3.247  -3.204  23.555  0.00  0.00    +0.002 A 
ATOM     31  C   UNL     1      -4.438  -2.479  23.593  0.00  0.00    +0.000 A 
ENDBRANCH   1  23
ENDBRANCH   9   1
ENDBRANCH  16   9
ENDBRANCH  11  16
BRANCH  13  19
ATOM     19  C   UNL     1      -4.232   4.583  24.960  0.00  0.00    +0.190 C 
BRANCH  19   4
ATOM      4  O   UNL     1      -5.493   4.368  25.572  0.00  0.00    -0.392 OA
ATOM     34  H   UNL     1      -5.651   5.115  26.174  0.00  0.00    +0.210 HD
ENDBRANCH  19   4
ENDBRANCH  13  19
TORSDOF 9
ENDMDL
