MODEL 1
REMARK VINA RESULT:       2.5      0.000      0.000
REMARK  Name = 11882109
REMARK  11 active torsions:
REMARK  status: ('A' for Active; 'I' for Inactive)
REMARK    1  A    between atoms: N_6  and  C_12
REMARK    2  A    between atoms: N_7  and  C_18
REMARK    3  A    between atoms: N_8  and  C_30
REMARK    4  A    between atoms: N_9  and  C_25
REMARK    5  A    between atoms: C_13  and  C_16
REMARK    6  A    between atoms: C_17  and  C_19
REMARK    7  A    between atoms: C_18  and  C_21
REMARK    8  A    between atoms: C_18  and  C_24
REMARK    9  A    between atoms: C_21  and  C_22
REMARK   10  A    between atoms: C_25  and  C_32
REMARK   11  A    between atoms: C_25  and  C_33
REMARK                            x       y       z     vdW  Elec       q    Type
REMARK                         _______ _______ _______ _____ _____    ______ ____
ROOT
ATOM      2  O   UNL     1       0.446  -0.934  24.196  0.00  0.00    -0.268 OA
ATOM      5  N   UNL     1       0.098   1.342  24.066  0.00  0.00    -0.283 N 
ATOM     12  C   UNL     1      -1.395   2.809  25.182  0.00  0.00    +0.105 C 
ATOM     13  C   UNL     1      -1.136   1.339  24.847  0.00  0.00    +0.182 C 
ATOM     14  C   UNL     1      -0.739   3.557  24.019  0.00  0.00    +0.043 C 
ATOM     15  C   UNL     1       0.475   2.703  23.680  0.00  0.00    +0.111 C 
ATOM     17  C   UNL     1       0.835   0.178  23.837  0.00  0.00    +0.264 C 
ENDROOT
BRANCH  12   6
ATOM      3  O   UNL     1       0.339   1.175  26.810  0.00  0.00    -0.253 OA
ATOM      6  N   UNL     1      -0.788   3.172  26.440  0.00  0.00    -0.294 N 
ATOM      9  N   UNL     1       0.490   2.918  28.336  0.00  0.00    -0.297 N 
ATOM     20  C   UNL     1       0.041   2.316  27.162  0.00  0.00    +0.300 C 
ATOM     38  H   UNL     1      -1.026   4.069  26.852  0.00  0.00    +0.151 HD
ATOM     40  H   UNL     1       0.130   3.837  28.576  0.00  0.00    +0.150 HD
BRANCH   9  25
ATOM     25  C   UNL     1       1.364   2.251  29.272  0.00  0.00    +0.068 C 
ATOM     32  C   UNL     1       0.906   2.511  30.702  0.00  0.00    +0.027 C 
ATOM     33  C   UNL     1       2.807   2.694  29.063  0.00  0.00    +0.027 C 
ENDBRANCH   9  25
ENDBRANCH  12   6
BRANCH  17  19
ATOM      8  N   UNL     1       2.305  -0.052  21.822  0.00  0.00    -0.346 N 
ATOM     19  C   UNL     1       2.095   0.335  23.120  0.00  0.00    +0.104 A 
ATOM     23  C   UNL     1       3.267   0.882  23.593  0.00  0.00    +0.032 A 
ATOM     27  C   UNL     1       3.594   0.241  21.459  0.00  0.00    +0.086 A 
ATOM     28  C   UNL     1       4.216   0.822  22.542  0.00  0.00    +0.020 A 
ATOM     30  C   UNL     1       1.328  -0.672  20.955  0.00  0.00    +0.149 C 
ENDBRANCH  17  19
BRANCH  13  16
ATOM      1  O   UNL     1      -2.229   1.010  22.749  0.00  0.00    -0.274 OA
ATOM      7  N   UNL     1      -3.145   0.048  24.660  0.00  0.00    -0.302 N 
ATOM     16  C   UNL     1      -2.210   0.788  23.957  0.00  0.00    +0.236 C 
ATOM     39  H   UNL     1      -2.972  -0.151  25.640  0.00  0.00    +0.150 HD
BRANCH   7  18
ATOM     18  C   UNL     1      -4.292  -0.572  24.039  0.00  0.00    +0.163 C 
BRANCH  18  24
ATOM      4  O   UNL     1      -4.544  -2.896  23.372  0.00  0.00    -0.274 OA
ATOM     11  N   UNL     1      -3.404  -2.427  25.310  0.00  0.00    -0.328 N 
ATOM     24  C   UNL     1      -4.124  -2.077  24.187  0.00  0.00    +0.231 C 
ATOM     42  H   UNL     1      -3.044  -1.737  25.963  0.00  0.00    +0.145 HD
ATOM     43  H   UNL     1      -3.208  -3.399  25.522  0.00  0.00    +0.145 HD
ENDBRANCH  18  24
BRANCH  18  21
ATOM     21  C   UNL     1      -5.613  -0.117  24.671  0.00  0.00    +0.069 C 
BRANCH  21  22
ATOM     10  N   UNL     1      -5.741   2.974  26.659  0.00  0.00    -0.360 N 
ATOM     22  C   UNL     1      -5.542   1.267  25.253  0.00  0.00    -0.020 A 
ATOM     26  C   UNL     1      -5.020   2.428  24.618  0.00  0.00    +0.003 A 
ATOM     29  C   UNL     1      -5.977   1.633  26.506  0.00  0.00    +0.087 A 
ATOM     31  C   UNL     1      -5.157   3.485  25.521  0.00  0.00    +0.047 A 
ATOM     34  C   UNL     1      -4.444   2.683  23.358  0.00  0.00    +0.010 A 
ATOM     35  C   UNL     1      -4.744   4.788  25.226  0.00  0.00    +0.026 A 
ATOM     36  C   UNL     1      -4.026   3.983  23.049  0.00  0.00    +0.001 A 
ATOM     37  C   UNL     1      -4.174   5.017  23.970  0.00  0.00    +0.002 A 
ATOM     41  H   UNL     1      -5.962   3.510  27.486  0.00  0.00    +0.165 HD
ENDBRANCH  21  22
ENDBRANCH  18  21
ENDBRANCH   7  18
ENDBRANCH  13  16
TORSDOF 8
ENDMDL
MODEL 2
REMARK VINA RESULT:       2.7      2.347      5.571
REMARK  Name = 11882109
REMARK  11 active torsions:
REMARK  status: ('A' for Active; 'I' for Inactive)
REMARK    1  A    between atoms: N_6  and  C_12
REMARK    2  A    between atoms: N_7  and  C_18
REMARK    3  A    between atoms: N_8  and  C_30
REMARK    4  A    between atoms: N_9  and  C_25
REMARK    5  A    between atoms: C_13  and  C_16
REMARK    6  A    between atoms: C_17  and  C_19
REMARK    7  A    between atoms: C_18  and  C_21
REMARK    8  A    between atoms: C_18  and  C_24
REMARK    9  A    between atoms: C_21  and  C_22
REMARK   10  A    between atoms: C_25  and  C_32
REMARK   11  A    between atoms: C_25  and  C_33
REMARK                            x       y       z     vdW  Elec       q    Type
REMARK                         _______ _______ _______ _____ _____    ______ ____
ROOT
ATOM      2  O   UNL     1      -1.073  -0.571  26.679  0.00  0.00    -0.268 OA
ATOM      5  N   UNL     1      -0.872   0.452  24.621  0.00  0.00    -0.283 N 
ATOM     12  C   UNL     1       0.868   1.707  23.610  0.00  0.00    +0.105 C 
ATOM     13  C   UNL     1       0.343   1.191  24.951  0.00  0.00    +0.182 C 
ATOM     14  C   UNL     1      -0.399   1.843  22.763  0.00  0.00    +0.043 C 
ATOM     15  C   UNL     1      -1.272   0.686  23.233  0.00  0.00    +0.111 C 
ATOM     17  C   UNL     1      -1.472  -0.431  25.522  0.00  0.00    +0.264 C 
ENDROOT
BRANCH  12   6
ATOM      3  O   UNL     1       3.605   1.230  24.390  0.00  0.00    -0.253 OA
ATOM      6  N   UNL     1       1.791   0.770  23.015  0.00  0.00    -0.294 N 
ATOM      9  N   UNL     1       3.769  -0.362  22.709  0.00  0.00    -0.297 N 
ATOM     20  C   UNL     1       3.101   0.604  23.458  0.00  0.00    +0.300 C 
ATOM     38  H   UNL     1       1.493   0.253  22.194  0.00  0.00    +0.151 HD
ATOM     40  H   UNL     1       3.291  -0.772  21.912  0.00  0.00    +0.150 HD
BRANCH   9  25
ATOM     25  C   UNL     1       5.143  -0.731  22.957  0.00  0.00    +0.068 C 
ATOM     32  C   UNL     1       5.213  -1.863  23.974  0.00  0.00    +0.027 C 
ATOM     33  C   UNL     1       5.945   0.479  23.421  0.00  0.00    +0.027 C 
ENDBRANCH   9  25
ENDBRANCH  12   6
BRANCH  17  19
ATOM      8  N   UNL     1      -2.563  -2.378  24.385  0.00  0.00    -0.346 N 
ATOM     19  C   UNL     1      -2.629  -1.173  25.034  0.00  0.00    +0.104 A 
ATOM     23  C   UNL     1      -3.956  -0.817  25.128  0.00  0.00    +0.032 A 
ATOM     27  C   UNL     1      -3.829  -2.797  24.065  0.00  0.00    +0.086 A 
ATOM     28  C   UNL     1      -4.715  -1.844  24.515  0.00  0.00    +0.020 A 
ATOM     30  C   UNL     1      -1.354  -3.110  24.080  0.00  0.00    +0.149 C 
ENDBRANCH  17  19
BRANCH  13  16
ATOM      1  O   UNL     1       0.134   2.297  27.057  0.00  0.00    -0.274 OA
ATOM      7  N   UNL     1      -0.697   3.340  25.149  0.00  0.00    -0.302 N 
ATOM     16  C   UNL     1      -0.068   2.322  25.845  0.00  0.00    +0.236 C 
ATOM     39  H   UNL     1      -0.719   3.296  24.136  0.00  0.00    +0.150 HD
BRANCH   7  18
ATOM     18  C   UNL     1      -1.209   4.533  25.783  0.00  0.00    +0.163 C 
BRANCH  18  24
ATOM      4  O   UNL     1      -1.711   6.722  24.856  0.00  0.00    -0.274 OA
ATOM     11  N   UNL     1      -0.183   5.395  23.771  0.00  0.00    -0.328 N 
ATOM     24  C   UNL     1      -1.094   5.663  24.771  0.00  0.00    +0.231 C 
ATOM     42  H   UNL     1       0.337   4.524  23.726  0.00  0.00    +0.145 HD
ATOM     43  H   UNL     1       0.000   6.071  23.037  0.00  0.00    +0.145 HD
ENDBRANCH  18  24
BRANCH  18  21
ATOM     21  C   UNL     1      -2.664   4.369  26.240  0.00  0.00    +0.069 C 
BRANCH  21  22
ATOM     10  N   UNL     1      -4.294   2.836  23.323  0.00  0.00    -0.360 N 
ATOM     22  C   UNL     1      -3.518   3.641  25.241  0.00  0.00    -0.020 A 
ATOM     26  C   UNL     1      -4.688   2.882  25.519  0.00  0.00    +0.003 A 
ATOM     29  C   UNL     1      -3.300   3.594  23.883  0.00  0.00    +0.087 A 
ATOM     31  C   UNL     1      -5.155   2.388  24.299  0.00  0.00    +0.047 A 
ATOM     34  C   UNL     1      -5.397   2.567  26.695  0.00  0.00    +0.010 A 
ATOM     35  C   UNL     1      -6.301   1.591  24.196  0.00  0.00    +0.026 A 
ATOM     36  C   UNL     1      -6.545   1.770  26.607  0.00  0.00    +0.001 A 
ATOM     37  C   UNL     1      -6.988   1.291  25.376  0.00  0.00    +0.002 A 
ATOM     41  H   UNL     1      -4.382   2.635  22.337  0.00  0.00    +0.165 HD
ENDBRANCH  21  22
ENDBRANCH  18  21
ENDBRANCH   7  18
ENDBRANCH  13  16
TORSDOF 8
ENDMDL
MODEL 3
REMARK VINA RESULT:       4.4      2.412      5.525
REMARK  Name = 11882109
REMARK  11 active torsions:
REMARK  status: ('A' for Active; 'I' for Inactive)
REMARK    1  A    between atoms: N_6  and  C_12
REMARK    2  A    between atoms: N_7  and  C_18
REMARK    3  A    between atoms: N_8  and  C_30
REMARK    4  A    between atoms: N_9  and  C_25
REMARK    5  A    between atoms: C_13  and  C_16
REMARK    6  A    between atoms: C_17  and  C_19
REMARK    7  A    between atoms: C_18  and  C_21
REMARK    8  A    between atoms: C_18  and  C_24
REMARK    9  A    between atoms: C_21  and  C_22
REMARK   10  A    between atoms: C_25  and  C_32
REMARK   11  A    between atoms: C_25  and  C_33
REMARK                            x       y       z     vdW  Elec       q    Type
REMARK                         _______ _______ _______ _____ _____    ______ ____
ROOT
ATOM      2  O   UNL     1      -1.494   0.574  26.420  0.00  0.00    -0.268 OA
ATOM      5  N   UNL     1      -0.390   0.405  24.401  0.00  0.00    -0.283 N 
ATOM     12  C   UNL     1       1.354   1.670  23.409  0.00  0.00    +0.105 C 
ATOM     13  C   UNL     1       0.285   1.695  24.503  0.00  0.00    +0.182 C 
ATOM     14  C   UNL     1       0.759   0.733  22.356  0.00  0.00    +0.043 C 
ATOM     15  C   UNL     1       0.002  -0.301  23.180  0.00  0.00    +0.111 C 
ATOM     17  C   UNL     1      -1.211  -0.087  25.419  0.00  0.00    +0.264 C 
ENDROOT
BRANCH  12   6
ATOM      3  O   UNL     1       3.484   0.474  21.874  0.00  0.00    -0.253 OA
ATOM      6  N   UNL     1       2.605   1.156  23.913  0.00  0.00    -0.294 N 
ATOM      9  N   UNL     1       4.686   0.179  23.838  0.00  0.00    -0.297 N 
ATOM     20  C   UNL     1       3.582   0.592  23.095  0.00  0.00    +0.300 C 
ATOM     38  H   UNL     1       2.755   1.144  24.917  0.00  0.00    +0.151 HD
ATOM     40  H   UNL     1       4.642   0.252  24.850  0.00  0.00    +0.150 HD
BRANCH   9  25
ATOM     25  C   UNL     1       5.844  -0.441  23.238  0.00  0.00    +0.068 C 
ATOM     32  C   UNL     1       5.908  -1.917  23.611  0.00  0.00    +0.027 C 
ATOM     33  C   UNL     1       7.115   0.290  23.654  0.00  0.00    +0.027 C 
ENDBRANCH   9  25
ENDBRANCH  12   6
BRANCH  17  19
ATOM      8  N   UNL     1      -2.765  -1.971  25.973  0.00  0.00    -0.346 N 
ATOM     19  C   UNL     1      -1.751  -1.428  25.229  0.00  0.00    +0.104 A 
ATOM     23  C   UNL     1      -1.358  -2.367  24.302  0.00  0.00    +0.032 A 
ATOM     27  C   UNL     1      -3.027  -3.243  25.534  0.00  0.00    +0.086 A 
ATOM     28  C   UNL     1      -2.165  -3.516  24.495  0.00  0.00    +0.020 A 
ATOM     30  C   UNL     1      -3.465  -1.317  27.057  0.00  0.00    +0.149 C 
ENDBRANCH  17  19
BRANCH  13  16
ATOM      1  O   UNL     1      -1.084   3.043  23.085  0.00  0.00    -0.274 OA
ATOM      7  N   UNL     1      -1.228   3.326  25.391  0.00  0.00    -0.302 N 
ATOM     16  C   UNL     1      -0.748   2.747  24.229  0.00  0.00    +0.236 C 
ATOM     39  H   UNL     1      -0.950   2.931  26.284  0.00  0.00    +0.150 HD
BRANCH   7  18
ATOM     18  C   UNL     1      -2.215   4.381  25.400  0.00  0.00    +0.163 C 
BRANCH  18  24
ATOM      4  O   UNL     1      -1.991   6.793  25.201  0.00  0.00    -0.274 OA
ATOM     11  N   UNL     1      -0.182   5.476  24.683  0.00  0.00    -0.328 N 
ATOM     24  C   UNL     1      -1.487   5.679  25.079  0.00  0.00    +0.231 C 
ATOM     42  H   UNL     1       0.228   4.550  24.609  0.00  0.00    +0.145 HD
ATOM     43  H   UNL     1       0.420   6.259  24.452  0.00  0.00    +0.145 HD
ENDBRANCH  18  24
BRANCH  18  21
ATOM     21  C   UNL     1      -3.339   4.133  24.386  0.00  0.00    +0.069 C 
BRANCH  21  22
ATOM     10  N   UNL     1      -5.885   1.906  25.825  0.00  0.00    -0.360 N 
ATOM     22  C   UNL     1      -4.269   3.027  24.795  0.00  0.00    -0.020 A 
ATOM     26  C   UNL     1      -4.284   1.699  24.285  0.00  0.00    +0.003 A 
ATOM     29  C   UNL     1      -5.265   3.124  25.740  0.00  0.00    +0.087 A 
ATOM     31  C   UNL     1      -5.306   1.017  24.948  0.00  0.00    +0.047 A 
ATOM     34  C   UNL     1      -3.522   1.009  23.321  0.00  0.00    +0.010 A 
ATOM     35  C   UNL     1      -5.607  -0.326  24.693  0.00  0.00    +0.026 A 
ATOM     36  C   UNL     1      -3.812  -0.335  23.055  0.00  0.00    +0.001 A 
ATOM     37  C   UNL     1      -4.839  -0.989  23.732  0.00  0.00    +0.002 A 
ATOM     41  H   UNL     1      -6.655   1.691  26.442  0.00  0.00    +0.165 HD
ENDBRANCH  21  22
ENDBRANCH  18  21
ENDBRANCH   7  18
ENDBRANCH  13  16
TORSDOF 8
ENDMDL
MODEL 4
REMARK VINA RESULT:       4.8      2.368      5.527
REMARK  Name = 11882109
REMARK  11 active torsions:
REMARK  status: ('A' for Active; 'I' for Inactive)
REMARK    1  A    between atoms: N_6  and  C_12
REMARK    2  A    between atoms: N_7  and  C_18
REMARK    3  A    between atoms: N_8  and  C_30
REMARK    4  A    between atoms: N_9  and  C_25
REMARK    5  A    between atoms: C_13  and  C_16
REMARK    6  A    between atoms: C_17  and  C_19
REMARK    7  A    between atoms: C_18  and  C_21
REMARK    8  A    between atoms: C_18  and  C_24
REMARK    9  A    between atoms: C_21  and  C_22
REMARK   10  A    between atoms: C_25  and  C_32
REMARK   11  A    between atoms: C_25  and  C_33
REMARK                            x       y       z     vdW  Elec       q    Type
REMARK                         _______ _______ _______ _____ _____    ______ ____
ROOT
ATOM      2  O   UNL     1      -1.739  -0.565  26.581  0.00  0.00    -0.268 OA
ATOM      5  N   UNL     1      -1.030   0.123  24.496  0.00  0.00    -0.283 N 
ATOM     12  C   UNL     1       0.878   1.324  23.761  0.00  0.00    +0.105 C 
ATOM     13  C   UNL     1       0.033   0.994  24.991  0.00  0.00    +0.182 C 
ATOM     14  C   UNL     1      -0.123   1.227  22.607  0.00  0.00    +0.043 C 
ATOM     15  C   UNL     1      -1.054   0.099  23.033  0.00  0.00    +0.111 C 
ATOM     17  C   UNL     1      -1.821  -0.645  25.354  0.00  0.00    +0.264 C 
ENDROOT
BRANCH  12   6
ATOM      3  O   UNL     1       3.654   1.914  23.234  0.00  0.00    -0.253 OA
ATOM      6  N   UNL     1       1.953   0.374  23.595  0.00  0.00    -0.294 N 
ATOM      9  N   UNL     1       4.100  -0.363  23.228  0.00  0.00    -0.297 N 
ATOM     20  C   UNL     1       3.270   0.750  23.342  0.00  0.00    +0.300 C 
ATOM     38  H   UNL     1       1.729  -0.615  23.598  0.00  0.00    +0.151 HD
ATOM     40  H   UNL     1       3.678  -1.286  23.259  0.00  0.00    +0.150 HD
BRANCH   9  25
ATOM     25  C   UNL     1       5.516  -0.259  22.965  0.00  0.00    +0.068 C 
ATOM     32  C   UNL     1       6.172  -1.632  23.044  0.00  0.00    +0.027 C 
ATOM     33  C   UNL     1       6.168   0.720  23.934  0.00  0.00    +0.027 C 
ENDBRANCH   9  25
ENDBRANCH  12   6
BRANCH  17  19
ATOM      8  N   UNL     1      -2.494  -2.797  24.263  0.00  0.00    -0.346 N 
ATOM     19  C   UNL     1      -2.785  -1.540  24.724  0.00  0.00    +0.104 A 
ATOM     23  C   UNL     1      -4.119  -1.300  24.482  0.00  0.00    +0.032 A 
ATOM     27  C   UNL     1      -3.623  -3.364  23.731  0.00  0.00    +0.086 A 
ATOM     28  C   UNL     1      -4.650  -2.454  23.854  0.00  0.00    +0.020 A 
ATOM     30  C   UNL     1      -1.201  -3.442  24.323  0.00  0.00    +0.149 C 
ENDBRANCH  17  19
BRANCH  13  16
ATOM      1  O   UNL     1      -0.661   2.463  26.742  0.00  0.00    -0.274 OA
ATOM      7  N   UNL     1      -1.206   2.995  24.543  0.00  0.00    -0.302 N 
ATOM     16  C   UNL     1      -0.634   2.222  25.538  0.00  0.00    +0.236 C 
ATOM     39  H   UNL     1      -1.034   2.748  23.574  0.00  0.00    +0.150 HD
BRANCH   7  18
ATOM     18  C   UNL     1      -1.927   4.218  24.809  0.00  0.00    +0.163 C 
BRANCH  18  24
ATOM      4  O   UNL     1      -1.065   6.478  25.046  0.00  0.00    -0.274 OA
ATOM     11  N   UNL     1       0.028   5.028  23.640  0.00  0.00    -0.328 N 
ATOM     24  C   UNL     1      -0.977   5.371  24.520  0.00  0.00    +0.231 C 
ATOM     42  H   UNL     1       0.102   4.102  23.231  0.00  0.00    +0.145 HD
ATOM     43  H   UNL     1       0.738   5.701  23.372  0.00  0.00    +0.145 HD
ENDBRANCH  18  24
BRANCH  18  21
ATOM     21  C   UNL     1      -3.195   4.343  23.954  0.00  0.00    +0.069 C 
BRANCH  21  22
ATOM     10  N   UNL     1      -6.371   4.585  25.791  0.00  0.00    -0.360 N 
ATOM     22  C   UNL     1      -4.459   4.159  24.745  0.00  0.00    -0.020 A 
ATOM     26  C   UNL     1      -4.945   2.941  25.297  0.00  0.00    +0.003 A 
ATOM     29  C   UNL     1      -5.357   5.152  25.064  0.00  0.00    +0.087 A 
ATOM     31  C   UNL     1      -6.145   3.236  25.947  0.00  0.00    +0.047 A 
ATOM     34  C   UNL     1      -4.477   1.612  25.306  0.00  0.00    +0.010 A 
ATOM     35  C   UNL     1      -6.904   2.264  26.609  0.00  0.00    +0.026 A 
ATOM     36  C   UNL     1      -5.226   0.629  25.964  0.00  0.00    +0.001 A 
ATOM     37  C   UNL     1      -6.420   0.953  26.604  0.00  0.00    +0.002 A 
ATOM     41  H   UNL     1      -7.169   5.084  26.158  0.00  0.00    +0.165 HD
ENDBRANCH  21  22
ENDBRANCH  18  21
ENDBRANCH   7  18
ENDBRANCH  13  16
TORSDOF 8
ENDMDL
MODEL 5
REMARK VINA RESULT:       5.3      2.030      5.661
REMARK  Name = 11882109
REMARK  11 active torsions:
REMARK  status: ('A' for Active; 'I' for Inactive)
REMARK    1  A    between atoms: N_6  and  C_12
REMARK    2  A    between atoms: N_7  and  C_18
REMARK    3  A    between atoms: N_8  and  C_30
REMARK    4  A    between atoms: N_9  and  C_25
REMARK    5  A    between atoms: C_13  and  C_16
REMARK    6  A    between atoms: C_17  and  C_19
REMARK    7  A    between atoms: C_18  and  C_21
REMARK    8  A    between atoms: C_18  and  C_24
REMARK    9  A    between atoms: C_21  and  C_22
REMARK   10  A    between atoms: C_25  and  C_32
REMARK   11  A    between atoms: C_25  and  C_33
REMARK                            x       y       z     vdW  Elec       q    Type
REMARK                         _______ _______ _______ _____ _____    ______ ____
ROOT
ATOM      2  O   UNL     1       0.779   3.816  26.142  0.00  0.00    -0.268 OA
ATOM      5  N   UNL     1       0.082   1.618  26.060  0.00  0.00    -0.283 N 
ATOM     12  C   UNL     1      -0.359   0.135  24.263  0.00  0.00    +0.105 C 
ATOM     13  C   UNL     1      -0.188   1.611  24.625  0.00  0.00    +0.182 C 
ATOM     14  C   UNL     1      -0.874  -0.490  25.561  0.00  0.00    +0.043 C 
ATOM     15  C   UNL     1      -0.161   0.301  26.650  0.00  0.00    +0.111 C 
ATOM     17  C   UNL     1       0.604   2.739  26.712  0.00  0.00    +0.264 C 
ENDROOT
BRANCH  12   6
ATOM      3  O   UNL     1       2.038   1.529  23.463  0.00  0.00    -0.253 OA
ATOM      6  N   UNL     1       0.898  -0.454  23.867  0.00  0.00    -0.294 N 
ATOM      9  N   UNL     1       3.086  -0.520  23.162  0.00  0.00    -0.297 N 
ATOM     20  C   UNL     1       2.009   0.299  23.495  0.00  0.00    +0.300 C 
ATOM     38  H   UNL     1       0.957  -1.465  23.794  0.00  0.00    +0.151 HD
ATOM     40  H   UNL     1       2.943  -1.525  23.148  0.00  0.00    +0.150 HD
BRANCH   9  25
ATOM     25  C   UNL     1       4.364   0.002  22.740  0.00  0.00    +0.068 C 
ATOM     32  C   UNL     1       5.401  -0.177  23.842  0.00  0.00    +0.027 C 
ATOM     33  C   UNL     1       4.235   1.466  22.336  0.00  0.00    +0.027 C 
ENDBRANCH   9  25
ENDBRANCH  12   6
BRANCH  17  19
ATOM      8  N   UNL     1       2.178   2.522  28.648  0.00  0.00    -0.346 N 
ATOM     19  C   UNL     1       0.912   2.582  28.129  0.00  0.00    +0.104 A 
ATOM     23  C   UNL     1       0.022   2.468  29.174  0.00  0.00    +0.032 A 
ATOM     27  C   UNL     1       2.110   2.373  30.009  0.00  0.00    +0.086 A 
ATOM     28  C   UNL     1       0.780   2.336  30.364  0.00  0.00    +0.020 A 
ATOM     30  C   UNL     1       3.408   2.605  27.891  0.00  0.00    +0.149 C 
ENDBRANCH  17  19
BRANCH  13  16
ATOM      1  O   UNL     1      -1.770   2.844  23.329  0.00  0.00    -0.274 OA
ATOM      7  N   UNL     1      -2.202   2.482  25.587  0.00  0.00    -0.302 N 
ATOM     16  C   UNL     1      -1.465   2.372  24.421  0.00  0.00    +0.236 C 
ATOM     39  H   UNL     1      -1.898   1.966  26.407  0.00  0.00    +0.150 HD
BRANCH   7  18
ATOM     18  C   UNL     1      -3.461   3.187  25.663  0.00  0.00    +0.163 C 
BRANCH  18  24
ATOM      4  O   UNL     1      -4.199   4.500  23.756  0.00  0.00    -0.274 OA
ATOM     11  N   UNL     1      -2.354   5.206  24.928  0.00  0.00    -0.328 N 
ATOM     24  C   UNL     1      -3.392   4.336  24.668  0.00  0.00    +0.231 C 
ATOM     42  H   UNL     1      -1.708   5.070  25.699  0.00  0.00    +0.145 HD
ATOM     43  H   UNL     1      -2.202   6.024  24.347  0.00  0.00    +0.145 HD
ENDBRANCH  18  24
BRANCH  18  21
ATOM     21  C   UNL     1      -4.655   2.278  25.349  0.00  0.00    +0.069 C 
BRANCH  21  22
ATOM     10  N   UNL     1      -3.818  -0.228  22.792  0.00  0.00    -0.360 N 
ATOM     22  C   UNL     1      -4.282   1.076  24.528  0.00  0.00    -0.020 A 
ATOM     26  C   UNL     1      -3.978  -0.225  25.017  0.00  0.00    +0.003 A 
ATOM     29  C   UNL     1      -4.174   1.043  23.156  0.00  0.00    +0.087 A 
ATOM     31  C   UNL     1      -3.691  -1.023  23.908  0.00  0.00    +0.047 A 
ATOM     34  C   UNL     1      -3.922  -0.802  26.302  0.00  0.00    +0.010 A 
ATOM     35  C   UNL     1      -3.347  -2.375  24.020  0.00  0.00    +0.026 A 
ATOM     36  C   UNL     1      -3.579  -2.153  26.428  0.00  0.00    +0.001 A 
ATOM     37  C   UNL     1      -3.296  -2.925  25.304  0.00  0.00    +0.002 A 
ATOM     41  H   UNL     1      -3.669  -0.537  21.841  0.00  0.00    +0.165 HD
ENDBRANCH  21  22
ENDBRANCH  18  21
ENDBRANCH   7  18
ENDBRANCH  13  16
TORSDOF 8
ENDMDL
