MODEL 1
REMARK VINA RESULT:      17.4      0.000      0.000
REMARK  Name = 45361703
REMARK  10 active torsions:
REMARK  status: ('A' for Active; 'I' for Inactive)
REMARK    1  A    between atoms: N_6  and  C_18
REMARK    2  A    between atoms: N_7  and  C_19
REMARK    3  A    between atoms: N_10  and  C_38
REMARK    4  A    between atoms: N_10  and  C_39
REMARK    5  A    between atoms: N_10  and  C_40
REMARK    6  A    between atoms: C_11  and  C_14
REMARK    7  A    between atoms: C_14  and  C_18
REMARK    8  A    between atoms: C_18  and  C_31
REMARK    9  A    between atoms: C_20  and  C_28
REMARK   10  A    between atoms: C_32  and  C_33
REMARK                            x       y       z     vdW  Elec       q    Type
REMARK                         _______ _______ _______ _____ _____    ______ ____
ROOT
ATOM      2  O   UNL     1      -2.623   3.080  24.140  0.00  0.00    -0.253 OA
ATOM      4  O   UNL     1       1.744  -1.725  22.083  0.00  0.00    -0.270 OA
ATOM      5  N   UNL     1      -0.466   2.224  23.962  0.00  0.00    -0.271 N 
ATOM      7  N   UNL     1      -0.925   4.164  25.241  0.00  0.00    -0.296 N 
ATOM      8  N   UNL     1       1.376   0.521  22.613  0.00  0.00    -0.294 N 
ATOM     20  C   UNL     1      -0.948   1.021  23.264  0.00  0.00    +0.181 C 
ATOM     25  C   UNL     1      -0.012   0.526  22.164  0.00  0.00    +0.140 C 
ATOM     27  C   UNL     1       0.976   2.277  24.279  0.00  0.00    +0.129 C 
ATOM     29  C   UNL     1       1.842   1.815  23.111  0.00  0.00    +0.127 C 
ATOM     30  C   UNL     1      -1.423   3.154  24.425  0.00  0.00    +0.303 C 
ATOM     32  C   UNL     1       2.143  -0.640  22.504  0.00  0.00    +0.247 C 
ATOM     42  H   UNL     1       0.010   4.096  25.617  0.00  0.00    +0.151 HD
ENDROOT
BRANCH   7  19
ATOM     19  C   UNL     1      -1.778   5.186  25.807  0.00  0.00    +0.074 C 
ATOM     21  C   UNL     1      -2.737   4.590  26.843  0.00  0.00    +0.022 C 
ATOM     22  C   UNL     1      -2.542   5.936  24.710  0.00  0.00    +0.022 C 
ATOM     23  C   UNL     1      -3.835   3.740  26.204  0.00  0.00    +0.002 C 
ATOM     24  C   UNL     1      -3.640   5.084  24.075  0.00  0.00    +0.002 C 
ATOM     26  C   UNL     1      -4.587   4.511  25.124  0.00  0.00    +0.000 C 
ENDBRANCH   7  19
BRANCH  32  33
ATOM     33  C   UNL     1       3.544  -0.588  22.941  0.00  0.00    +0.037 A 
ATOM     34  C   UNL     1       4.346   0.496  22.585  0.00  0.00    +0.015 A 
ATOM     35  C   UNL     1       4.074  -1.625  23.709  0.00  0.00    +0.015 A 
ATOM     36  C   UNL     1       5.677   0.545  22.999  0.00  0.00    +0.024 A 
ATOM     37  C   UNL     1       5.405  -1.576  24.123  0.00  0.00    +0.024 A 
ATOM     38  C   UNL     1       6.206  -0.491  23.768  0.00  0.00    +0.029 A 
BRANCH  38  10
ATOM     10  N   UNL     1       7.552  -0.444  24.187  0.00  0.00    -0.336 N 
ATOM     39  C   UNL     1       7.946  -1.014  25.459  0.00  0.00    +0.129 C 
ATOM     40  C   UNL     1       8.558   0.184  23.353  0.00  0.00    +0.129 C 
ENDBRANCH  38  10
ENDBRANCH  32  33
BRANCH  20  28
ATOM      1  O   UNL     1      -0.244  -0.328  25.106  0.00  0.00    -0.274 OA
ATOM      6  N   UNL     1      -2.409  -0.579  24.291  0.00  0.00    -0.302 N 
ATOM     28  C   UNL     1      -1.142  -0.023  24.328  0.00  0.00    +0.236 C 
ATOM     41  H   UNL     1      -3.045  -0.309  23.546  0.00  0.00    +0.150 HD
BRANCH   6  18
ATOM     18  C   UNL     1      -2.842  -1.620  25.194  0.00  0.00    +0.159 C 
BRANCH  18  31
ATOM      3  O   UNL     1      -4.391  -3.237  24.248  0.00  0.00    -0.274 OA
ATOM      9  N   UNL     1      -2.150  -3.488  23.819  0.00  0.00    -0.328 N 
ATOM     31  C   UNL     1      -3.233  -2.844  24.376  0.00  0.00    +0.231 C 
ATOM     43  H   UNL     1      -1.196  -3.165  23.947  0.00  0.00    +0.145 HD
ATOM     44  H   UNL     1      -2.273  -4.324  23.256  0.00  0.00    +0.145 HD
ENDBRANCH  18  31
BRANCH  18  14
ATOM     14  C   UNL     1      -3.959  -1.150  26.129  0.00  0.00    +0.035 C 
BRANCH  14  11
ATOM     11  C   UNL     1      -4.533   0.222  25.779  0.00  0.00    -0.009 C 
ATOM     12  C   UNL     1      -4.913   0.287  24.293  0.00  0.00    +0.003 C 
ATOM     13  C   UNL     1      -5.741   0.547  26.667  0.00  0.00    +0.003 C 
ATOM     15  C   UNL     1      -5.539   1.632  23.930  0.00  0.00    +0.000 C 
ATOM     16  C   UNL     1      -6.365   1.892  26.300  0.00  0.00    +0.000 C 
ATOM     17  C   UNL     1      -6.734   1.956  24.820  0.00  0.00    +0.000 C 
ENDBRANCH  14  11
ENDBRANCH  18  14
ENDBRANCH   6  18
ENDBRANCH  20  28
TORSDOF 8
ENDMDL
MODEL 2
REMARK VINA RESULT:      18.5      1.387      2.133
REMARK  Name = 45361703
REMARK  10 active torsions:
REMARK  status: ('A' for Active; 'I' for Inactive)
REMARK    1  A    between atoms: N_6  and  C_18
REMARK    2  A    between atoms: N_7  and  C_19
REMARK    3  A    between atoms: N_10  and  C_38
REMARK    4  A    between atoms: N_10  and  C_39
REMARK    5  A    between atoms: N_10  and  C_40
REMARK    6  A    between atoms: C_11  and  C_14
REMARK    7  A    between atoms: C_14  and  C_18
REMARK    8  A    between atoms: C_18  and  C_31
REMARK    9  A    between atoms: C_20  and  C_28
REMARK   10  A    between atoms: C_32  and  C_33
REMARK                            x       y       z     vdW  Elec       q    Type
REMARK                         _______ _______ _______ _____ _____    ______ ____
ROOT
ATOM      2  O   UNL     1      -2.932   2.786  24.246  0.00  0.00    -0.253 OA
ATOM      4  O   UNL     1       1.904  -1.769  22.747  0.00  0.00    -0.270 OA
ATOM      5  N   UNL     1      -0.697   2.193  23.992  0.00  0.00    -0.271 N 
ATOM      7  N   UNL     1      -1.325   4.301  24.872  0.00  0.00    -0.296 N 
ATOM      8  N   UNL     1       1.251   0.474  22.823  0.00  0.00    -0.294 N 
ATOM     20  C   UNL     1      -1.053   0.811  23.634  0.00  0.00    +0.181 C 
ATOM     25  C   UNL     1      -0.158   0.200  22.559  0.00  0.00    +0.140 C 
ATOM     27  C   UNL     1       0.744   2.500  24.110  0.00  0.00    +0.129 C 
ATOM     29  C   UNL     1       1.559   1.896  22.971  0.00  0.00    +0.127 C 
ATOM     30  C   UNL     1      -1.736   3.076  24.359  0.00  0.00    +0.303 C 
ATOM     32  C   UNL     1       2.171  -0.574  22.872  0.00  0.00    +0.247 C 
ATOM     42  H   UNL     1      -0.359   4.440  25.135  0.00  0.00    +0.151 HD
ENDROOT
BRANCH   7  19
ATOM     19  C   UNL     1      -2.267   5.309  25.306  0.00  0.00    +0.074 C 
ATOM     21  C   UNL     1      -2.921   4.914  26.634  0.00  0.00    +0.022 C 
ATOM     22  C   UNL     1      -3.321   5.580  24.226  0.00  0.00    +0.022 C 
ATOM     23  C   UNL     1      -3.914   3.762  26.477  0.00  0.00    +0.002 C 
ATOM     24  C   UNL     1      -4.312   4.427  24.074  0.00  0.00    +0.002 C 
ATOM     26  C   UNL     1      -4.958   4.059  25.406  0.00  0.00    +0.000 C 
ENDBRANCH   7  19
BRANCH  32  33
ATOM     33  C   UNL     1       3.582  -0.246  23.112  0.00  0.00    +0.037 A 
ATOM     34  C   UNL     1       4.405  -1.151  23.781  0.00  0.00    +0.015 A 
ATOM     35  C   UNL     1       4.099   0.974  22.673  0.00  0.00    +0.015 A 
ATOM     36  C   UNL     1       5.745  -0.839  24.010  0.00  0.00    +0.024 A 
ATOM     37  C   UNL     1       5.439   1.286  22.902  0.00  0.00    +0.024 A 
ATOM     38  C   UNL     1       6.262   0.380  23.570  0.00  0.00    +0.029 A 
BRANCH  38  10
ATOM     10  N   UNL     1       7.616   0.697  23.801  0.00  0.00    -0.336 N 
ATOM     39  C   UNL     1       7.979   1.942  24.448  0.00  0.00    +0.129 C 
ATOM     40  C   UNL     1       8.664  -0.214  23.388  0.00  0.00    +0.129 C 
ENDBRANCH  38  10
ENDBRANCH  32  33
BRANCH  20  28
ATOM      1  O   UNL     1      -0.868   0.571  26.004  0.00  0.00    -0.274 OA
ATOM      6  N   UNL     1      -1.058  -1.341  24.691  0.00  0.00    -0.302 N 
ATOM     28  C   UNL     1      -0.988   0.024  24.912  0.00  0.00    +0.236 C 
ATOM     41  H   UNL     1      -1.071  -1.686  23.735  0.00  0.00    +0.150 HD
BRANCH   6  18
ATOM     18  C   UNL     1      -0.995  -2.318  25.753  0.00  0.00    +0.159 C 
BRANCH  18  31
ATOM      3  O   UNL     1       0.191  -4.426  25.509  0.00  0.00    -0.274 OA
ATOM      9  N   UNL     1       1.395  -2.474  25.405  0.00  0.00    -0.328 N 
ATOM     31  C   UNL     1       0.229  -3.197  25.536  0.00  0.00    +0.231 C 
ATOM     43  H   UNL     1       1.417  -1.459  25.447  0.00  0.00    +0.145 HD
ATOM     44  H   UNL     1       2.285  -2.940  25.264  0.00  0.00    +0.145 HD
ENDBRANCH  18  31
BRANCH  18  14
ATOM     14  C   UNL     1      -2.291  -3.126  25.876  0.00  0.00    +0.035 C 
BRANCH  14  11
ATOM     11  C   UNL     1      -3.546  -2.361  25.460  0.00  0.00    -0.009 C 
ATOM     12  C   UNL     1      -3.547  -0.950  26.064  0.00  0.00    +0.003 C 
ATOM     13  C   UNL     1      -3.662  -2.301  23.931  0.00  0.00    +0.003 C 
ATOM     15  C   UNL     1      -4.766  -0.147  25.618  0.00  0.00    +0.000 C 
ATOM     16  C   UNL     1      -4.881  -1.496  23.489  0.00  0.00    +0.000 C 
ATOM     17  C   UNL     1      -4.883  -0.096  24.098  0.00  0.00    +0.000 C 
ENDBRANCH  14  11
ENDBRANCH  18  14
ENDBRANCH   6  18
ENDBRANCH  20  28
TORSDOF 8
ENDMDL
MODEL 3
REMARK VINA RESULT:      21.3      2.247      7.996
REMARK  Name = 45361703
REMARK  10 active torsions:
REMARK  status: ('A' for Active; 'I' for Inactive)
REMARK    1  A    between atoms: N_6  and  C_18
REMARK    2  A    between atoms: N_7  and  C_19
REMARK    3  A    between atoms: N_10  and  C_38
REMARK    4  A    between atoms: N_10  and  C_39
REMARK    5  A    between atoms: N_10  and  C_40
REMARK    6  A    between atoms: C_11  and  C_14
REMARK    7  A    between atoms: C_14  and  C_18
REMARK    8  A    between atoms: C_18  and  C_31
REMARK    9  A    between atoms: C_20  and  C_28
REMARK   10  A    between atoms: C_32  and  C_33
REMARK                            x       y       z     vdW  Elec       q    Type
REMARK                         _______ _______ _______ _____ _____    ______ ____
ROOT
ATOM      2  O   UNL     1       2.669   1.875  23.881  0.00  0.00    -0.253 OA
ATOM      4  O   UNL     1      -3.185   3.822  26.766  0.00  0.00    -0.270 OA
ATOM      5  N   UNL     1       0.345   1.989  23.905  0.00  0.00    -0.271 N 
ATOM      7  N   UNL     1       1.504   0.712  22.281  0.00  0.00    -0.296 N 
ATOM      8  N   UNL     1      -2.023   3.289  24.810  0.00  0.00    -0.294 N 
ATOM     20  C   UNL     1       0.344   2.710  25.188  0.00  0.00    +0.181 C 
ATOM     25  C   UNL     1      -0.737   3.782  25.294  0.00  0.00    +0.140 C 
ATOM     27  C   UNL     1      -0.973   1.625  23.344  0.00  0.00    +0.129 C 
ATOM     29  C   UNL     1      -1.979   2.767  23.445  0.00  0.00    +0.127 C 
ATOM     30  C   UNL     1       1.583   1.550  23.387  0.00  0.00    +0.303 C 
ATOM     32  C   UNL     1      -3.157   3.381  25.618  0.00  0.00    +0.247 C 
ATOM     42  H   UNL     1       0.617   0.306  22.017  0.00  0.00    +0.151 HD
ENDROOT
BRANCH   7  19
ATOM     19  C   UNL     1       2.682   0.167  21.643  0.00  0.00    +0.074 C 
ATOM     21  C   UNL     1       2.955  -1.263  22.122  0.00  0.00    +0.022 C 
ATOM     22  C   UNL     1       3.899   1.070  21.868  0.00  0.00    +0.022 C 
ATOM     23  C   UNL     1       3.464  -1.310  23.562  0.00  0.00    +0.002 C 
ATOM     24  C   UNL     1       4.406   1.019  23.309  0.00  0.00    +0.002 C 
ATOM     26  C   UNL     1       4.682  -0.412  23.759  0.00  0.00    +0.000 C 
ENDBRANCH   7  19
BRANCH  32  33
ATOM     33  C   UNL     1      -4.434   2.899  25.075  0.00  0.00    +0.037 A 
ATOM     34  C   UNL     1      -5.420   2.416  25.936  0.00  0.00    +0.015 A 
ATOM     35  C   UNL     1      -4.659   2.920  23.698  0.00  0.00    +0.015 A 
ATOM     36  C   UNL     1      -6.631   1.956  25.421  0.00  0.00    +0.024 A 
ATOM     37  C   UNL     1      -5.871   2.460  23.184  0.00  0.00    +0.024 A 
ATOM     38  C   UNL     1      -6.857   1.978  24.045  0.00  0.00    +0.029 A 
BRANCH  38  10
ATOM     10  N   UNL     1      -8.082   1.514  23.523  0.00  0.00    -0.336 N 
ATOM     39  C   UNL     1      -8.314   0.094  23.348  0.00  0.00    +0.129 C 
ATOM     40  C   UNL     1      -9.122   2.450  23.147  0.00  0.00    +0.129 C 
ENDBRANCH  38  10
ENDBRANCH  32  33
BRANCH  20  28
ATOM      1  O   UNL     1       0.502   1.865  27.417  0.00  0.00    -0.274 OA
ATOM      6  N   UNL     1      -0.340   0.481  25.746  0.00  0.00    -0.302 N 
ATOM     28  C   UNL     1       0.180   1.661  26.250  0.00  0.00    +0.236 C 
ATOM     41  H   UNL     1      -0.489   0.396  24.745  0.00  0.00    +0.150 HD
BRANCH   6  18
ATOM     18  C   UNL     1      -0.573  -0.691  26.559  0.00  0.00    +0.159 C 
BRANCH  18  31
ATOM      3  O   UNL     1      -0.015  -3.034  26.228  0.00  0.00    -0.274 OA
ATOM      9  N   UNL     1      -0.178  -1.677  24.383  0.00  0.00    -0.328 N 
ATOM     31  C   UNL     1      -0.239  -1.929  25.737  0.00  0.00    +0.231 C 
ATOM     43  H   UNL     1      -0.346  -0.755  23.991  0.00  0.00    +0.145 HD
ATOM     44  H   UNL     1       0.044  -2.416  23.725  0.00  0.00    +0.145 HD
ENDBRANCH  18  31
BRANCH  18  14
ATOM     14  C   UNL     1      -1.992  -0.726  27.133  0.00  0.00    +0.035 C 
BRANCH  14  11
ATOM     11  C   UNL     1      -3.067  -1.120  26.121  0.00  0.00    -0.009 C 
ATOM     12  C   UNL     1      -3.030  -0.188  24.901  0.00  0.00    +0.003 C 
ATOM     13  C   UNL     1      -2.899  -2.584  25.694  0.00  0.00    +0.003 C 
ATOM     15  C   UNL     1      -4.061  -0.595  23.851  0.00  0.00    +0.000 C 
ATOM     16  C   UNL     1      -3.930  -2.987  24.642  0.00  0.00    +0.000 C 
ATOM     17  C   UNL     1      -3.897  -2.053  23.436  0.00  0.00    +0.000 C 
ENDBRANCH  14  11
ENDBRANCH  18  14
ENDBRANCH   6  18
ENDBRANCH  20  28
TORSDOF 8
ENDMDL
