MODEL 1
REMARK VINA RESULT:      -4.6      0.000      0.000
REMARK  Name = 56774893
REMARK  8 active torsions:
REMARK  status: ('A' for Active; 'I' for Inactive)
REMARK    1  A    between atoms: O_2  and  C_9
REMARK    2  A    between atoms: O_4  and  C_21
REMARK    3  A    between atoms: O_4  and  C_22
REMARK    4  A    between atoms: N_6  and  C_14
REMARK    5  A    between atoms: N_7  and  C_19
REMARK    6  A    between atoms: C_8  and  C_9
REMARK    7  A    between atoms: C_9  and  C_11
REMARK    8  A    between atoms: C_20  and  C_21
REMARK                            x       y       z     vdW  Elec       q    Type
REMARK                         _______ _______ _______ _____ _____    ______ ____
ROOT
ATOM     11  C   UNL     1      -1.591   2.736  25.163  0.00  0.00    -0.017 A 
ATOM     15  C   UNL     1      -0.816   3.609  24.399  0.00  0.00    +0.008 A 
ATOM     16  C   UNL     1      -1.150   1.433  25.397  0.00  0.00    +0.008 A 
ATOM     17  C   UNL     1       0.401   3.179  23.870  0.00  0.00    +0.023 A 
ATOM     18  C   UNL     1       0.066   1.003  24.868  0.00  0.00    +0.023 A 
ATOM     19  C   UNL     1       0.842   1.876  24.104  0.00  0.00    +0.033 A 
ENDROOT
BRANCH  19   7
ATOM      5  O   UNL     1       1.444  -0.288  22.102  0.00  0.00    -0.273 OA
ATOM      7  N   UNL     1       2.059   1.446  23.575  0.00  0.00    -0.284 N 
ATOM     20  C   UNL     1       2.284   0.429  22.637  0.00  0.00    +0.243 C 
ATOM     24  H   UNL     1       2.881   1.939  23.919  0.00  0.00    +0.155 HD
BRANCH  20  21
ATOM     21  C   UNL     1       3.754   0.264  22.314  0.00  0.00    +0.255 C 
BRANCH  21   4
ATOM      4  O   UNL     1       4.515   0.863  23.342  0.00  0.00    -0.374 OA
ATOM     22  C   UNL     1       5.484  -0.035  23.877  0.00  0.00    +0.194 C 
ENDBRANCH  21   4
ENDBRANCH  20  21
ENDBRANCH  19   7
BRANCH  11   9
ATOM      9  C   UNL     1      -2.907   3.201  25.734  0.00  0.00    +0.167 C 
BRANCH   9   8
ATOM      1  O   UNL     1      -3.978   0.762  24.503  0.00  0.00    -0.369 OA
ATOM      3  O   UNL     1      -6.933   1.696  26.358  0.00  0.00    -0.273 OA
ATOM      6  N   UNL     1      -5.340   3.062  25.350  0.00  0.00    -0.295 N 
ATOM      8  C   UNL     1      -4.030   3.145  24.694  0.00  0.00    +0.134 C 
ATOM     10  C   UNL     1      -3.844   1.963  23.750  0.00  0.00    +0.185 C 
ATOM     12  C   UNL     1      -5.927   1.836  25.660  0.00  0.00    +0.241 C 
ATOM     13  C   UNL     1      -5.291   0.620  24.996  0.00  0.00    +0.255 C 
ATOM     14  C   UNL     1      -5.928   4.303  25.838  0.00  0.00    +0.132 C 
ENDBRANCH   9   8
BRANCH   9   2
ATOM      2  O   UNL     1      -2.773   4.537  26.210  0.00  0.00    -0.385 OA
ATOM     23  H   UNL     1      -3.495   4.717  26.836  0.00  0.00    +0.210 HD
ENDBRANCH   9   2
ENDBRANCH  11   9
TORSDOF 6
ENDMDL
MODEL 2
REMARK VINA RESULT:      -4.1      1.039      1.666
REMARK  Name = 56774893
REMARK  8 active torsions:
REMARK  status: ('A' for Active; 'I' for Inactive)
REMARK    1  A    between atoms: O_2  and  C_9
REMARK    2  A    between atoms: O_4  and  C_21
REMARK    3  A    between atoms: O_4  and  C_22
REMARK    4  A    between atoms: N_6  and  C_14
REMARK    5  A    between atoms: N_7  and  C_19
REMARK    6  A    between atoms: C_8  and  C_9
REMARK    7  A    between atoms: C_9  and  C_11
REMARK    8  A    between atoms: C_20  and  C_21
REMARK                            x       y       z     vdW  Elec       q    Type
REMARK                         _______ _______ _______ _____ _____    ______ ____
ROOT
ATOM     11  C   UNL     1      -1.784   2.857  25.330  0.00  0.00    -0.017 A 
ATOM     15  C   UNL     1      -1.384   1.534  25.516  0.00  0.00    +0.008 A 
ATOM     16  C   UNL     1      -0.980   3.732  24.597  0.00  0.00    +0.008 A 
ATOM     17  C   UNL     1      -0.182   1.085  24.969  0.00  0.00    +0.023 A 
ATOM     18  C   UNL     1       0.221   3.283  24.051  0.00  0.00    +0.023 A 
ATOM     19  C   UNL     1       0.620   1.959  24.237  0.00  0.00    +0.033 A 
ENDROOT
BRANCH  19   7
ATOM      5  O   UNL     1       1.174  -0.301  22.329  0.00  0.00    -0.273 OA
ATOM      7  N   UNL     1       1.823   1.510  23.690  0.00  0.00    -0.284 N 
ATOM     20  C   UNL     1       2.025   0.448  22.799  0.00  0.00    +0.243 C 
ATOM     24  H   UNL     1       2.651   2.025  23.982  0.00  0.00    +0.155 HD
BRANCH  20  21
ATOM     21  C   UNL     1       3.485   0.275  22.437  0.00  0.00    +0.255 C 
BRANCH  21   4
ATOM      4  O   UNL     1       4.277   0.859  23.450  0.00  0.00    -0.374 OA
ATOM     22  C   UNL     1       5.451   0.096  23.711  0.00  0.00    +0.194 C 
ENDBRANCH  21   4
ENDBRANCH  20  21
ENDBRANCH  19   7
BRANCH  11   9
ATOM      9  C   UNL     1      -3.082   3.343  25.922  0.00  0.00    +0.167 C 
BRANCH   9   8
ATOM      1  O   UNL     1      -2.908   2.197  23.226  0.00  0.00    -0.369 OA
ATOM      3  O   UNL     1      -4.912  -0.409  24.721  0.00  0.00    -0.273 OA
ATOM      6  N   UNL     1      -4.914   1.877  25.158  0.00  0.00    -0.295 N 
ATOM      8  C   UNL     1      -4.252   3.170  24.948  0.00  0.00    +0.134 C 
ATOM     10  C   UNL     1      -3.782   3.286  23.502  0.00  0.00    +0.185 C 
ATOM     12  C   UNL     1      -4.519   0.732  24.470  0.00  0.00    +0.241 C 
ATOM     13  C   UNL     1      -3.598   0.970  23.277  0.00  0.00    +0.255 C 
ATOM     14  C   UNL     1      -5.879   1.786  26.246  0.00  0.00    +0.132 C 
ENDBRANCH   9   8
BRANCH   9   2
ATOM      2  O   UNL     1      -2.961   4.718  26.271  0.00  0.00    -0.385 OA
ATOM     23  H   UNL     1      -2.398   5.157  25.612  0.00  0.00    +0.210 HD
ENDBRANCH   9   2
ENDBRANCH  11   9
TORSDOF 6
ENDMDL
MODEL 3
REMARK VINA RESULT:      -3.9      1.410      1.798
REMARK  Name = 56774893
REMARK  8 active torsions:
REMARK  status: ('A' for Active; 'I' for Inactive)
REMARK    1  A    between atoms: O_2  and  C_9
REMARK    2  A    between atoms: O_4  and  C_21
REMARK    3  A    between atoms: O_4  and  C_22
REMARK    4  A    between atoms: N_6  and  C_14
REMARK    5  A    between atoms: N_7  and  C_19
REMARK    6  A    between atoms: C_8  and  C_9
REMARK    7  A    between atoms: C_9  and  C_11
REMARK    8  A    between atoms: C_20  and  C_21
REMARK                            x       y       z     vdW  Elec       q    Type
REMARK                         _______ _______ _______ _____ _____    ______ ____
ROOT
ATOM     11  C   UNL     1      -1.308   1.249  24.821  0.00  0.00    -0.017 A 
ATOM     15  C   UNL     1      -0.316   2.175  24.503  0.00  0.00    +0.008 A 
ATOM     16  C   UNL     1      -1.110  -0.106  24.552  0.00  0.00    +0.008 A 
ATOM     17  C   UNL     1       0.876   1.747  23.916  0.00  0.00    +0.023 A 
ATOM     18  C   UNL     1       0.080  -0.534  23.966  0.00  0.00    +0.023 A 
ATOM     19  C   UNL     1       1.073   0.393  23.648  0.00  0.00    +0.033 A 
ENDROOT
BRANCH  19   7
ATOM      5  O   UNL     1       3.592   1.912  23.010  0.00  0.00    -0.273 OA
ATOM      7  N   UNL     1       2.265  -0.035  23.061  0.00  0.00    -0.284 N 
ATOM     20  C   UNL     1       3.414   0.718  22.788  0.00  0.00    +0.243 C 
ATOM     24  H   UNL     1       2.292  -1.020  22.803  0.00  0.00    +0.155 HD
BRANCH  20  21
ATOM     21  C   UNL     1       4.502  -0.113  22.141  0.00  0.00    +0.255 C 
BRANCH  21   4
ATOM      4  O   UNL     1       5.667  -0.035  22.936  0.00  0.00    -0.374 OA
ATOM     22  C   UNL     1       5.464  -0.596  24.230  0.00  0.00    +0.194 C 
ENDBRANCH  21   4
ENDBRANCH  20  21
ENDBRANCH  19   7
BRANCH  11   9
ATOM      9  C   UNL     1      -2.596   1.712  25.454  0.00  0.00    +0.167 C 
BRANCH   9   8
ATOM      1  O   UNL     1      -5.371   0.834  25.831  0.00  0.00    -0.369 OA
ATOM      3  O   UNL     1      -6.011   4.385  25.683  0.00  0.00    -0.273 OA
ATOM      6  N   UNL     1      -4.400   3.137  24.559  0.00  0.00    -0.295 N 
ATOM      8  C   UNL     1      -3.722   1.842  24.424  0.00  0.00    +0.134 C 
ATOM     10  C   UNL     1      -4.730   0.708  24.566  0.00  0.00    +0.185 C 
ATOM     12  C   UNL     1      -5.505   3.300  25.392  0.00  0.00    +0.241 C 
ATOM     13  C   UNL     1      -6.148   2.008  25.888  0.00  0.00    +0.255 C 
ATOM     14  C   UNL     1      -3.770   4.294  23.937  0.00  0.00    +0.132 C 
ENDBRANCH   9   8
BRANCH   9   2
ATOM      2  O   UNL     1      -2.389   2.971  26.087  0.00  0.00    -0.385 OA
ATOM     23  H   UNL     1      -1.441   3.070  26.278  0.00  0.00    +0.210 HD
ENDBRANCH   9   2
ENDBRANCH  11   9
TORSDOF 6
ENDMDL
MODEL 4
REMARK VINA RESULT:      -3.6      1.274      2.098
REMARK  Name = 56774893
REMARK  8 active torsions:
REMARK  status: ('A' for Active; 'I' for Inactive)
REMARK    1  A    between atoms: O_2  and  C_9
REMARK    2  A    between atoms: O_4  and  C_21
REMARK    3  A    between atoms: O_4  and  C_22
REMARK    4  A    between atoms: N_6  and  C_14
REMARK    5  A    between atoms: N_7  and  C_19
REMARK    6  A    between atoms: C_8  and  C_9
REMARK    7  A    between atoms: C_9  and  C_11
REMARK    8  A    between atoms: C_20  and  C_21
REMARK                            x       y       z     vdW  Elec       q    Type
REMARK                         _______ _______ _______ _____ _____    ______ ____
ROOT
ATOM     11  C   UNL     1      -1.520   2.274  23.873  0.00  0.00    -0.017 A 
ATOM     15  C   UNL     1      -0.499   3.191  24.118  0.00  0.00    +0.008 A 
ATOM     16  C   UNL     1      -1.208   0.966  23.500  0.00  0.00    +0.008 A 
ATOM     17  C   UNL     1       0.835   2.801  23.991  0.00  0.00    +0.023 A 
ATOM     18  C   UNL     1       0.125   0.576  23.372  0.00  0.00    +0.023 A 
ATOM     19  C   UNL     1       1.146   1.494  23.618  0.00  0.00    +0.033 A 
ENDROOT
BRANCH  19   7
ATOM      5  O   UNL     1       2.540  -0.006  21.413  0.00  0.00    -0.273 OA
ATOM      7  N   UNL     1       2.480   1.104  23.491  0.00  0.00    -0.284 N 
ATOM     20  C   UNL     1       3.080   0.405  22.435  0.00  0.00    +0.243 C 
ATOM     24  H   UNL     1       3.084   1.364  24.268  0.00  0.00    +0.155 HD
BRANCH  20  21
ATOM     21  C   UNL     1       4.557   0.171  22.671  0.00  0.00    +0.255 C 
BRANCH  21   4
ATOM      4  O   UNL     1       4.707  -0.883  23.600  0.00  0.00    -0.374 OA
ATOM     22  C   UNL     1       5.696  -0.585  24.582  0.00  0.00    +0.194 C 
ENDBRANCH  21   4
ENDBRANCH  20  21
ENDBRANCH  19   7
BRANCH  11   9
ATOM      9  C   UNL     1      -2.961   2.696  24.010  0.00  0.00    +0.167 C 
BRANCH   9   8
ATOM      1  O   UNL     1      -4.898   4.321  25.500  0.00  0.00    -0.369 OA
ATOM      3  O   UNL     1      -7.019   1.453  24.933  0.00  0.00    -0.273 OA
ATOM      6  N   UNL     1      -4.720   1.531  25.288  0.00  0.00    -0.295 N 
ATOM      8  C   UNL     1      -3.520   2.369  25.398  0.00  0.00    +0.134 C 
ATOM     10  C   UNL     1      -3.843   3.642  26.172  0.00  0.00    +0.185 C 
ATOM     12  C   UNL     1      -5.995   2.086  25.198  0.00  0.00    +0.241 C 
ATOM     13  C   UNL     1      -6.089   3.569  25.541  0.00  0.00    +0.255 C 
ATOM     14  C   UNL     1      -4.524   0.100  25.091  0.00  0.00    +0.132 C 
ENDBRANCH   9   8
BRANCH   9   2
ATOM      2  O   UNL     1      -3.745   2.037  23.020  0.00  0.00    -0.385 OA
ATOM     23  H   UNL     1      -4.459   2.635  22.741  0.00  0.00    +0.210 HD
ENDBRANCH   9   2
ENDBRANCH  11   9
TORSDOF 6
ENDMDL
MODEL 5
REMARK VINA RESULT:      -3.3      1.455      2.697
REMARK  Name = 56774893
REMARK  8 active torsions:
REMARK  status: ('A' for Active; 'I' for Inactive)
REMARK    1  A    between atoms: O_2  and  C_9
REMARK    2  A    between atoms: O_4  and  C_21
REMARK    3  A    between atoms: O_4  and  C_22
REMARK    4  A    between atoms: N_6  and  C_14
REMARK    5  A    between atoms: N_7  and  C_19
REMARK    6  A    between atoms: C_8  and  C_9
REMARK    7  A    between atoms: C_9  and  C_11
REMARK    8  A    between atoms: C_20  and  C_21
REMARK                            x       y       z     vdW  Elec       q    Type
REMARK                         _______ _______ _______ _____ _____    ______ ____
ROOT
ATOM     11  C   UNL     1      -2.813   0.998  24.278  0.00  0.00    -0.017 A 
ATOM     15  C   UNL     1      -2.274   1.236  23.013  0.00  0.00    +0.008 A 
ATOM     16  C   UNL     1      -1.967   0.815  25.373  0.00  0.00    +0.008 A 
ATOM     17  C   UNL     1      -0.890   1.290  22.843  0.00  0.00    +0.023 A 
ATOM     18  C   UNL     1      -0.585   0.869  25.203  0.00  0.00    +0.023 A 
ATOM     19  C   UNL     1      -0.046   1.107  23.938  0.00  0.00    +0.033 A 
ENDROOT
BRANCH  19   7
ATOM      5  O   UNL     1       1.736  -0.302  21.964  0.00  0.00    -0.273 OA
ATOM      7  N   UNL     1       1.338   1.162  23.768  0.00  0.00    -0.284 N 
ATOM     20  C   UNL     1       2.121   0.483  22.825  0.00  0.00    +0.243 C 
ATOM     24  H   UNL     1       1.831   1.774  24.415  0.00  0.00    +0.155 HD
BRANCH  20  21
ATOM     21  C   UNL     1       3.593   0.809  22.964  0.00  0.00    +0.255 C 
BRANCH  21   4
ATOM      4  O   UNL     1       4.299  -0.384  23.238  0.00  0.00    -0.374 OA
ATOM     22  C   UNL     1       5.594  -0.122  23.772  0.00  0.00    +0.194 C 
ENDBRANCH  21   4
ENDBRANCH  20  21
ENDBRANCH  19   7
BRANCH  11   9
ATOM      9  C   UNL     1      -4.308   0.938  24.461  0.00  0.00    +0.167 C 
BRANCH   9   8
ATOM      1  O   UNL     1      -4.390   2.852  26.684  0.00  0.00    -0.369 OA
ATOM      3  O   UNL     1      -2.206   4.739  24.513  0.00  0.00    -0.273 OA
ATOM      6  N   UNL     1      -3.971   3.329  23.953  0.00  0.00    -0.295 N 
ATOM      8  C   UNL     1      -4.943   2.332  24.417  0.00  0.00    +0.134 C 
ATOM     10  C   UNL     1      -5.486   2.730  25.784  0.00  0.00    +0.185 C 
ATOM     12  C   UNL     1      -3.153   4.022  24.843  0.00  0.00    +0.241 C 
ATOM     13  C   UNL     1      -3.548   3.919  26.312  0.00  0.00    +0.255 C 
ATOM     14  C   UNL     1      -3.757   3.441  22.516  0.00  0.00    +0.132 C 
ENDBRANCH   9   8
BRANCH   9   2
ATOM      2  O   UNL     1      -4.610   0.323  25.709  0.00  0.00    -0.385 OA
ATOM     23  H   UNL     1      -3.993   0.661  26.379  0.00  0.00    +0.210 HD
ENDBRANCH   9   2
ENDBRANCH  11   9
TORSDOF 6
ENDMDL
MODEL 6
REMARK VINA RESULT:      -2.8     18.373     20.046
REMARK  Name = 56774893
REMARK  8 active torsions:
REMARK  status: ('A' for Active; 'I' for Inactive)
REMARK    1  A    between atoms: O_2  and  C_9
REMARK    2  A    between atoms: O_4  and  C_21
REMARK    3  A    between atoms: O_4  and  C_22
REMARK    4  A    between atoms: N_6  and  C_14
REMARK    5  A    between atoms: N_7  and  C_19
REMARK    6  A    between atoms: C_8  and  C_9
REMARK    7  A    between atoms: C_9  and  C_11
REMARK    8  A    between atoms: C_20  and  C_21
REMARK                            x       y       z     vdW  Elec       q    Type
REMARK                         _______ _______ _______ _____ _____    ______ ____
ROOT
ATOM     11  C   UNL     1      16.968  -4.997  26.168  0.00  0.00    -0.017 A 
ATOM     15  C   UNL     1      17.403  -4.658  27.449  0.00  0.00    +0.008 A 
ATOM     16  C   UNL     1      16.283  -6.194  25.958  0.00  0.00    +0.008 A 
ATOM     17  C   UNL     1      17.152  -5.516  28.520  0.00  0.00    +0.023 A 
ATOM     18  C   UNL     1      16.033  -7.052  27.028  0.00  0.00    +0.023 A 
ATOM     19  C   UNL     1      16.467  -6.712  28.310  0.00  0.00    +0.033 A 
ENDROOT
BRANCH  19   7
ATOM      5  O   UNL     1      14.346  -6.605  30.443  0.00  0.00    -0.273 OA
ATOM      7  N   UNL     1      16.216  -7.570  29.381  0.00  0.00    -0.284 N 
ATOM     20  C   UNL     1      15.207  -7.474  30.349  0.00  0.00    +0.243 C 
ATOM     24  H   UNL     1      16.851  -8.362  29.461  0.00  0.00    +0.155 HD
BRANCH  20  21
ATOM     21  C   UNL     1      15.268  -8.606  31.353  0.00  0.00    +0.255 C 
BRANCH  21   4
ATOM      4  O   UNL     1      14.927  -9.811  30.699  0.00  0.00    -0.374 OA
ATOM     22  C   UNL     1      13.519 -10.029  30.690  0.00  0.00    +0.194 C 
ENDBRANCH  21   4
ENDBRANCH  20  21
ENDBRANCH  19   7
BRANCH  11   9
ATOM      9  C   UNL     1      17.241  -4.070  25.010  0.00  0.00    +0.167 C 
BRANCH   9   8
ATOM      1  O   UNL     1      17.399  -1.197  25.586  0.00  0.00    -0.369 OA
ATOM      3  O   UNL     1      17.063  -0.945  21.999  0.00  0.00    -0.273 OA
ATOM      6  N   UNL     1      16.136  -2.508  23.454  0.00  0.00    -0.295 N 
ATOM      8  C   UNL     1      16.109  -3.057  24.815  0.00  0.00    +0.134 C 
ATOM     10  C   UNL     1      16.203  -1.927  25.834  0.00  0.00    +0.185 C 
ATOM     12  C   UNL     1      16.860  -1.359  23.142  0.00  0.00    +0.241 C 
ATOM     13  C   UNL     1      17.343  -0.545  24.338  0.00  0.00    +0.255 C 
ATOM     14  C   UNL     1      15.530  -3.305  22.395  0.00  0.00    +0.132 C 
ENDBRANCH   9   8
BRANCH   9   2
ATOM      2  O   UNL     1      17.400  -4.833  23.818  0.00  0.00    -0.385 OA
ATOM     23  H   UNL     1      17.079  -4.306  23.067  0.00  0.00    +0.210 HD
ENDBRANCH   9   2
ENDBRANCH  11   9
TORSDOF 6
ENDMDL
MODEL 7
REMARK VINA RESULT:      -2.7      2.147      3.140
REMARK  Name = 56774893
REMARK  8 active torsions:
REMARK  status: ('A' for Active; 'I' for Inactive)
REMARK    1  A    between atoms: O_2  and  C_9
REMARK    2  A    between atoms: O_4  and  C_21
REMARK    3  A    between atoms: O_4  and  C_22
REMARK    4  A    between atoms: N_6  and  C_14
REMARK    5  A    between atoms: N_7  and  C_19
REMARK    6  A    between atoms: C_8  and  C_9
REMARK    7  A    between atoms: C_9  and  C_11
REMARK    8  A    between atoms: C_20  and  C_21
REMARK                            x       y       z     vdW  Elec       q    Type
REMARK                         _______ _______ _______ _____ _____    ______ ____
ROOT
ATOM     11  C   UNL     1      -1.760   1.523  24.533  0.00  0.00    -0.017 A 
ATOM     15  C   UNL     1      -1.306   0.873  23.386  0.00  0.00    +0.008 A 
ATOM     16  C   UNL     1      -0.855   2.184  25.365  0.00  0.00    +0.008 A 
ATOM     17  C   UNL     1       0.052   0.885  23.068  0.00  0.00    +0.023 A 
ATOM     18  C   UNL     1       0.503   2.196  25.048  0.00  0.00    +0.023 A 
ATOM     19  C   UNL     1       0.956   1.547  23.899  0.00  0.00    +0.033 A 
ENDROOT
BRANCH  19   7
ATOM      5  O   UNL     1       2.622  -0.438  22.368  0.00  0.00    -0.273 OA
ATOM      7  N   UNL     1       2.315   1.558  23.581  0.00  0.00    -0.284 N 
ATOM     20  C   UNL     1       3.043   0.604  22.859  0.00  0.00    +0.243 C 
ATOM     24  H   UNL     1       2.833   2.366  23.922  0.00  0.00    +0.155 HD
BRANCH  20  21
ATOM     21  C   UNL     1       4.504   0.979  22.726  0.00  0.00    +0.255 C 
BRANCH  21   4
ATOM      4  O   UNL     1       5.292  -0.170  22.956  0.00  0.00    -0.374 OA
ATOM     22  C   UNL     1       5.443  -0.439  24.348  0.00  0.00    +0.194 C 
ENDBRANCH  21   4
ENDBRANCH  20  21
ENDBRANCH  19   7
BRANCH  11   9
ATOM      9  C   UNL     1      -3.228   1.508  24.877  0.00  0.00    +0.167 C 
BRANCH   9   8
ATOM      1  O   UNL     1      -4.920  -0.700  23.943  0.00  0.00    -0.369 OA
ATOM      3  O   UNL     1      -1.831  -2.551  24.214  0.00  0.00    -0.273 OA
ATOM      6  N   UNL     1      -2.607  -0.790  25.524  0.00  0.00    -0.295 N 
ATOM      8  C   UNL     1      -3.609   0.269  25.692  0.00  0.00    +0.134 C 
ATOM     10  C   UNL     1      -4.986  -0.249  25.291  0.00  0.00    +0.185 C 
ATOM     12  C   UNL     1      -2.715  -1.747  24.517  0.00  0.00    +0.241 C 
ATOM     13  C   UNL     1      -4.073  -1.819  23.826  0.00  0.00    +0.255 C 
ATOM     14  C   UNL     1      -1.395  -0.702  26.328  0.00  0.00    +0.132 C 
ENDBRANCH   9   8
BRANCH   9   2
ATOM      2  O   UNL     1      -3.996   1.538  23.678  0.00  0.00    -0.385 OA
ATOM     23  H   UNL     1      -3.391   1.619  22.923  0.00  0.00    +0.210 HD
ENDBRANCH   9   2
ENDBRANCH  11   9
TORSDOF 6
ENDMDL
MODEL 8
REMARK VINA RESULT:      -2.6      1.556      2.685
REMARK  Name = 56774893
REMARK  8 active torsions:
REMARK  status: ('A' for Active; 'I' for Inactive)
REMARK    1  A    between atoms: O_2  and  C_9
REMARK    2  A    between atoms: O_4  and  C_21
REMARK    3  A    between atoms: O_4  and  C_22
REMARK    4  A    between atoms: N_6  and  C_14
REMARK    5  A    between atoms: N_7  and  C_19
REMARK    6  A    between atoms: C_8  and  C_9
REMARK    7  A    between atoms: C_9  and  C_11
REMARK    8  A    between atoms: C_20  and  C_21
REMARK                            x       y       z     vdW  Elec       q    Type
REMARK                         _______ _______ _______ _____ _____    ______ ____
ROOT
ATOM     11  C   UNL     1      -1.912   0.357  24.133  0.00  0.00    -0.017 A 
ATOM     15  C   UNL     1      -1.207  -0.718  24.673  0.00  0.00    +0.008 A 
ATOM     16  C   UNL     1      -1.294   1.206  23.214  0.00  0.00    +0.008 A 
ATOM     17  C   UNL     1       0.117  -0.944  24.295  0.00  0.00    +0.023 A 
ATOM     18  C   UNL     1       0.029   0.980  22.836  0.00  0.00    +0.023 A 
ATOM     19  C   UNL     1       0.734  -0.096  23.377  0.00  0.00    +0.033 A 
ENDROOT
BRANCH  19   7
ATOM      5  O   UNL     1       3.039   1.819  23.094  0.00  0.00    -0.273 OA
ATOM      7  N   UNL     1       2.058  -0.322  22.998  0.00  0.00    -0.284 N 
ATOM     20  C   UNL     1       3.097   0.611  22.885  0.00  0.00    +0.243 C 
ATOM     24  H   UNL     1       2.288  -1.289  22.779  0.00  0.00    +0.155 HD
BRANCH  20  21
ATOM     21  C   UNL     1       4.396  -0.030  22.445  0.00  0.00    +0.255 C 
BRANCH  21   4
ATOM      4  O   UNL     1       5.417   0.343  23.347  0.00  0.00    -0.374 OA
ATOM     22  C   UNL     1       5.548  -0.592  24.415  0.00  0.00    +0.194 C 
ENDBRANCH  21   4
ENDBRANCH  20  21
ENDBRANCH  19   7
BRANCH  11   9
ATOM      9  C   UNL     1      -3.342   0.602  24.543  0.00  0.00    +0.167 C 
BRANCH   9   8
ATOM      1  O   UNL     1      -5.851   1.882  25.367  0.00  0.00    -0.369 OA
ATOM      3  O   UNL     1      -3.587   4.220  26.933  0.00  0.00    -0.273 OA
ATOM      6  N   UNL     1      -3.331   3.036  24.946  0.00  0.00    -0.295 N 
ATOM      8  C   UNL     1      -3.842   1.971  24.074  0.00  0.00    +0.134 C 
ATOM     10  C   UNL     1      -5.365   2.016  24.036  0.00  0.00    +0.185 C 
ATOM     12  C   UNL     1      -4.034   3.461  26.071  0.00  0.00    +0.241 C 
ATOM     13  C   UNL     1      -5.483   2.993  26.152  0.00  0.00    +0.255 C 
ATOM     14  C   UNL     1      -1.974   3.509  24.704  0.00  0.00    +0.132 C 
ENDBRANCH   9   8
BRANCH   9   2
ATOM      2  O   UNL     1      -3.451   0.522  25.961  0.00  0.00    -0.385 OA
ATOM     23  H   UNL     1      -4.392   0.517  26.200  0.00  0.00    +0.210 HD
ENDBRANCH   9   2
ENDBRANCH  11   9
TORSDOF 6
ENDMDL
MODEL 9
REMARK VINA RESULT:      -1.7     18.953     20.332
REMARK  Name = 56774893
REMARK  8 active torsions:
REMARK  status: ('A' for Active; 'I' for Inactive)
REMARK    1  A    between atoms: O_2  and  C_9
REMARK    2  A    between atoms: O_4  and  C_21
REMARK    3  A    between atoms: O_4  and  C_22
REMARK    4  A    between atoms: N_6  and  C_14
REMARK    5  A    between atoms: N_7  and  C_19
REMARK    6  A    between atoms: C_8  and  C_9
REMARK    7  A    between atoms: C_9  and  C_11
REMARK    8  A    between atoms: C_20  and  C_21
REMARK                            x       y       z     vdW  Elec       q    Type
REMARK                         _______ _______ _______ _____ _____    ______ ____
ROOT
ATOM     11  C   UNL     1      16.251  -6.018  30.145  0.00  0.00    -0.017 A 
ATOM     15  C   UNL     1      15.090  -6.228  29.401  0.00  0.00    +0.008 A 
ATOM     16  C   UNL     1      17.318  -6.911  30.039  0.00  0.00    +0.008 A 
ATOM     17  C   UNL     1      14.996  -7.330  28.551  0.00  0.00    +0.023 A 
ATOM     18  C   UNL     1      17.225  -8.012  29.189  0.00  0.00    +0.023 A 
ATOM     19  C   UNL     1      16.064  -8.222  28.445  0.00  0.00    +0.033 A 
ENDROOT
BRANCH  19   7
ATOM      5  O   UNL     1      16.435  -8.426  25.465  0.00  0.00    -0.273 OA
ATOM      7  N   UNL     1      15.970  -9.324  27.594  0.00  0.00    -0.284 N 
ATOM     20  C   UNL     1      16.156  -9.364  26.206  0.00  0.00    +0.243 C 
ATOM     24  H   UNL     1      15.736 -10.204  28.049  0.00  0.00    +0.155 HD
BRANCH  20  21
ATOM     21  C   UNL     1      15.966 -10.757  25.644  0.00  0.00    +0.255 C 
BRANCH  21   4
ATOM      4  O   UNL     1      15.072 -10.688  24.551  0.00  0.00    -0.374 OA
ATOM     22  C   UNL     1      13.713 -10.748  24.975  0.00  0.00    +0.194 C 
ENDBRANCH  21   4
ENDBRANCH  20  21
ENDBRANCH  19   7
BRANCH  11   9
ATOM      9  C   UNL     1      16.351  -4.828  31.065  0.00  0.00    +0.167 C 
BRANCH   9   8
ATOM      1  O   UNL     1      13.583  -4.824  32.038  0.00  0.00    -0.369 OA
ATOM      3  O   UNL     1      14.176  -8.376  32.308  0.00  0.00    -0.273 OA
ATOM      6  N   UNL     1      15.661  -6.612  32.623  0.00  0.00    -0.295 N 
ATOM      8  C   UNL     1      15.905  -5.171  32.490  0.00  0.00    +0.134 C 
ATOM     10  C   UNL     1      14.652  -4.393  32.874  0.00  0.00    +0.185 C 
ATOM     12  C   UNL     1      14.406  -7.167  32.382  0.00  0.00    +0.241 C 
ATOM     13  C   UNL     1      13.256  -6.171  32.292  0.00  0.00    +0.255 C 
ATOM     14  C   UNL     1      16.818  -7.472  32.838  0.00  0.00    +0.132 C 
ENDBRANCH   9   8
BRANCH   9   2
ATOM      2  O   UNL     1      15.544  -3.769  30.561  0.00  0.00    -0.385 OA
ATOM     23  H   UNL     1      15.123  -4.064  29.737  0.00  0.00    +0.210 HD
ENDBRANCH   9   2
ENDBRANCH  11   9
TORSDOF 6
ENDMDL
