MODEL 1
REMARK VINA RESULT:      -3.1      0.000      0.000
REMARK  Name = 45361609
REMARK  10 active torsions:
REMARK  status: ('A' for Active; 'I' for Inactive)
REMARK    1  A    between atoms: O_1  and  C_11
REMARK    2  A    between atoms: N_5  and  C_15
REMARK    3  A    between atoms: N_6  and  C_25
REMARK    4  A    between atoms: C_8  and  C_18
REMARK    5  A    between atoms: C_10  and  C_20
REMARK    6  A    between atoms: C_14  and  C_19
REMARK    7  A    between atoms: C_19  and  C_21
REMARK    8  A    between atoms: C_19  and  C_22
REMARK    9  A    between atoms: C_23  and  C_24
REMARK   10  A    between atoms: C_25  and  C_27
REMARK                            x       y       z     vdW  Elec       q    Type
REMARK                         _______ _______ _______ _____ _____    ______ ____
ROOT
ATOM      8  C   UNL     1      -2.917  -1.321  24.863  0.00  0.00    -0.027 C 
ATOM      9  C   UNL     1      -2.524   0.028  24.174  0.00  0.00    +0.028 C 
ATOM     10  C   UNL     1      -0.977   0.281  24.279  0.00  0.00    +0.012 C 
ATOM     11  C   UNL     1      -3.427   1.196  24.666  0.00  0.00    +0.122 C 
ATOM     12  C   UNL     1      -4.424  -1.593  24.644  0.00  0.00    +0.007 C 
ATOM     13  C   UNL     1      -2.129  -2.474  24.200  0.00  0.00    +0.009 C 
ATOM     14  C   UNL     1      -4.935   0.876  24.539  0.00  0.00    +0.029 C 
ATOM     15  C   UNL     1      -0.194  -0.920  23.678  0.00  0.00    +0.076 C 
ATOM     16  C   UNL     1      -5.313  -0.469  25.159  0.00  0.00    +0.007 C 
ATOM     17  C   UNL     1      -0.621  -2.272  24.249  0.00  0.00    +0.023 C 
ATOM     18  C   UNL     1      -2.629  -1.316  26.386  0.00  0.00    +0.011 C 
ATOM     20  C   UNL     1      -0.517   1.579  23.595  0.00  0.00    +0.010 C 
ENDROOT
BRANCH  15   5
ATOM      3  O   UNL     1       1.728  -0.192  21.673  0.00  0.00    -0.269 OA
ATOM      5  N   UNL     1       1.235  -0.775  23.862  0.00  0.00    -0.307 N 
ATOM     23  C   UNL     1       2.082  -0.419  22.826  0.00  0.00    +0.263 C 
ATOM     34  H   UNL     1       1.629  -1.000  24.771  0.00  0.00    +0.149 HD
BRANCH  23  24
ATOM      7  N   UNL     1       4.062  -1.454  23.711  0.00  0.00    -0.250 NA
ATOM     24  C   UNL     1       3.524  -0.337  23.173  0.00  0.00    +0.125 A 
ATOM     26  C   UNL     1       4.233   0.830  22.939  0.00  0.00    +0.033 A 
ATOM     28  C   UNL     1       5.581   0.853  23.280  0.00  0.00    +0.004 A 
ATOM     29  C   UNL     1       5.375  -1.395  24.030  0.00  0.00    +0.111 A 
ATOM     31  C   UNL     1       6.171  -0.276  23.836  0.00  0.00    +0.020 A 
ENDBRANCH  23  24
ENDBRANCH  15   5
BRANCH  11   1
ATOM      1  O   UNL     1      -3.186   2.354  23.864  0.00  0.00    -0.391 OA
ATOM     35  H   UNL     1      -3.163   2.077  22.933  0.00  0.00    +0.210 HD
ENDBRANCH  11   1
BRANCH  14  19
ATOM     19  C   UNL     1      -5.804   1.983  25.149  0.00  0.00    +0.077 C 
ATOM     21  C   UNL     1      -7.076   2.165  24.330  0.00  0.00    +0.017 C 
BRANCH  19  22
ATOM      2  O   UNL     1      -4.981   4.106  24.321  0.00  0.00    -0.276 OA
ATOM      6  N   UNL     1      -4.329   3.413  26.438  0.00  0.00    -0.308 N 
ATOM     22  C   UNL     1      -5.006   3.282  25.234  0.00  0.00    +0.217 C 
ATOM     36  H   UNL     1      -4.385   2.668  27.126  0.00  0.00    +0.149 HD
BRANCH   6  25
ATOM     25  C   UNL     1      -3.507   4.558  26.750  0.00  0.00    +0.178 C 
BRANCH  25  27
ATOM      4  O   UNL     1      -1.394   3.487  26.203  0.00  0.00    -0.466 OA
ATOM     27  C   UNL     1      -2.215   4.547  25.983  0.00  0.00    +0.122 A 
ATOM     30  C   UNL     1      -1.657   5.409  25.067  0.00  0.00    +0.046 A 
ATOM     32  C   UNL     1      -0.413   4.842  24.702  0.00  0.00    +0.041 A 
ATOM     33  C   UNL     1      -0.300   3.674  25.421  0.00  0.00    +0.195 A 
ENDBRANCH  25  27
ENDBRANCH   6  25
ENDBRANCH  19  22
ENDBRANCH  14  19
TORSDOF 7
ENDMDL
