MODEL 1
REMARK VINA RESULT:      -2.6      0.000      0.000
REMARK  Name = 28963145
REMARK  11 active torsions:
REMARK  status: ('A' for Active; 'I' for Inactive)
REMARK    1  A    between atoms: O_2  and  C_11
REMARK    2  A    between atoms: N_5  and  C_15
REMARK    3  A    between atoms: N_6  and  C_24
REMARK    4  A    between atoms: N_7  and  C_25
REMARK    5  A    between atoms: C_8  and  C_18
REMARK    6  A    between atoms: C_10  and  C_20
REMARK    7  A    between atoms: C_14  and  C_19
REMARK    8  A    between atoms: C_19  and  C_21
REMARK    9  A    between atoms: C_19  and  C_22
REMARK   10  A    between atoms: C_24  and  C_26
REMARK   11  A    between atoms: C_25  and  C_27
REMARK                            x       y       z     vdW  Elec       q    Type
REMARK                         _______ _______ _______ _____ _____    ______ ____
ROOT
ATOM      8  C   UNL     1      -2.153  -0.732  25.034  0.00  0.00    -0.027 C 
ATOM      9  C   UNL     1      -2.376   0.440  24.021  0.00  0.00    +0.028 C 
ATOM     10  C   UNL     1      -1.022   1.175  23.710  0.00  0.00    +0.012 C 
ATOM     11  C   UNL     1      -3.546   1.361  24.472  0.00  0.00    +0.122 C 
ATOM     12  C   UNL     1      -3.480  -1.502  25.231  0.00  0.00    +0.007 C 
ATOM     13  C   UNL     1      -1.119  -1.719  24.444  0.00  0.00    +0.009 C 
ATOM     14  C   UNL     1      -4.843   0.571  24.767  0.00  0.00    +0.029 C 
ATOM     15  C   UNL     1       0.034   0.160  23.188  0.00  0.00    +0.078 C 
ATOM     16  C   UNL     1      -4.619  -0.611  25.711  0.00  0.00    +0.007 C 
ATOM     17  C   UNL     1       0.208  -1.058  24.097  0.00  0.00    +0.023 C 
ATOM     18  C   UNL     1      -1.656  -0.237  26.416  0.00  0.00    +0.011 C 
ATOM     20  C   UNL     1      -1.163   2.323  22.696  0.00  0.00    +0.010 C 
ENDROOT
BRANCH  15   5
ATOM      4  O   UNL     1       2.600  -1.157  23.121  0.00  0.00    -0.253 OA
ATOM      5  N   UNL     1       1.328   0.781  23.001  0.00  0.00    -0.296 N 
ATOM      7  N   UNL     1       3.611   0.904  22.788  0.00  0.00    -0.300 N 
ATOM     23  C   UNL     1       2.519   0.062  22.983  0.00  0.00    +0.300 C 
ATOM     33  H   UNL     1       1.376   1.794  22.960  0.00  0.00    +0.151 HD
ATOM     36  H   UNL     1       3.445   1.899  22.671  0.00  0.00    +0.150 HD
BRANCH   7  25
ATOM     25  C   UNL     1       4.970   0.422  22.727  0.00  0.00    +0.102 C 
ATOM     27  C   UNL     1       5.487   0.046  24.100  0.00  0.00    +0.024 C 
ENDBRANCH   7  25
ENDBRANCH  15   5
BRANCH  11   2
ATOM      2  O   UNL     1      -3.859   2.282  23.426  0.00  0.00    -0.391 OA
ATOM     34  H   UNL     1      -4.708   2.016  23.034  0.00  0.00    +0.210 HD
ENDBRANCH  11   2
BRANCH  14  19
ATOM     19  C   UNL     1      -5.943   1.476  25.335  0.00  0.00    +0.077 C 
ATOM     21  C   UNL     1      -7.074   1.623  24.323  0.00  0.00    +0.017 C 
BRANCH  19  22
ATOM      3  O   UNL     1      -5.852   3.900  25.289  0.00  0.00    -0.276 OA
ATOM      6  N   UNL     1      -4.293   2.751  26.564  0.00  0.00    -0.311 N 
ATOM     22  C   UNL     1      -5.383   2.844  25.709  0.00  0.00    +0.216 C 
ATOM     35  H   UNL     1      -3.986   1.841  26.893  0.00  0.00    +0.149 HD
BRANCH   6  24
ATOM     24  C   UNL     1      -3.593   3.906  27.048  0.00  0.00    +0.139 C 
BRANCH  24  26
ATOM      1  F   UNL     1       0.667   5.365  23.667  0.00  0.00    -0.205 F 
ATOM     26  C   UNL     1      -2.458   4.295  26.147  0.00  0.00    -0.030 A 
ATOM     28  C   UNL     1      -1.288   3.535  26.131  0.00  0.00    +0.008 A 
ATOM     29  C   UNL     1      -2.572   5.416  25.325  0.00  0.00    +0.008 A 
ATOM     30  C   UNL     1      -0.233   3.896  25.294  0.00  0.00    +0.038 A 
ATOM     31  C   UNL     1      -1.517   5.778  24.487  0.00  0.00    +0.038 A 
ATOM     32  C   UNL     1      -0.347   5.018  24.472  0.00  0.00    +0.123 A 
ENDBRANCH  24  26
ENDBRANCH   6  24
ENDBRANCH  19  22
ENDBRANCH  14  19
TORSDOF 7
ENDMDL
MODEL 2
REMARK VINA RESULT:       0.6      2.400      4.312
REMARK  Name = 28963145
REMARK  11 active torsions:
REMARK  status: ('A' for Active; 'I' for Inactive)
REMARK    1  A    between atoms: O_2  and  C_11
REMARK    2  A    between atoms: N_5  and  C_15
REMARK    3  A    between atoms: N_6  and  C_24
REMARK    4  A    between atoms: N_7  and  C_25
REMARK    5  A    between atoms: C_8  and  C_18
REMARK    6  A    between atoms: C_10  and  C_20
REMARK    7  A    between atoms: C_14  and  C_19
REMARK    8  A    between atoms: C_19  and  C_21
REMARK    9  A    between atoms: C_19  and  C_22
REMARK   10  A    between atoms: C_24  and  C_26
REMARK   11  A    between atoms: C_25  and  C_27
REMARK                            x       y       z     vdW  Elec       q    Type
REMARK                         _______ _______ _______ _____ _____    ______ ____
ROOT
ATOM      8  C   UNL     1      -2.305   1.803  22.519  0.00  0.00    -0.027 C 
ATOM      9  C   UNL     1      -1.566   2.302  23.806  0.00  0.00    +0.028 C 
ATOM     10  C   UNL     1      -0.480   1.263  24.264  0.00  0.00    +0.012 C 
ATOM     11  C   UNL     1      -2.578   2.738  24.904  0.00  0.00    +0.122 C 
ATOM     12  C   UNL     1      -3.285   2.895  22.032  0.00  0.00    +0.007 C 
ATOM     13  C   UNL     1      -1.265   1.569  21.399  0.00  0.00    +0.009 C 
ATOM     14  C   UNL     1      -3.620   3.754  24.381  0.00  0.00    +0.029 C 
ATOM     15  C   UNL     1       0.517   0.979  23.105  0.00  0.00    +0.078 C 
ATOM     16  C   UNL     1      -4.303   3.298  23.091  0.00  0.00    +0.007 C 
ATOM     17  C   UNL     1      -0.170   0.589  21.795  0.00  0.00    +0.023 C 
ATOM     18  C   UNL     1      -3.099   0.494  22.760  0.00  0.00    +0.011 C 
ATOM     20  C   UNL     1       0.307   1.704  25.510  0.00  0.00    +0.010 C 
ENDROOT
BRANCH  15   5
ATOM      4  O   UNL     1       3.366   1.000  22.657  0.00  0.00    -0.253 OA
ATOM      5  N   UNL     1       1.462  -0.061  23.454  0.00  0.00    -0.296 N 
ATOM      7  N   UNL     1       3.502  -1.099  23.634  0.00  0.00    -0.300 N 
ATOM     23  C   UNL     1       2.826   0.037  23.197  0.00  0.00    +0.300 C 
ATOM     33  H   UNL     1       1.104  -0.932  23.831  0.00  0.00    +0.151 HD
ATOM     36  H   UNL     1       2.971  -1.841  24.083  0.00  0.00    +0.150 HD
BRANCH   7  25
ATOM     25  C   UNL     1       4.929  -1.264  23.493  0.00  0.00    +0.102 C 
ATOM     27  C   UNL     1       5.688  -0.224  24.290  0.00  0.00    +0.024 C 
ENDBRANCH   7  25
ENDBRANCH  15   5
BRANCH  11   2
ATOM      2  O   UNL     1      -1.878   3.383  25.968  0.00  0.00    -0.391 OA
ATOM     34  H   UNL     1      -2.349   3.195  26.797  0.00  0.00    +0.210 HD
ENDBRANCH  11   2
BRANCH  14  19
ATOM     19  C   UNL     1      -4.685   4.071  25.439  0.00  0.00    +0.077 C 
ATOM     21  C   UNL     1      -4.063   4.856  26.589  0.00  0.00    +0.017 C 
BRANCH  19  22
ATOM      3  O   UNL     1      -6.245   2.790  26.784  0.00  0.00    -0.276 OA
ATOM      6  N   UNL     1      -4.779   1.653  25.393  0.00  0.00    -0.311 N 
ATOM     22  C   UNL     1      -5.336   2.794  25.956  0.00  0.00    +0.216 C 
ATOM     35  H   UNL     1      -4.052   1.742  24.690  0.00  0.00    +0.149 HD
BRANCH   6  24
ATOM     24  C   UNL     1      -5.223   0.331  25.731  0.00  0.00    +0.139 C 
BRANCH  24  26
ATOM      1  F   UNL     1      -1.539  -3.608  24.116  0.00  0.00    -0.205 F 
ATOM     26  C   UNL     1      -4.241  -0.719  25.301  0.00  0.00    -0.030 A 
ATOM     28  C   UNL     1      -4.593  -1.640  24.314  0.00  0.00    +0.008 A 
ATOM     29  C   UNL     1      -2.977  -0.773  25.886  0.00  0.00    +0.008 A 
ATOM     30  C   UNL     1      -3.681  -2.617  23.914  0.00  0.00    +0.038 A 
ATOM     31  C   UNL     1      -2.063  -1.749  25.487  0.00  0.00    +0.038 A 
ATOM     32  C   UNL     1      -2.416  -2.672  24.501  0.00  0.00    +0.123 A 
ENDBRANCH  24  26
ENDBRANCH   6  24
ENDBRANCH  19  22
ENDBRANCH  14  19
TORSDOF 7
ENDMDL
