MODEL 1
REMARK VINA RESULT:       0.5      0.000      0.000
REMARK  Name = 51136658
REMARK  8 active torsions:
REMARK  status: ('A' for Active; 'I' for Inactive)
REMARK    1  A    between atoms: O_2  and  C_18
REMARK    2  A    between atoms: O_5  and  C_26
REMARK    3  A    between atoms: O_5  and  C_30
REMARK    4  A    between atoms: C_8  and  C_12
REMARK    5  A    between atoms: C_9  and  C_14
REMARK    6  A    between atoms: C_12  and  C_15
REMARK    7  A    between atoms: C_14  and  C_18
REMARK    8  A    between atoms: C_16  and  C_22
REMARK                            x       y       z     vdW  Elec       q    Type
REMARK                         _______ _______ _______ _____ _____    ______ ____
ROOT
ATOM      1  O   UNL     1      -1.765  -3.013  23.434  0.00  0.00    -0.267 OA
ATOM      6  N   UNL     1      -0.419  -1.375  24.422  0.00  0.00    -0.295 N 
ATOM      8  C   UNL     1       0.441   0.956  24.472  0.00  0.00    +0.016 C 
ATOM      9  C   UNL     1       1.775   0.435  23.878  0.00  0.00    +0.006 C 
ATOM     10  C   UNL     1       1.565  -0.849  23.060  0.00  0.00    +0.023 C 
ATOM     11  C   UNL     1      -0.263  -0.171  25.250  0.00  0.00    +0.112 C 
ATOM     13  C   UNL     1       0.826  -1.908  23.873  0.00  0.00    +0.108 C 
ATOM     16  C   UNL     1      -1.629  -2.010  24.133  0.00  0.00    +0.282 C 
ENDROOT
BRANCH  16  22
ATOM      4  O   UNL     1      -3.923  -1.281  23.872  0.00  0.00    -0.458 OA
ATOM     22  C   UNL     1      -2.858  -1.446  24.700  0.00  0.00    +0.189 A 
ATOM     27  C   UNL     1      -3.167  -1.027  25.973  0.00  0.00    +0.054 A 
ATOM     28  C   UNL     1      -4.508  -0.577  25.924  0.00  0.00    +0.042 A 
ATOM     29  C   UNL     1      -4.923  -0.752  24.624  0.00  0.00    +0.196 A 
ENDBRANCH  16  22
BRANCH   8  12
ATOM     12  C   UNL     1      -0.511   1.559  23.431  0.00  0.00    +0.061 C 
BRANCH  12  15
ATOM      7  N   UNL     1      -0.189   3.891  23.914  0.00  0.00    -0.287 NA
ATOM     15  C   UNL     1      -1.018   2.898  23.914  0.00  0.00    +0.044 C 
ATOM     17  C   UNL     1      -2.427   3.008  24.367  0.00  0.00    -0.001 A 
ATOM     19  C   UNL     1      -2.752   4.121  25.153  0.00  0.00    -0.033 A 
ATOM     20  C   UNL     1      -1.670   5.104  25.492  0.00  0.00    +0.059 C 
ATOM     21  C   UNL     1      -0.697   5.204  24.325  0.00  0.00    +0.146 C 
ATOM     23  C   UNL     1      -3.398   2.056  24.053  0.00  0.00    +0.013 A 
ATOM     24  C   UNL     1      -4.052   4.262  25.646  0.00  0.00    +0.050 A 
ATOM     25  C   UNL     1      -4.697   2.214  24.535  0.00  0.00    +0.046 A 
ATOM     26  C   UNL     1      -5.024   3.312  25.332  0.00  0.00    +0.120 A 
BRANCH  26   5
ATOM      5  O   UNL     1      -6.291   3.455  25.807  0.00  0.00    -0.495 OA
ATOM     30  C   UNL     1      -6.871   2.325  26.457  0.00  0.00    +0.277 C 
ENDBRANCH  26   5
ENDBRANCH  12  15
ENDBRANCH   8  12
BRANCH   9  14
ATOM     14  C   UNL     1       2.514   1.488  23.052  0.00  0.00    +0.124 C 
BRANCH  14  18
ATOM      3  O   UNL     1       4.848   0.907  23.457  0.00  0.00    -0.251 OA
ATOM     18  C   UNL     1       3.902   1.034  22.693  0.00  0.00    +0.305 C 
BRANCH  18   2
ATOM      2  O   UNL     1       3.969   0.776  21.361  0.00  0.00    -0.481 OA
ATOM     31  H   UNL     1       3.850  -0.179  21.168  0.00  0.00    +0.295 HD
ENDBRANCH  18   2
ENDBRANCH  14  18
ENDBRANCH   9  14
TORSDOF 7
ENDMDL
MODEL 2
REMARK VINA RESULT:       0.8      1.747      5.331
REMARK  Name = 51136658
REMARK  8 active torsions:
REMARK  status: ('A' for Active; 'I' for Inactive)
REMARK    1  A    between atoms: O_2  and  C_18
REMARK    2  A    between atoms: O_5  and  C_26
REMARK    3  A    between atoms: O_5  and  C_30
REMARK    4  A    between atoms: C_8  and  C_12
REMARK    5  A    between atoms: C_9  and  C_14
REMARK    6  A    between atoms: C_12  and  C_15
REMARK    7  A    between atoms: C_14  and  C_18
REMARK    8  A    between atoms: C_16  and  C_22
REMARK                            x       y       z     vdW  Elec       q    Type
REMARK                         _______ _______ _______ _____ _____    ______ ____
ROOT
ATOM      1  O   UNL     1      -3.874   5.115  26.239  0.00  0.00    -0.267 OA
ATOM      6  N   UNL     1      -2.686   3.800  24.713  0.00  0.00    -0.295 N 
ATOM      8  C   UNL     1      -1.279   1.809  24.231  0.00  0.00    +0.016 C 
ATOM      9  C   UNL     1      -0.048   2.748  24.147  0.00  0.00    +0.006 C 
ATOM     10  C   UNL     1      -0.248   4.018  24.990  0.00  0.00    +0.023 C 
ATOM     11  C   UNL     1      -2.560   2.591  23.887  0.00  0.00    +0.112 C 
ATOM     13  C   UNL     1      -1.554   4.721  24.631  0.00  0.00    +0.108 C 
ATOM     16  C   UNL     1      -3.768   4.108  25.541  0.00  0.00    +0.282 C 
ENDROOT
BRANCH  16  22
ATOM      4  O   UNL     1      -5.462   2.931  26.809  0.00  0.00    -0.458 OA
ATOM     22  C   UNL     1      -4.885   3.160  25.599  0.00  0.00    +0.189 A 
ATOM     27  C   UNL     1      -5.502   2.416  24.622  0.00  0.00    +0.054 A 
ATOM     28  C   UNL     1      -6.524   1.682  25.272  0.00  0.00    +0.042 A 
ATOM     29  C   UNL     1      -6.457   2.031  26.601  0.00  0.00    +0.196 A 
ENDBRANCH  16  22
BRANCH   8  12
ATOM     12  C   UNL     1      -1.433   1.104  25.585  0.00  0.00    +0.061 C 
BRANCH  12  15
ATOM      7  N   UNL     1      -0.227  -0.971  25.705  0.00  0.00    -0.287 NA
ATOM     15  C   UNL     1      -1.342  -0.392  25.398  0.00  0.00    +0.044 C 
ATOM     17  C   UNL     1      -2.523  -1.119  24.868  0.00  0.00    -0.001 A 
ATOM     19  C   UNL     1      -2.294  -2.400  24.348  0.00  0.00    -0.033 A 
ATOM     20  C   UNL     1      -0.894  -2.938  24.346  0.00  0.00    +0.059 C 
ATOM     21  C   UNL     1      -0.159  -2.431  25.580  0.00  0.00    +0.146 C 
ATOM     23  C   UNL     1      -3.807  -0.572  24.863  0.00  0.00    +0.013 A 
ATOM     24  C   UNL     1      -3.357  -3.121  23.797  0.00  0.00    +0.050 A 
ATOM     25  C   UNL     1      -4.865  -1.306  24.326  0.00  0.00    +0.046 A 
ATOM     26  C   UNL     1      -4.641  -2.576  23.792  0.00  0.00    +0.120 A 
BRANCH  26   5
ATOM      5  O   UNL     1      -5.677  -3.283  23.262  0.00  0.00    -0.495 OA
ATOM     30  C   UNL     1      -5.389  -4.104  22.131  0.00  0.00    +0.277 C 
ENDBRANCH  26   5
ENDBRANCH  12  15
ENDBRANCH   8  12
BRANCH   9  14
ATOM     14  C   UNL     1       1.262   2.053  24.519  0.00  0.00    +0.124 C 
BRANCH  14  18
ATOM      3  O   UNL     1       1.026   0.229  22.918  0.00  0.00    -0.251 OA
ATOM     18  C   UNL     1       1.705   1.097  23.446  0.00  0.00    +0.305 C 
BRANCH  18   2
ATOM      2  O   UNL     1       3.005   1.335  23.130  0.00  0.00    -0.481 OA
ATOM     31  H   UNL     1       3.456   1.871  23.818  0.00  0.00    +0.295 HD
ENDBRANCH  18   2
ENDBRANCH  14  18
ENDBRANCH   9  14
TORSDOF 7
ENDMDL
MODEL 3
REMARK VINA RESULT:       0.9      2.092      6.143
REMARK  Name = 51136658
REMARK  8 active torsions:
REMARK  status: ('A' for Active; 'I' for Inactive)
REMARK    1  A    between atoms: O_2  and  C_18
REMARK    2  A    between atoms: O_5  and  C_26
REMARK    3  A    between atoms: O_5  and  C_30
REMARK    4  A    between atoms: C_8  and  C_12
REMARK    5  A    between atoms: C_9  and  C_14
REMARK    6  A    between atoms: C_12  and  C_15
REMARK    7  A    between atoms: C_14  and  C_18
REMARK    8  A    between atoms: C_16  and  C_22
REMARK                            x       y       z     vdW  Elec       q    Type
REMARK                         _______ _______ _______ _____ _____    ______ ____
ROOT
ATOM      1  O   UNL     1      -6.088   0.813  26.172  0.00  0.00    -0.267 OA
ATOM      6  N   UNL     1      -4.579   1.946  24.790  0.00  0.00    -0.295 N 
ATOM      8  C   UNL     1      -2.270   2.735  24.320  0.00  0.00    +0.016 C 
ATOM      9  C   UNL     1      -2.711   4.158  24.748  0.00  0.00    +0.006 C 
ATOM     10  C   UNL     1      -3.887   4.112  25.737  0.00  0.00    +0.023 C 
ATOM     11  C   UNL     1      -3.484   1.940  23.808  0.00  0.00    +0.112 C 
ATOM     13  C   UNL     1      -5.039   3.274  25.188  0.00  0.00    +0.108 C 
ATOM     16  C   UNL     1      -5.176   0.812  25.346  0.00  0.00    +0.282 C 
ENDROOT
BRANCH  16  22
ATOM      4  O   UNL     1      -4.083  -1.287  25.855  0.00  0.00    -0.458 OA
ATOM     22  C   UNL     1      -4.688  -0.504  24.923  0.00  0.00    +0.189 A 
ATOM     27  C   UNL     1      -4.723  -1.142  23.705  0.00  0.00    +0.054 A 
ATOM     28  C   UNL     1      -4.099  -2.398  23.901  0.00  0.00    +0.042 A 
ATOM     29  C   UNL     1      -3.727  -2.436  25.225  0.00  0.00    +0.196 A 
ENDBRANCH  16  22
BRANCH   8  12
ATOM     12  C   UNL     1      -1.546   1.950  25.423  0.00  0.00    +0.061 C 
BRANCH  12  15
ATOM      7  N   UNL     1      -1.667  -0.413  25.008  0.00  0.00    -0.287 NA
ATOM     15  C   UNL     1      -0.979   0.671  24.855  0.00  0.00    +0.044 C 
ATOM     17  C   UNL     1       0.332   0.717  24.160  0.00  0.00    -0.001 A 
ATOM     19  C   UNL     1       1.001  -0.503  23.994  0.00  0.00    -0.033 A 
ATOM     20  C   UNL     1       0.368  -1.752  24.534  0.00  0.00    +0.059 C 
ATOM     21  C   UNL     1      -1.146  -1.644  24.404  0.00  0.00    +0.146 C 
ATOM     23  C   UNL     1       0.900   1.904  23.696  0.00  0.00    +0.013 A 
ATOM     24  C   UNL     1       2.258  -0.523  23.384  0.00  0.00    +0.050 A 
ATOM     25  C   UNL     1       2.148   1.873  23.074  0.00  0.00    +0.046 A 
ATOM     26  C   UNL     1       2.827   0.663  22.920  0.00  0.00    +0.120 A 
BRANCH  26   5
ATOM      5  O   UNL     1       4.048   0.641  22.318  0.00  0.00    -0.495 OA
ATOM     30  C   UNL     1       5.157   0.233  23.119  0.00  0.00    +0.277 C 
ENDBRANCH  26   5
ENDBRANCH  12  15
ENDBRANCH   8  12
BRANCH   9  14
ATOM     14  C   UNL     1      -1.564   4.998  25.310  0.00  0.00    +0.124 C 
BRANCH  14  18
ATOM      3  O   UNL     1       0.060   4.988  23.492  0.00  0.00    -0.251 OA
ATOM     18  C   UNL     1      -0.261   4.682  24.631  0.00  0.00    +0.305 C 
BRANCH  18   2
ATOM      2  O   UNL     1       0.539   3.986  25.479  0.00  0.00    -0.481 OA
ATOM     31  H   UNL     1       0.804   3.119  25.104  0.00  0.00    +0.295 HD
ENDBRANCH  18   2
ENDBRANCH  14  18
ENDBRANCH   9  14
TORSDOF 7
ENDMDL
MODEL 4
REMARK VINA RESULT:       1.1      1.684      6.357
REMARK  Name = 51136658
REMARK  8 active torsions:
REMARK  status: ('A' for Active; 'I' for Inactive)
REMARK    1  A    between atoms: O_2  and  C_18
REMARK    2  A    between atoms: O_5  and  C_26
REMARK    3  A    between atoms: O_5  and  C_30
REMARK    4  A    between atoms: C_8  and  C_12
REMARK    5  A    between atoms: C_9  and  C_14
REMARK    6  A    between atoms: C_12  and  C_15
REMARK    7  A    between atoms: C_14  and  C_18
REMARK    8  A    between atoms: C_16  and  C_22
REMARK                            x       y       z     vdW  Elec       q    Type
REMARK                         _______ _______ _______ _____ _____    ______ ____
ROOT
ATOM      1  O   UNL     1      -6.008   2.756  23.976  0.00  0.00    -0.267 OA
ATOM      6  N   UNL     1      -4.890   1.023  25.079  0.00  0.00    -0.295 N 
ATOM      8  C   UNL     1      -3.025  -0.617  25.170  0.00  0.00    +0.016 C 
ATOM      9  C   UNL     1      -4.033  -1.726  24.771  0.00  0.00    +0.006 C 
ATOM     10  C   UNL     1      -5.216  -1.154  23.973  0.00  0.00    +0.023 C 
ATOM     11  C   UNL     1      -3.762   0.530  25.883  0.00  0.00    +0.112 C 
ATOM     13  C   UNL     1      -5.874   0.006  24.715  0.00  0.00    +0.108 C 
ATOM     16  C   UNL     1      -5.070   2.341  24.654  0.00  0.00    +0.282 C 
ENDROOT
BRANCH  16  22
ATOM      4  O   UNL     1      -4.008   3.713  26.343  0.00  0.00    -0.458 OA
ATOM     22  C   UNL     1      -4.062   3.334  25.038  0.00  0.00    +0.189 A 
ATOM     27  C   UNL     1      -3.105   3.994  24.305  0.00  0.00    +0.054 A 
ATOM     28  C   UNL     1      -2.419   4.833  25.215  0.00  0.00    +0.042 A 
ATOM     29  C   UNL     1      -3.006   4.625  26.442  0.00  0.00    +0.196 A 
ENDBRANCH  16  22
BRANCH   8  12
ATOM     12  C   UNL     1      -2.203  -0.072  23.995  0.00  0.00    +0.061 C 
BRANCH  12  15
ATOM      7  N   UNL     1      -1.298   1.560  25.508  0.00  0.00    -0.287 NA
ATOM     15  C   UNL     1      -1.060   0.768  24.514  0.00  0.00    +0.044 C 
ATOM     17  C   UNL     1       0.268   0.651  23.861  0.00  0.00    -0.001 A 
ATOM     19  C   UNL     1       1.179   1.690  24.093  0.00  0.00    -0.033 A 
ATOM     20  C   UNL     1       0.755   2.840  24.958  0.00  0.00    +0.059 C 
ATOM     21  C   UNL     1      -0.175   2.331  26.051  0.00  0.00    +0.146 C 
ATOM     23  C   UNL     1       0.614  -0.423  23.040  0.00  0.00    +0.013 A 
ATOM     24  C   UNL     1       2.432   1.660  23.474  0.00  0.00    +0.050 A 
ATOM     25  C   UNL     1       1.873  -0.453  22.439  0.00  0.00    +0.046 A 
ATOM     26  C   UNL     1       2.779   0.587  22.654  0.00  0.00    +0.120 A 
BRANCH  26   5
ATOM      5  O   UNL     1       4.003   0.556  22.058  0.00  0.00    -0.495 OA
ATOM     30  C   UNL     1       5.121   0.246  22.890  0.00  0.00    +0.277 C 
ENDBRANCH  26   5
ENDBRANCH  12  15
ENDBRANCH   8  12
BRANCH   9  14
ATOM     14  C   UNL     1      -3.382  -2.885  24.017  0.00  0.00    +0.124 C 
BRANCH  14  18
ATOM      3  O   UNL     1      -1.404  -2.851  25.442  0.00  0.00    -0.251 OA
ATOM     18  C   UNL     1      -1.920  -3.008  24.345  0.00  0.00    +0.305 C 
BRANCH  18   2
ATOM      2  O   UNL     1      -1.224  -3.327  23.223  0.00  0.00    -0.481 OA
ATOM     31  H   UNL     1      -0.305  -3.601  23.428  0.00  0.00    +0.295 HD
ENDBRANCH  18   2
ENDBRANCH  14  18
ENDBRANCH   9  14
TORSDOF 7
ENDMDL
MODEL 5
REMARK VINA RESULT:       3.9      1.538      6.250
REMARK  Name = 51136658
REMARK  8 active torsions:
REMARK  status: ('A' for Active; 'I' for Inactive)
REMARK    1  A    between atoms: O_2  and  C_18
REMARK    2  A    between atoms: O_5  and  C_26
REMARK    3  A    between atoms: O_5  and  C_30
REMARK    4  A    between atoms: C_8  and  C_12
REMARK    5  A    between atoms: C_9  and  C_14
REMARK    6  A    between atoms: C_12  and  C_15
REMARK    7  A    between atoms: C_14  and  C_18
REMARK    8  A    between atoms: C_16  and  C_22
REMARK                            x       y       z     vdW  Elec       q    Type
REMARK                         _______ _______ _______ _____ _____    ______ ____
ROOT
ATOM      1  O   UNL     1      -4.326  -2.301  25.880  0.00  0.00    -0.267 OA
ATOM      6  N   UNL     1      -4.129  -0.506  24.393  0.00  0.00    -0.295 N 
ATOM      8  C   UNL     1      -3.401   1.822  23.919  0.00  0.00    +0.016 C 
ATOM      9  C   UNL     1      -4.883   2.264  24.017  0.00  0.00    +0.006 C 
ATOM     10  C   UNL     1      -5.695   1.321  24.919  0.00  0.00    +0.023 C 
ATOM     11  C   UNL     1      -3.321   0.342  23.505  0.00  0.00    +0.112 C 
ATOM     13  C   UNL     1      -5.539  -0.133  24.482  0.00  0.00    +0.108 C 
ATOM     16  C   UNL     1      -3.655  -1.593  25.130  0.00  0.00    +0.282 C 
ENDROOT
BRANCH  16  22
ATOM      4  O   UNL     1      -1.378  -1.416  25.936  0.00  0.00    -0.458 OA
ATOM     22  C   UNL     1      -2.234  -1.937  25.017  0.00  0.00    +0.189 A 
ATOM     27  C   UNL     1      -1.555  -2.727  24.119  0.00  0.00    +0.054 A 
ATOM     28  C   UNL     1      -0.195  -2.688  24.511  0.00  0.00    +0.042 A 
ATOM     29  C   UNL     1      -0.140  -1.877  25.620  0.00  0.00    +0.196 A 
ENDBRANCH  16  22
BRANCH   8  12
ATOM     12  C   UNL     1      -2.593   2.061  25.202  0.00  0.00    +0.061 C 
BRANCH  12  15
ATOM      7  N   UNL     1      -1.516   4.208  25.192  0.00  0.00    -0.287 NA
ATOM     15  C   UNL     1      -1.410   2.951  24.906  0.00  0.00    +0.044 C 
ATOM     17  C   UNL     1      -0.196   2.349  24.300  0.00  0.00    -0.001 A 
ATOM     19  C   UNL     1       0.708   3.229  23.691  0.00  0.00    -0.033 A 
ATOM     20  C   UNL     1       0.389   4.695  23.678  0.00  0.00    +0.059 C 
ATOM     21  C   UNL     1      -0.346   5.062  24.960  0.00  0.00    +0.146 C 
ATOM     23  C   UNL     1       0.051   0.976  24.310  0.00  0.00    +0.013 A 
ATOM     24  C   UNL     1       1.851   2.722  23.067  0.00  0.00    +0.050 A 
ATOM     25  C   UNL     1       1.203   0.480  23.698  0.00  0.00    +0.046 A 
ATOM     26  C   UNL     1       2.100   1.349  23.076  0.00  0.00    +0.120 A 
BRANCH  26   5
ATOM      5  O   UNL     1       3.217   0.858  22.474  0.00  0.00    -0.495 OA
ATOM     30  C   UNL     1       4.272   0.417  23.328  0.00  0.00    +0.277 C 
ENDBRANCH  26   5
ENDBRANCH  12  15
ENDBRANCH   8  12
BRANCH   9  14
ATOM     14  C   UNL     1      -5.047   3.716  24.467  0.00  0.00    +0.124 C 
BRANCH  14  18
ATOM      3  O   UNL     1      -5.513   3.083  26.775  0.00  0.00    -0.251 OA
ATOM     18  C   UNL     1      -5.715   3.807  25.811  0.00  0.00    +0.305 C 
BRANCH  18   2
ATOM      2  O   UNL     1      -6.603   4.836  25.812  0.00  0.00    -0.481 OA
ATOM     31  H   UNL     1      -7.125   4.867  26.642  0.00  0.00    +0.295 HD
ENDBRANCH  18   2
ENDBRANCH  14  18
ENDBRANCH   9  14
TORSDOF 7
ENDMDL
MODEL 6
REMARK VINA RESULT:       4.0      2.339      7.417
REMARK  Name = 51136658
REMARK  8 active torsions:
REMARK  status: ('A' for Active; 'I' for Inactive)
REMARK    1  A    between atoms: O_2  and  C_18
REMARK    2  A    between atoms: O_5  and  C_26
REMARK    3  A    between atoms: O_5  and  C_30
REMARK    4  A    between atoms: C_8  and  C_12
REMARK    5  A    between atoms: C_9  and  C_14
REMARK    6  A    between atoms: C_12  and  C_15
REMARK    7  A    between atoms: C_14  and  C_18
REMARK    8  A    between atoms: C_16  and  C_22
REMARK                            x       y       z     vdW  Elec       q    Type
REMARK                         _______ _______ _______ _____ _____    ______ ____
ROOT
ATOM      1  O   UNL     1      -1.132   5.771  24.697  0.00  0.00    -0.267 OA
ATOM      6  N   UNL     1      -2.761   4.525  25.823  0.00  0.00    -0.295 N 
ATOM      8  C   UNL     1      -4.423   2.678  25.840  0.00  0.00    +0.016 C 
ATOM      9  C   UNL     1      -5.545   3.739  25.707  0.00  0.00    +0.006 C 
ATOM     10  C   UNL     1      -5.036   5.016  25.019  0.00  0.00    +0.023 C 
ATOM     11  C   UNL     1      -3.188   3.301  26.516  0.00  0.00    +0.112 C 
ATOM     13  C   UNL     1      -3.788   5.558  25.710  0.00  0.00    +0.108 C 
ATOM     16  C   UNL     1      -1.492   4.751  25.284  0.00  0.00    +0.282 C 
ENDROOT
BRANCH  16  22
ATOM      4  O   UNL     1      -0.428   3.014  26.593  0.00  0.00    -0.458 OA
ATOM     22  C   UNL     1      -0.487   3.692  25.415  0.00  0.00    +0.189 A 
ATOM     27  C   UNL     1       0.460   3.218  24.539  0.00  0.00    +0.054 A 
ATOM     28  C   UNL     1       1.145   2.183  25.220  0.00  0.00    +0.042 A 
ATOM     29  C   UNL     1       0.567   2.099  26.465  0.00  0.00    +0.196 A 
ENDBRANCH  16  22
BRANCH   8  12
ATOM     12  C   UNL     1      -4.028   2.020  24.511  0.00  0.00    +0.061 C 
BRANCH  12  15
ATOM      7  N   UNL     1      -4.084  -0.161  25.517  0.00  0.00    -0.287 NA
ATOM     15  C   UNL     1      -3.421   0.662  24.772  0.00  0.00    +0.044 C 
ATOM     17  C   UNL     1      -2.102   0.341  24.171  0.00  0.00    -0.001 A 
ATOM     19  C   UNL     1      -1.401  -0.736  24.727  0.00  0.00    -0.033 A 
ATOM     20  C   UNL     1      -2.010  -1.473  25.884  0.00  0.00    +0.059 C 
ATOM     21  C   UNL     1      -3.524  -1.501  25.721  0.00  0.00    +0.146 C 
ATOM     23  C   UNL     1      -1.558   1.069  23.112  0.00  0.00    +0.013 A 
ATOM     24  C   UNL     1      -0.135  -1.065  24.233  0.00  0.00    +0.050 A 
ATOM     25  C   UNL     1      -0.300   0.723  22.614  0.00  0.00    +0.046 A 
ATOM     26  C   UNL     1       0.410  -0.339  23.175  0.00  0.00    +0.120 A 
BRANCH  26   5
ATOM      5  O   UNL     1       1.640  -0.665  22.690  0.00  0.00    -0.495 OA
ATOM     30  C   UNL     1       2.611   0.380  22.630  0.00  0.00    +0.277 C 
ENDBRANCH  26   5
ENDBRANCH  12  15
ENDBRANCH   8  12
BRANCH   9  14
ATOM     14  C   UNL     1      -6.794   3.207  25.003  0.00  0.00    +0.124 C 
BRANCH  14  18
ATOM      3  O   UNL     1      -6.980   0.898  24.243  0.00  0.00    -0.251 OA
ATOM     18  C   UNL     1      -6.918   1.716  25.149  0.00  0.00    +0.305 C 
BRANCH  18   2
ATOM      2  O   UNL     1      -6.953   1.387  26.467  0.00  0.00    -0.481 OA
ATOM     31  H   UNL     1      -6.058   1.185  26.816  0.00  0.00    +0.295 HD
ENDBRANCH  18   2
ENDBRANCH  14  18
ENDBRANCH   9  14
TORSDOF 7
ENDMDL
MODEL 7
REMARK VINA RESULT:       4.2      2.411      6.026
REMARK  Name = 51136658
REMARK  8 active torsions:
REMARK  status: ('A' for Active; 'I' for Inactive)
REMARK    1  A    between atoms: O_2  and  C_18
REMARK    2  A    between atoms: O_5  and  C_26
REMARK    3  A    between atoms: O_5  and  C_30
REMARK    4  A    between atoms: C_8  and  C_12
REMARK    5  A    between atoms: C_9  and  C_14
REMARK    6  A    between atoms: C_12  and  C_15
REMARK    7  A    between atoms: C_14  and  C_18
REMARK    8  A    between atoms: C_16  and  C_22
REMARK                            x       y       z     vdW  Elec       q    Type
REMARK                         _______ _______ _______ _____ _____    ______ ____
ROOT
ATOM      1  O   UNL     1      -1.323  -2.506  24.145  0.00  0.00    -0.267 OA
ATOM      6  N   UNL     1      -2.757  -0.742  23.594  0.00  0.00    -0.295 N 
ATOM      8  C   UNL     1      -3.925   1.357  24.230  0.00  0.00    +0.016 C 
ATOM      9  C   UNL     1      -5.234   0.539  24.373  0.00  0.00    +0.006 C 
ATOM     10  C   UNL     1      -4.946  -0.934  24.707  0.00  0.00    +0.023 C 
ATOM     11  C   UNL     1      -2.980   0.665  23.231  0.00  0.00    +0.112 C 
ATOM     13  C   UNL     1      -3.971  -1.547  23.706  0.00  0.00    +0.108 C 
ATOM     16  C   UNL     1      -1.513  -1.331  23.835  0.00  0.00    +0.282 C 
ENDROOT
BRANCH  16  22
ATOM      4  O   UNL     1       0.549  -0.762  22.702  0.00  0.00    -0.458 OA
ATOM     22  C   UNL     1      -0.317  -0.492  23.715  0.00  0.00    +0.189 A 
ATOM     27  C   UNL     1       0.130   0.573  24.460  0.00  0.00    +0.054 A 
ATOM     28  C   UNL     1       1.348   0.985  23.869  0.00  0.00    +0.042 A 
ATOM     29  C   UNL     1       1.559   0.141  22.803  0.00  0.00    +0.196 A 
ENDBRANCH  16  22
BRANCH   8  12
ATOM     12  C   UNL     1      -3.201   1.611  25.559  0.00  0.00    +0.061 C 
BRANCH  12  15
ATOM      7  N   UNL     1      -2.612   3.729  24.590  0.00  0.00    -0.287 NA
ATOM     15  C   UNL     1      -2.276   2.797  25.421  0.00  0.00    +0.044 C 
ATOM     17  C   UNL     1      -1.033   2.832  26.232  0.00  0.00    -0.001 A 
ATOM     19  C   UNL     1      -0.031   3.716  25.812  0.00  0.00    -0.033 A 
ATOM     20  C   UNL     1      -0.268   4.544  24.583  0.00  0.00    +0.059 C 
ATOM     21  C   UNL     1      -1.744   4.909  24.500  0.00  0.00    +0.146 C 
ATOM     23  C   UNL     1      -0.840   2.025  27.354  0.00  0.00    +0.013 A 
ATOM     24  C   UNL     1       1.180   3.768  26.509  0.00  0.00    +0.050 A 
ATOM     25  C   UNL     1       0.365   2.095  28.053  0.00  0.00    +0.046 A 
ATOM     26  C   UNL     1       1.374   2.962  27.630  0.00  0.00    +0.120 A 
BRANCH  26   5
ATOM      5  O   UNL     1       2.551   3.020  28.312  0.00  0.00    -0.495 OA
ATOM     30  C   UNL     1       2.602   2.355  29.574  0.00  0.00    +0.277 C 
ENDBRANCH  26   5
ENDBRANCH  12  15
ENDBRANCH   8  12
BRANCH   9  14
ATOM     14  C   UNL     1      -6.210   1.141  25.385  0.00  0.00    +0.124 C 
BRANCH  14  18
ATOM      3  O   UNL     1      -5.797   3.441  24.689  0.00  0.00    -0.251 OA
ATOM     18  C   UNL     1      -5.975   2.614  25.571  0.00  0.00    +0.305 C 
BRANCH  18   2
ATOM      2  O   UNL     1      -5.986   2.915  26.896  0.00  0.00    -0.481 OA
ATOM     31  H   UNL     1      -6.354   3.808  27.065  0.00  0.00    +0.295 HD
ENDBRANCH  18   2
ENDBRANCH  14  18
ENDBRANCH   9  14
TORSDOF 7
ENDMDL
