MODEL 1
REMARK VINA RESULT:       7.7      0.000      0.000
REMARK  Name = 7164957
REMARK  7 active torsions:
REMARK  status: ('A' for Active; 'I' for Inactive)
REMARK    1  A    between atoms: N_7  and  C_18
REMARK    2  A    between atoms: C_11  and  C_14
REMARK    3  A    between atoms: C_14  and  C_18
REMARK    4  A    between atoms: C_18  and  C_24
REMARK    5  A    between atoms: C_19  and  C_21
REMARK    6  A    between atoms: C_25  and  C_27
REMARK    7  A    between atoms: C_26  and  C_28
REMARK                            x       y       z     vdW  Elec       q    Type
REMARK                         _______ _______ _______ _____ _____    ______ ____
ROOT
ATOM      5  O   UNL     1       2.437   3.967  27.188  0.00  0.00    -0.269 OA
ATOM      6  O   UNL     1      -2.689   2.637  22.845  0.00  0.00    -0.270 OA
ATOM      8  N   UNL     1       0.286   3.252  26.693  0.00  0.00    -0.283 N 
ATOM      9  N   UNL     1      -1.862   3.513  24.847  0.00  0.00    -0.294 N 
ATOM     19  C   UNL     1       0.518   3.001  25.264  0.00  0.00    +0.179 C 
ATOM     20  C   UNL     1      -0.499   3.683  24.349  0.00  0.00    +0.140 C 
ATOM     22  C   UNL     1      -1.114   3.195  27.157  0.00  0.00    +0.128 C 
ATOM     23  C   UNL     1      -2.050   3.957  26.228  0.00  0.00    +0.127 C 
ATOM     25  C   UNL     1       1.402   3.403  27.547  0.00  0.00    +0.254 C 
ATOM     26  C   UNL     1      -2.854   3.008  24.005  0.00  0.00    +0.247 C 
ENDROOT
BRANCH  26  28
ATOM      2  F   UNL     1      -6.836   4.994  25.922  0.00  0.00    -0.205 F 
ATOM     28  C   UNL     1      -4.217   2.886  24.540  0.00  0.00    +0.040 A 
ATOM     30  C   UNL     1      -4.890   4.021  24.985  0.00  0.00    +0.051 A 
ATOM     31  C   UNL     1      -4.829   1.636  24.599  0.00  0.00    +0.013 A 
ATOM     34  C   UNL     1      -6.184   3.905  25.494  0.00  0.00    +0.124 A 
ATOM     35  C   UNL     1      -6.122   1.520  25.108  0.00  0.00    +0.004 A 
ATOM     36  C   UNL     1      -6.800   2.655  25.555  0.00  0.00    +0.038 A 
ENDBRANCH  26  28
BRANCH  25  27
ATOM      1  S   UNL     1       2.583   1.917  29.512  0.00  0.00    -0.092 S 
ATOM     27  C   UNL     1       1.296   2.859  28.897  0.00  0.00    +0.074 A 
ATOM     29  C   UNL     1       0.267   2.993  29.798  0.00  0.00    +0.021 A 
ATOM     32  C   UNL     1       0.539   2.310  31.019  0.00  0.00    +0.008 A 
ATOM     33  C   UNL     1       1.765   1.683  30.998  0.00  0.00    +0.046 A 
ENDBRANCH  25  27
BRANCH  19  21
ATOM      3  O   UNL     1       0.119   0.761  25.995  0.00  0.00    -0.274 OA
ATOM      7  N   UNL     1       0.966   1.114  23.855  0.00  0.00    -0.302 N 
ATOM     21  C   UNL     1       0.498   1.509  25.097  0.00  0.00    +0.236 C 
ATOM     37  H   UNL     1       1.316   1.817  23.211  0.00  0.00    +0.150 HD
BRANCH   7  18
ATOM     18  C   UNL     1       1.070  -0.271  23.453  0.00  0.00    +0.159 C 
BRANCH  18  24
ATOM      4  O   UNL     1       1.903  -0.457  21.178  0.00  0.00    -0.274 OA
ATOM     10  N   UNL     1       3.420  -0.448  22.903  0.00  0.00    -0.328 N 
ATOM     24  C   UNL     1       2.146  -0.389  22.381  0.00  0.00    +0.231 C 
ATOM     38  H   UNL     1       3.605  -0.411  23.900  0.00  0.00    +0.145 HD
ATOM     39  H   UNL     1       4.228  -0.536  22.295  0.00  0.00    +0.145 HD
ENDBRANCH  18  24
BRANCH  18  14
ATOM     14  C   UNL     1      -0.278  -0.848  23.010  0.00  0.00    +0.035 C 
BRANCH  14  11
ATOM     11  C   UNL     1      -1.133  -1.390  24.153  0.00  0.00    -0.009 C 
ATOM     12  C   UNL     1      -1.761  -2.737  23.768  0.00  0.00    +0.003 C 
ATOM     13  C   UNL     1      -2.216  -0.377  24.548  0.00  0.00    +0.003 C 
ATOM     15  C   UNL     1      -2.666  -3.275  24.874  0.00  0.00    +0.000 C 
ATOM     16  C   UNL     1      -3.119  -0.918  25.652  0.00  0.00    +0.000 C 
ATOM     17  C   UNL     1      -3.734  -2.261  25.269  0.00  0.00    +0.000 C 
ENDBRANCH  14  11
ENDBRANCH  18  14
ENDBRANCH   7  18
ENDBRANCH  19  21
TORSDOF 7
ENDMDL
MODEL 2
REMARK VINA RESULT:      10.2      1.499      3.335
REMARK  Name = 7164957
REMARK  7 active torsions:
REMARK  status: ('A' for Active; 'I' for Inactive)
REMARK    1  A    between atoms: N_7  and  C_18
REMARK    2  A    between atoms: C_11  and  C_14
REMARK    3  A    between atoms: C_14  and  C_18
REMARK    4  A    between atoms: C_18  and  C_24
REMARK    5  A    between atoms: C_19  and  C_21
REMARK    6  A    between atoms: C_25  and  C_27
REMARK    7  A    between atoms: C_26  and  C_28
REMARK                            x       y       z     vdW  Elec       q    Type
REMARK                         _______ _______ _______ _____ _____    ______ ____
ROOT
ATOM      5  O   UNL     1       2.456   3.536  26.822  0.00  0.00    -0.269 OA
ATOM      6  O   UNL     1      -2.953   2.322  22.799  0.00  0.00    -0.270 OA
ATOM      8  N   UNL     1       0.229   2.988  26.470  0.00  0.00    -0.283 N 
ATOM      9  N   UNL     1      -1.964   3.288  24.682  0.00  0.00    -0.294 N 
ATOM     19  C   UNL     1       0.375   2.591  25.062  0.00  0.00    +0.179 C 
ATOM     20  C   UNL     1      -0.614   3.284  24.124  0.00  0.00    +0.140 C 
ATOM     22  C   UNL     1      -1.149   3.104  26.985  0.00  0.00    +0.128 C 
ATOM     23  C   UNL     1      -2.051   3.868  26.023  0.00  0.00    +0.127 C 
ATOM     25  C   UNL     1       1.390   3.106  27.267  0.00  0.00    +0.254 C 
ATOM     26  C   UNL     1      -3.033   2.808  23.926  0.00  0.00    +0.247 C 
ENDROOT
BRANCH  26  28
ATOM      2  F   UNL     1      -6.723   5.322  25.806  0.00  0.00    -0.205 F 
ATOM     28  C   UNL     1      -4.377   2.863  24.516  0.00  0.00    +0.040 A 
ATOM     30  C   UNL     1      -4.920   4.090  24.887  0.00  0.00    +0.051 A 
ATOM     31  C   UNL     1      -5.101   1.688  24.702  0.00  0.00    +0.013 A 
ATOM     34  C   UNL     1      -6.197   4.143  25.448  0.00  0.00    +0.124 A 
ATOM     35  C   UNL     1      -6.377   1.740  25.264  0.00  0.00    +0.004 A 
ATOM     36  C   UNL     1      -6.925   2.968  25.636  0.00  0.00    +0.038 A 
ENDBRANCH  26  28
BRANCH  25  27
ATOM      1  S   UNL     1       2.645   1.958  29.404  0.00  0.00    -0.092 S 
ATOM     27  C   UNL     1       1.292   2.695  28.664  0.00  0.00    +0.074 A 
ATOM     29  C   UNL     1       0.226   2.816  29.521  0.00  0.00    +0.021 A 
ATOM     32  C   UNL     1       0.522   2.293  30.813  0.00  0.00    +0.008 A 
ATOM     33  C   UNL     1       1.804   1.795  30.887  0.00  0.00    +0.046 A 
ENDBRANCH  25  27
BRANCH  19  21
ATOM      3  O   UNL     1       0.053   0.444  26.061  0.00  0.00    -0.274 OA
ATOM      7  N   UNL     1       0.284   0.588  23.748  0.00  0.00    -0.302 N 
ATOM     21  C   UNL     1       0.211   1.098  25.033  0.00  0.00    +0.236 C 
ATOM     37  H   UNL     1       0.483   1.217  22.975  0.00  0.00    +0.150 HD
BRANCH   7  18
ATOM     18  C   UNL     1       0.180  -0.823  23.451  0.00  0.00    +0.159 C 
BRANCH  18  24
ATOM      4  O   UNL     1      -1.751  -1.495  24.763  0.00  0.00    -0.274 OA
ATOM     10  N   UNL     1       0.336  -2.137  25.477  0.00  0.00    -0.328 N 
ATOM     24  C   UNL     1      -0.532  -1.515  24.606  0.00  0.00    +0.231 C 
ATOM     38  H   UNL     1       1.342  -2.129  25.345  0.00  0.00    +0.145 HD
ATOM     39  H   UNL     1      -0.011  -2.629  26.294  0.00  0.00    +0.145 HD
ENDBRANCH  18  24
BRANCH  18  14
ATOM     14  C   UNL     1       1.542  -1.449  23.131  0.00  0.00    +0.035 C 
BRANCH  14  11
ATOM     11  C   UNL     1       2.737  -0.577  23.511  0.00  0.00    -0.009 C 
ATOM     12  C   UNL     1       3.097   0.378  22.364  0.00  0.00    +0.003 C 
ATOM     13  C   UNL     1       3.942  -1.447  23.896  0.00  0.00    +0.003 C 
ATOM     15  C   UNL     1       4.324   1.223  22.699  0.00  0.00    +0.000 C 
ATOM     16  C   UNL     1       5.166  -0.598  24.227  0.00  0.00    +0.000 C 
ATOM     17  C   UNL     1       5.515   0.355  23.089  0.00  0.00    +0.000 C 
ENDBRANCH  14  11
ENDBRANCH  18  14
ENDBRANCH   7  18
ENDBRANCH  19  21
TORSDOF 7
ENDMDL
MODEL 3
REMARK VINA RESULT:      10.3      3.406      7.594
REMARK  Name = 7164957
REMARK  7 active torsions:
REMARK  status: ('A' for Active; 'I' for Inactive)
REMARK    1  A    between atoms: N_7  and  C_18
REMARK    2  A    between atoms: C_11  and  C_14
REMARK    3  A    between atoms: C_14  and  C_18
REMARK    4  A    between atoms: C_18  and  C_24
REMARK    5  A    between atoms: C_19  and  C_21
REMARK    6  A    between atoms: C_25  and  C_27
REMARK    7  A    between atoms: C_26  and  C_28
REMARK                            x       y       z     vdW  Elec       q    Type
REMARK                         _______ _______ _______ _____ _____    ______ ____
ROOT
ATOM      5  O   UNL     1      -3.617  -0.120  22.746  0.00  0.00    -0.269 OA
ATOM      6  O   UNL     1       2.773   2.325  23.094  0.00  0.00    -0.270 OA
ATOM      8  N   UNL     1      -1.385  -0.259  23.368  0.00  0.00    -0.283 N 
ATOM      9  N   UNL     1       1.248   0.596  22.713  0.00  0.00    -0.294 N 
ATOM     19  C   UNL     1      -1.090   1.177  23.258  0.00  0.00    +0.179 C 
ATOM     20  C   UNL     1       0.134   1.486  22.396  0.00  0.00    +0.140 C 
ATOM     22  C   UNL     1      -0.232  -1.159  23.568  0.00  0.00    +0.128 C 
ATOM     23  C   UNL     1       0.916  -0.826  22.624  0.00  0.00    +0.127 C 
ATOM     25  C   UNL     1      -2.736  -0.675  23.404  0.00  0.00    +0.254 C 
ATOM     26  C   UNL     1       2.501   1.128  23.020  0.00  0.00    +0.247 C 
ENDROOT
BRANCH  26  28
ATOM      2  F   UNL     1       7.233   0.139  23.333  0.00  0.00    -0.205 F 
ATOM     28  C   UNL     1       3.598   0.193  23.300  0.00  0.00    +0.040 A 
ATOM     30  C   UNL     1       4.919   0.620  23.181  0.00  0.00    +0.051 A 
ATOM     31  C   UNL     1       3.314  -1.115  23.684  0.00  0.00    +0.013 A 
ATOM     34  C   UNL     1       5.962  -0.268  23.446  0.00  0.00    +0.124 A 
ATOM     35  C   UNL     1       4.357  -2.003  23.949  0.00  0.00    +0.004 A 
ATOM     36  C   UNL     1       5.681  -1.579  23.830  0.00  0.00    +0.038 A 
ENDBRANCH  26  28
BRANCH  25  27
ATOM      1  S   UNL     1      -2.936  -1.624  25.958  0.00  0.00    -0.092 S 
ATOM     27  C   UNL     1      -3.068  -1.807  24.263  0.00  0.00    +0.074 A 
ATOM     29  C   UNL     1      -3.494  -3.062  23.903  0.00  0.00    +0.021 A 
ATOM     32  C   UNL     1      -3.717  -3.893  25.039  0.00  0.00    +0.008 A 
ATOM     33  C   UNL     1      -3.451  -3.236  26.220  0.00  0.00    +0.046 A 
ENDBRANCH  25  27
BRANCH  19  21
ATOM      3  O   UNL     1      -0.698   0.907  25.599  0.00  0.00    -0.274 OA
ATOM      7  N   UNL     1      -1.054   3.048  24.756  0.00  0.00    -0.302 N 
ATOM     21  C   UNL     1      -0.916   1.673  24.664  0.00  0.00    +0.236 C 
ATOM     37  H   UNL     1      -1.300   3.578  23.924  0.00  0.00    +0.150 HD
BRANCH   7  18
ATOM     18  C   UNL     1      -0.955   3.771  26.003  0.00  0.00    +0.159 C 
BRANCH  18  24
ATOM      4  O   UNL     1      -0.334   2.710  28.099  0.00  0.00    -0.274 OA
ATOM     10  N   UNL     1       1.181   2.694  26.372  0.00  0.00    -0.328 N 
ATOM     24  C   UNL     1      -0.036   3.001  26.943  0.00  0.00    +0.231 C 
ATOM     38  H   UNL     1       1.421   2.957  25.423  0.00  0.00    +0.145 HD
ATOM     39  H   UNL     1       1.888   2.188  26.896  0.00  0.00    +0.145 HD
ENDBRANCH  18  24
BRANCH  18  14
ATOM     14  C   UNL     1      -2.329   4.057  26.617  0.00  0.00    +0.035 C 
BRANCH  14  11
ATOM     11  C   UNL     1      -3.507   3.654  25.732  0.00  0.00    -0.009 C 
ATOM     12  C   UNL     1      -4.769   4.437  26.120  0.00  0.00    +0.003 C 
ATOM     13  C   UNL     1      -3.756   2.142  25.815  0.00  0.00    +0.003 C 
ATOM     15  C   UNL     1      -5.975   4.013  25.284  0.00  0.00    +0.000 C 
ATOM     16  C   UNL     1      -4.962   1.722  24.980  0.00  0.00    +0.000 C 
ATOM     17  C   UNL     1      -6.212   2.508  25.363  0.00  0.00    +0.000 C 
ENDBRANCH  14  11
ENDBRANCH  18  14
ENDBRANCH   7  18
ENDBRANCH  19  21
TORSDOF 7
ENDMDL
MODEL 4
REMARK VINA RESULT:      11.6      3.646      6.772
REMARK  Name = 7164957
REMARK  7 active torsions:
REMARK  status: ('A' for Active; 'I' for Inactive)
REMARK    1  A    between atoms: N_7  and  C_18
REMARK    2  A    between atoms: C_11  and  C_14
REMARK    3  A    between atoms: C_14  and  C_18
REMARK    4  A    between atoms: C_18  and  C_24
REMARK    5  A    between atoms: C_19  and  C_21
REMARK    6  A    between atoms: C_25  and  C_27
REMARK    7  A    between atoms: C_26  and  C_28
REMARK                            x       y       z     vdW  Elec       q    Type
REMARK                         _______ _______ _______ _____ _____    ______ ____
ROOT
ATOM      5  O   UNL     1      -2.709   4.415  26.993  0.00  0.00    -0.269 OA
ATOM      6  O   UNL     1       0.173  -1.320  24.598  0.00  0.00    -0.270 OA
ATOM      8  N   UNL     1      -1.544   3.204  25.392  0.00  0.00    -0.283 N 
ATOM      9  N   UNL     1       0.188   0.984  24.990  0.00  0.00    -0.294 N 
ATOM     19  C   UNL     1      -1.943   1.871  25.867  0.00  0.00    +0.179 C 
ATOM     20  C   UNL     1      -0.765   0.924  26.095  0.00  0.00    +0.140 C 
ATOM     22  C   UNL     1      -0.491   3.251  24.359  0.00  0.00    +0.128 C 
ATOM     23  C   UNL     1       0.675   2.332  24.698  0.00  0.00    +0.127 C 
ATOM     25  C   UNL     1      -2.265   4.332  25.847  0.00  0.00    +0.254 C 
ATOM     26  C   UNL     1       0.587  -0.189  24.348  0.00  0.00    +0.247 C 
ENDROOT
BRANCH  26  28
ATOM      2  F   UNL     1       5.060   0.827  22.788  0.00  0.00    -0.205 F 
ATOM     28  C   UNL     1       1.572  -0.083  23.264  0.00  0.00    +0.040 A 
ATOM     30  C   UNL     1       2.872   0.330  23.549  0.00  0.00    +0.051 A 
ATOM     31  C   UNL     1       1.203  -0.395  21.958  0.00  0.00    +0.013 A 
ATOM     34  C   UNL     1       3.808   0.431  22.519  0.00  0.00    +0.124 A 
ATOM     35  C   UNL     1       2.139  -0.293  20.929  0.00  0.00    +0.004 A 
ATOM     36  C   UNL     1       3.442   0.120  21.210  0.00  0.00    +0.038 A 
ENDBRANCH  26  28
BRANCH  25  27
ATOM      1  S   UNL     1      -3.775   5.314  23.793  0.00  0.00    -0.092 S 
ATOM     27  C   UNL     1      -2.477   5.421  24.900  0.00  0.00    +0.074 A 
ATOM     29  C   UNL     1      -1.757   6.582  24.752  0.00  0.00    +0.021 A 
ATOM     32  C   UNL     1      -2.280   7.402  23.710  0.00  0.00    +0.008 A 
ATOM     33  C   UNL     1      -3.378   6.831  23.106  0.00  0.00    +0.046 A 
ENDBRANCH  25  27
BRANCH  19  21
ATOM      3  O   UNL     1      -2.499   0.745  23.833  0.00  0.00    -0.274 OA
ATOM      7  N   UNL     1      -4.216   1.600  25.154  0.00  0.00    -0.302 N 
ATOM     21  C   UNL     1      -2.895   1.333  24.837  0.00  0.00    +0.236 C 
ATOM     37  H   UNL     1      -4.425   2.153  25.981  0.00  0.00    +0.150 HD
BRANCH   7  18
ATOM     18  C   UNL     1      -5.325   1.209  24.314  0.00  0.00    +0.159 C 
BRANCH  18  24
ATOM      4  O   UNL     1      -7.681   1.801  24.266  0.00  0.00    -0.274 OA
ATOM     10  N   UNL     1      -6.314   2.870  25.771  0.00  0.00    -0.328 N 
ATOM     24  C   UNL     1      -6.570   1.962  24.765  0.00  0.00    +0.231 C 
ATOM     38  H   UNL     1      -5.387   3.006  26.160  0.00  0.00    +0.145 HD
ATOM     39  H   UNL     1      -7.058   3.442  26.156  0.00  0.00    +0.145 HD
ENDBRANCH  18  24
BRANCH  18  14
ATOM     14  C   UNL     1      -5.525  -0.310  24.289  0.00  0.00    +0.035 C 
BRANCH  14  11
ATOM     11  C   UNL     1      -4.234  -1.114  24.432  0.00  0.00    -0.009 C 
ATOM     12  C   UNL     1      -4.344  -2.451  23.687  0.00  0.00    +0.003 C 
ATOM     13  C   UNL     1      -3.897  -1.340  25.912  0.00  0.00    +0.003 C 
ATOM     15  C   UNL     1      -3.084  -3.298  23.860  0.00  0.00    +0.000 C 
ATOM     16  C   UNL     1      -2.640  -2.187  26.081  0.00  0.00    +0.000 C 
ATOM     17  C   UNL     1      -2.749  -3.512  25.332  0.00  0.00    +0.000 C 
ENDBRANCH  14  11
ENDBRANCH  18  14
ENDBRANCH   7  18
ENDBRANCH  19  21
TORSDOF 7
ENDMDL
