MODEL 1
REMARK VINA RESULT:       0.4      0.000      0.000
REMARK  Name = 26742466
REMARK  6 active torsions:
REMARK  status: ('A' for Active; 'I' for Inactive)
REMARK    1  A    between atoms: N_4  and  C_15
REMARK    2  A    between atoms: N_6  and  C_18
REMARK    3  A    between atoms: C_9  and  C_16
REMARK    4  A    between atoms: C_10  and  C_15
REMARK    5  A    between atoms: C_20  and  C_27
REMARK    6  A    between atoms: C_23  and  C_28
REMARK                            x       y       z     vdW  Elec       q    Type
REMARK                         _______ _______ _______ _____ _____    ______ ____
ROOT
ATOM      3  N   UNL     1      -2.898  -2.230  23.829  0.00  0.00    -0.297 NA
ATOM      8  C   UNL     1      -2.847  -1.118  26.184  0.00  0.00    +0.002 C 
ATOM      9  C   UNL     1      -3.948  -0.469  25.300  0.00  0.00    +0.055 C 
ATOM     10  C   UNL     1      -1.506  -1.840  24.177  0.00  0.00    +0.074 C 
ATOM     11  C   UNL     1      -1.483  -0.998  25.470  0.00  0.00    +0.024 C 
ATOM     12  C   UNL     1      -3.179  -2.623  26.275  0.00  0.00    +0.019 C 
ATOM     13  C   UNL     1      -3.783  -1.038  23.861  0.00  0.00    +0.094 C 
ATOM     14  C   UNL     1      -3.372  -3.186  24.857  0.00  0.00    +0.085 C 
ENDROOT
BRANCH   9  16
ATOM      5  N   UNL     1      -5.308   1.551  25.534  0.00  0.00    -0.237 NA
ATOM      7  N   UNL     1      -4.366   3.761  25.340  0.00  0.00    -0.229 NA
ATOM     16  C   UNL     1      -4.076   1.047  25.310  0.00  0.00    +0.050 A 
ATOM     17  C   UNL     1      -2.956   1.825  25.096  0.00  0.00    +0.055 A 
ATOM     20  C   UNL     1      -3.163   3.189  25.122  0.00  0.00    +0.110 A 
ATOM     23  C   UNL     1      -5.379   2.896  25.536  0.00  0.00    +0.127 A 
ATOM     28  C   UNL     1      -6.724   3.491  25.780  0.00  0.00    +0.088 C 
BRANCH  20  27
ATOM      2  O   UNL     1      -0.985   3.604  24.298  0.00  0.00    -0.461 OA
ATOM     27  C   UNL     1      -2.083   4.116  24.913  0.00  0.00    +0.153 A 
ATOM     29  C   UNL     1      -1.898   5.449  25.202  0.00  0.00    +0.051 A 
ATOM     30  C   UNL     1      -0.603   5.776  24.734  0.00  0.00    +0.042 A 
ATOM     31  C   UNL     1      -0.089   4.621  24.193  0.00  0.00    +0.196 A 
ENDBRANCH  20  27
ENDBRANCH   9  16
BRANCH  10  15
ATOM     15  C   UNL     1      -0.793  -1.132  23.023  0.00  0.00    +0.124 C 
BRANCH  15   4
ATOM      1  O   UNL     1       1.520  -0.540  21.421  0.00  0.00    -0.253 OA
ATOM      4  N   UNL     1       0.425  -0.529  23.468  0.00  0.00    -0.298 N 
ATOM      6  N   UNL     1       2.568   0.319  23.305  0.00  0.00    -0.297 N 
ATOM     19  C   UNL     1       1.510  -0.273  22.621  0.00  0.00    +0.300 C 
ATOM     32  H   UNL     1       0.508  -0.276  24.448  0.00  0.00    +0.150 HD
ATOM     33  H   UNL     1       2.482   0.428  24.311  0.00  0.00    +0.151 HD
BRANCH   6  18
ATOM     18  C   UNL     1       3.813   0.688  22.669  0.00  0.00    +0.074 C 
ATOM     21  C   UNL     1       4.697   1.502  23.621  0.00  0.00    +0.022 C 
ATOM     22  C   UNL     1       4.553  -0.548  22.146  0.00  0.00    +0.022 C 
ATOM     24  C   UNL     1       5.288   0.649  24.743  0.00  0.00    +0.002 C 
ATOM     25  C   UNL     1       5.143  -1.397  23.272  0.00  0.00    +0.002 C 
ATOM     26  C   UNL     1       6.028  -0.567  24.197  0.00  0.00    +0.000 C 
ENDBRANCH   6  18
ENDBRANCH  15   4
ENDBRANCH  10  15
TORSDOF 5
ENDMDL
MODEL 2
REMARK VINA RESULT:       2.7      1.860      6.731
REMARK  Name = 26742466
REMARK  6 active torsions:
REMARK  status: ('A' for Active; 'I' for Inactive)
REMARK    1  A    between atoms: N_4  and  C_15
REMARK    2  A    between atoms: N_6  and  C_18
REMARK    3  A    between atoms: C_9  and  C_16
REMARK    4  A    between atoms: C_10  and  C_15
REMARK    5  A    between atoms: C_20  and  C_27
REMARK    6  A    between atoms: C_23  and  C_28
REMARK                            x       y       z     vdW  Elec       q    Type
REMARK                         _______ _______ _______ _____ _____    ______ ____
ROOT
ATOM      3  N   UNL     1      -4.406   4.396  24.270  0.00  0.00    -0.297 NA
ATOM      8  C   UNL     1      -2.070   4.731  25.372  0.00  0.00    +0.002 C 
ATOM      9  C   UNL     1      -1.977   3.714  24.201  0.00  0.00    +0.055 C 
ATOM     10  C   UNL     1      -4.514   4.248  25.745  0.00  0.00    +0.074 C 
ATOM     11  C   UNL     1      -3.114   4.237  26.396  0.00  0.00    +0.024 C 
ATOM     12  C   UNL     1      -2.608   6.049  24.776  0.00  0.00    +0.019 C 
ATOM     13  C   UNL     1      -3.430   3.415  23.730  0.00  0.00    +0.094 C 
ATOM     14  C   UNL     1      -3.896   5.759  23.986  0.00  0.00    +0.085 C 
ENDROOT
BRANCH   9  16
ATOM      5  N   UNL     1      -1.584   1.615  25.395  0.00  0.00    -0.237 NA
ATOM      7  N   UNL     1       0.247   0.150  24.845  0.00  0.00    -0.229 NA
ATOM     16  C   UNL     1      -1.167   2.444  24.415  0.00  0.00    +0.050 A 
ATOM     17  C   UNL     1      -0.068   2.197  23.618  0.00  0.00    +0.055 A 
ATOM     20  C   UNL     1       0.609   1.023  23.881  0.00  0.00    +0.110 A 
ATOM     23  C   UNL     1      -0.842   0.503  25.552  0.00  0.00    +0.127 A 
ATOM     28  C   UNL     1      -1.272  -0.439  26.625  0.00  0.00    +0.088 C 
BRANCH  20  27
ATOM      2  O   UNL     1       2.924   1.282  23.469  0.00  0.00    -0.461 OA
ATOM     27  C   UNL     1       1.774   0.642  23.128  0.00  0.00    +0.153 A 
ATOM     29  C   UNL     1       2.002  -0.250  22.105  0.00  0.00    +0.051 A 
ATOM     30  C   UNL     1       3.380  -0.153  21.800  0.00  0.00    +0.042 A 
ATOM     31  C   UNL     1       3.896   0.792  22.656  0.00  0.00    +0.196 A 
ENDBRANCH  20  27
ENDBRANCH   9  16
BRANCH  10  15
ATOM     15  C   UNL     1      -5.340   3.025  26.148  0.00  0.00    +0.124 C 
BRANCH  15   4
ATOM      1  O   UNL     1      -5.993   0.964  24.253  0.00  0.00    -0.253 OA
ATOM      4  N   UNL     1      -4.612   1.816  25.914  0.00  0.00    -0.298 N 
ATOM      6  N   UNL     1      -4.117  -0.220  24.940  0.00  0.00    -0.297 N 
ATOM     19  C   UNL     1      -4.997   0.858  24.968  0.00  0.00    +0.300 C 
ATOM     32  H   UNL     1      -3.775   1.643  26.462  0.00  0.00    +0.150 HD
ATOM     33  H   UNL     1      -3.369  -0.240  25.625  0.00  0.00    +0.151 HD
BRANCH   6  18
ATOM     18  C   UNL     1      -4.281  -1.351  24.054  0.00  0.00    +0.074 C 
ATOM     21  C   UNL     1      -3.213  -1.347  22.954  0.00  0.00    +0.022 C 
ATOM     22  C   UNL     1      -4.269  -2.669  24.835  0.00  0.00    +0.022 C 
ATOM     24  C   UNL     1      -1.825  -1.704  23.486  0.00  0.00    +0.002 C 
ATOM     25  C   UNL     1      -2.878  -3.024  25.364  0.00  0.00    +0.002 C 
ATOM     26  C   UNL     1      -1.837  -3.025  24.249  0.00  0.00    +0.000 C 
ENDBRANCH   6  18
ENDBRANCH  15   4
ENDBRANCH  10  15
TORSDOF 5
ENDMDL
MODEL 3
REMARK VINA RESULT:       3.1      1.903      4.895
REMARK  Name = 26742466
REMARK  6 active torsions:
REMARK  status: ('A' for Active; 'I' for Inactive)
REMARK    1  A    between atoms: N_4  and  C_15
REMARK    2  A    between atoms: N_6  and  C_18
REMARK    3  A    between atoms: C_9  and  C_16
REMARK    4  A    between atoms: C_10  and  C_15
REMARK    5  A    between atoms: C_20  and  C_27
REMARK    6  A    between atoms: C_23  and  C_28
REMARK                            x       y       z     vdW  Elec       q    Type
REMARK                         _______ _______ _______ _____ _____    ______ ____
ROOT
ATOM      3  N   UNL     1      -1.350   4.787  25.691  0.00  0.00    -0.297 NA
ATOM      8  C   UNL     1      -3.006   4.076  23.811  0.00  0.00    +0.002 C 
ATOM      9  C   UNL     1      -3.654   3.878  25.209  0.00  0.00    +0.055 C 
ATOM     10  C   UNL     1      -0.674   3.866  24.739  0.00  0.00    +0.074 C 
ATOM     11  C   UNL     1      -1.690   3.273  23.740  0.00  0.00    +0.024 C 
ATOM     12  C   UNL     1      -2.633   5.570  23.701  0.00  0.00    +0.019 C 
ATOM     13  C   UNL     1      -2.546   4.127  26.273  0.00  0.00    +0.094 C 
ATOM     14  C   UNL     1      -1.801   5.976  24.930  0.00  0.00    +0.085 C 
ENDROOT
BRANCH   9  16
ATOM      5  N   UNL     1      -5.562   2.699  26.187  0.00  0.00    -0.237 NA
ATOM      7  N   UNL     1      -5.848   0.317  25.965  0.00  0.00    -0.229 NA
ATOM     16  C   UNL     1      -4.425   2.592  25.469  0.00  0.00    +0.050 A 
ATOM     17  C   UNL     1      -3.941   1.399  24.971  0.00  0.00    +0.055 A 
ATOM     20  C   UNL     1      -4.702   0.282  25.253  0.00  0.00    +0.110 A 
ATOM     23  C   UNL     1      -6.214   1.540  26.394  0.00  0.00    +0.127 A 
ATOM     28  C   UNL     1      -7.477   1.617  27.183  0.00  0.00    +0.088 C 
BRANCH  20  27
ATOM      2  O   UNL     1      -3.581  -1.757  25.679  0.00  0.00    -0.461 OA
ATOM     27  C   UNL     1      -4.314  -1.026  24.798  0.00  0.00    +0.153 A 
ATOM     29  C   UNL     1      -4.520  -1.734  23.635  0.00  0.00    +0.051 A 
ATOM     30  C   UNL     1      -3.872  -2.979  23.815  0.00  0.00    +0.042 A 
ATOM     31  C   UNL     1      -3.317  -2.944  25.072  0.00  0.00    +0.196 A 
ENDBRANCH  20  27
ENDBRANCH   9  16
BRANCH  10  15
ATOM     15  C   UNL     1       0.128   2.776  25.452  0.00  0.00    +0.124 C 
BRANCH  15   4
ATOM      1  O   UNL     1       0.612   0.619  23.614  0.00  0.00    -0.253 OA
ATOM      4  N   UNL     1       1.347   2.501  24.758  0.00  0.00    -0.298 N 
ATOM      6  N   UNL     1       2.785   1.386  23.334  0.00  0.00    -0.297 N 
ATOM     19  C   UNL     1       1.504   1.426  23.875  0.00  0.00    +0.300 C 
ATOM     32  H   UNL     1       2.141   3.115  24.914  0.00  0.00    +0.150 HD
ATOM     33  H   UNL     1       3.466   2.058  23.675  0.00  0.00    +0.151 HD
BRANCH   6  18
ATOM     18  C   UNL     1       3.215   0.376  22.392  0.00  0.00    +0.074 C 
ATOM     21  C   UNL     1       4.710   0.513  22.083  0.00  0.00    +0.022 C 
ATOM     22  C   UNL     1       2.880  -1.030  22.900  0.00  0.00    +0.022 C 
ATOM     24  C   UNL     1       5.591   0.085  23.257  0.00  0.00    +0.002 C 
ATOM     25  C   UNL     1       3.764  -1.455  24.073  0.00  0.00    +0.002 C 
ATOM     26  C   UNL     1       5.246  -1.322  23.736  0.00  0.00    +0.000 C 
ENDBRANCH   6  18
ENDBRANCH  15   4
ENDBRANCH  10  15
TORSDOF 5
ENDMDL
MODEL 4
REMARK VINA RESULT:       3.2      1.825      6.999
REMARK  Name = 26742466
REMARK  6 active torsions:
REMARK  status: ('A' for Active; 'I' for Inactive)
REMARK    1  A    between atoms: N_4  and  C_15
REMARK    2  A    between atoms: N_6  and  C_18
REMARK    3  A    between atoms: C_9  and  C_16
REMARK    4  A    between atoms: C_10  and  C_15
REMARK    5  A    between atoms: C_20  and  C_27
REMARK    6  A    between atoms: C_23  and  C_28
REMARK                            x       y       z     vdW  Elec       q    Type
REMARK                         _______ _______ _______ _____ _____    ______ ____
ROOT
ATOM      3  N   UNL     1      -2.177   4.699  24.055  0.00  0.00    -0.297 NA
ATOM      8  C   UNL     1      -1.173   3.066  25.818  0.00  0.00    +0.002 C 
ATOM      9  C   UNL     1      -0.243   3.163  24.577  0.00  0.00    +0.055 C 
ATOM     10  C   UNL     1      -3.208   3.719  24.485  0.00  0.00    +0.074 C 
ATOM     11  C   UNL     1      -2.580   2.619  25.369  0.00  0.00    +0.024 C 
ATOM     12  C   UNL     1      -1.309   4.495  26.385  0.00  0.00    +0.019 C 
ATOM     13  C   UNL     1      -1.000   3.987  23.495  0.00  0.00    +0.094 C 
ATOM     14  C   UNL     1      -1.735   5.449  25.255  0.00  0.00    +0.085 C 
ENDROOT
BRANCH   9  16
ATOM      5  N   UNL     1      -0.533   0.956  23.563  0.00  0.00    -0.237 NA
ATOM      7  N   UNL     1       1.338  -0.453  22.999  0.00  0.00    -0.229 NA
ATOM     16  C   UNL     1       0.343   1.876  24.016  0.00  0.00    +0.050 A 
ATOM     17  C   UNL     1       1.713   1.707  23.994  0.00  0.00    +0.055 A 
ATOM     20  C   UNL     1       2.158   0.511  23.469  0.00  0.00    +0.110 A 
ATOM     23  C   UNL     1       0.025  -0.168  23.075  0.00  0.00    +0.127 A 
ATOM     28  C   UNL     1      -0.912  -1.210  22.564  0.00  0.00    +0.088 C 
BRANCH  20  27
ATOM      2  O   UNL     1       3.908  -1.047  23.795  0.00  0.00    -0.461 OA
ATOM     27  C   UNL     1       3.561   0.202  23.387  0.00  0.00    +0.153 A 
ATOM     29  C   UNL     1       4.672   0.903  22.977  0.00  0.00    +0.051 A 
ATOM     30  C   UNL     1       5.771   0.028  23.144  0.00  0.00    +0.042 A 
ATOM     31  C   UNL     1       5.255  -1.144  23.644  0.00  0.00    +0.196 A 
ENDBRANCH  20  27
ENDBRANCH   9  16
BRANCH  10  15
ATOM     15  C   UNL     1      -3.979   3.128  23.303  0.00  0.00    +0.124 C 
BRANCH  15   4
ATOM      1  O   UNL     1      -4.752   1.159  25.250  0.00  0.00    -0.253 OA
ATOM      4  N   UNL     1      -3.778   1.715  23.216  0.00  0.00    -0.298 N 
ATOM      6  N   UNL     1      -3.872  -0.496  23.880  0.00  0.00    -0.297 N 
ATOM     19  C   UNL     1      -4.186   0.818  24.212  0.00  0.00    +0.300 C 
ATOM     32  H   UNL     1      -3.314   1.342  22.393  0.00  0.00    +0.150 HD
ATOM     33  H   UNL     1      -3.338  -0.658  23.032  0.00  0.00    +0.151 HD
BRANCH   6  18
ATOM     18  C   UNL     1      -4.181  -1.623  24.733  0.00  0.00    +0.074 C 
ATOM     21  C   UNL     1      -3.732  -2.939  24.091  0.00  0.00    +0.022 C 
ATOM     22  C   UNL     1      -3.564  -1.446  26.125  0.00  0.00    +0.022 C 
ATOM     24  C   UNL     1      -2.212  -3.099  24.086  0.00  0.00    +0.002 C 
ATOM     25  C   UNL     1      -2.044  -1.608  26.117  0.00  0.00    +0.002 C 
ATOM     26  C   UNL     1      -1.623  -2.931  25.484  0.00  0.00    +0.000 C 
ENDBRANCH   6  18
ENDBRANCH  15   4
ENDBRANCH  10  15
TORSDOF 5
ENDMDL
