MODEL 1
REMARK VINA RESULT:      -2.3      0.000      0.000
REMARK  Name = 25391123
REMARK  5 active torsions:
REMARK  status: ('A' for Active; 'I' for Inactive)
REMARK    1  A    between atoms: N_8  and  C_17
REMARK    2  A    between atoms: C_11  and  C_16
REMARK    3  A    between atoms: C_17  and  C_20
REMARK    4  A    between atoms: C_17  and  C_25
REMARK    5  A    between atoms: C_20  and  C_23
REMARK                            x       y       z     vdW  Elec       q    Type
REMARK                         _______ _______ _______ _____ _____    ______ ____
ROOT
ATOM      3  O   UNL     1      -6.715  -7.874   9.810  0.00  0.00    -0.274 OA
ATOM      8  N   UNL     1      -7.204  -9.892  10.862  0.00  0.00    -0.302 N 
ATOM     16  C   UNL     1      -7.517  -8.677  10.279  0.00  0.00    +0.235 C 
ATOM     33  H   UNL     1      -7.954 -10.512  11.149  0.00  0.00    +0.150 HD
ENDROOT
BRANCH  16  11
ATOM      1  O   UNL     1      -8.999 -10.237  16.163  0.00  0.00    -0.377 OA
ATOM      2  O   UNL     1     -10.256  -7.547  12.618  0.00  0.00    -0.252 OA
ATOM      5  N   UNL     1      -9.576  -9.298  11.277  0.00  0.00    -0.271 N 
ATOM      6  N   UNL     1      -9.727 -10.065   8.497  0.00  0.00    -0.312 NA
ATOM      7  N   UNL     1     -10.017  -9.604  13.613  0.00  0.00    -0.281 N 
ATOM     11  C   UNL     1      -8.997  -8.428  10.246  0.00  0.00    +0.177 C 
ATOM     12  C   UNL     1      -9.601  -8.651   8.859  0.00  0.00    +0.113 C 
ATOM     13  C   UNL     1      -9.811 -10.696  10.881  0.00  0.00    +0.125 C 
ATOM     14  C   UNL     1     -10.492 -10.781   9.518  0.00  0.00    +0.100 C 
ATOM     15  C   UNL     1      -9.962  -8.744  12.509  0.00  0.00    +0.306 C 
ATOM     18  C   UNL     1      -9.159 -10.781  13.795  0.00  0.00    +0.137 C 
ATOM     19  C   UNL     1     -10.719  -9.192  14.828  0.00  0.00    +0.137 C 
ATOM     21  C   UNL     1      -8.241 -10.570  14.998  0.00  0.00    +0.179 C 
ATOM     22  C   UNL     1      -9.732  -9.022  15.972  0.00  0.00    +0.179 C 
ATOM     32  H   UNL     1      -8.795 -10.474   8.432  0.00  0.00    +0.122 HD
ENDBRANCH  16  11
BRANCH   8  17
ATOM     17  C   UNL     1      -5.849 -10.379  10.996  0.00  0.00    +0.163 C 
BRANCH  17  25
ATOM      4  O   UNL     1      -4.735  -8.220  11.083  0.00  0.00    -0.274 OA
ATOM     10  N   UNL     1      -4.283  -9.619   9.318  0.00  0.00    -0.328 N 
ATOM     25  C   UNL     1      -4.926  -9.280  10.490  0.00  0.00    +0.231 C 
ATOM     35  H   UNL     1      -4.434 -10.508   8.851  0.00  0.00    +0.145 HD
ATOM     36  H   UNL     1      -3.628  -8.980   8.880  0.00  0.00    +0.145 HD
ENDBRANCH  17  25
BRANCH  17  20
ATOM     20  C   UNL     1      -5.503 -10.742  12.444  0.00  0.00    +0.069 C 
BRANCH  20  23
ATOM      9  N   UNL     1      -1.845 -10.318  12.494  0.00  0.00    -0.360 N 
ATOM     23  C   UNL     1      -4.033 -10.588  12.750  0.00  0.00    -0.020 A 
ATOM     24  C   UNL     1      -3.431 -10.589  14.039  0.00  0.00    +0.003 A 
ATOM     26  C   UNL     1      -3.032 -10.420  11.821  0.00  0.00    +0.087 A 
ATOM     27  C   UNL     1      -2.058 -10.419  13.850  0.00  0.00    +0.047 A 
ATOM     28  C   UNL     1      -3.924 -10.719  15.352  0.00  0.00    +0.010 A 
ATOM     29  C   UNL     1      -1.150 -10.371  14.914  0.00  0.00    +0.026 A 
ATOM     30  C   UNL     1      -3.027 -10.674  16.426  0.00  0.00    +0.001 A 
ATOM     31  C   UNL     1      -1.662 -10.503  16.207  0.00  0.00    +0.002 A 
ATOM     34  H   UNL     1      -0.942 -10.189  12.059  0.00  0.00    +0.165 HD
ENDBRANCH  20  23
ENDBRANCH  17  20
ENDBRANCH   8  17
TORSDOF 5
ENDMDL
MODEL 2
REMARK VINA RESULT:      -2.3     15.198     17.505
REMARK  Name = 25391123
REMARK  5 active torsions:
REMARK  status: ('A' for Active; 'I' for Inactive)
REMARK    1  A    between atoms: N_8  and  C_17
REMARK    2  A    between atoms: C_11  and  C_16
REMARK    3  A    between atoms: C_17  and  C_20
REMARK    4  A    between atoms: C_17  and  C_25
REMARK    5  A    between atoms: C_20  and  C_23
REMARK                            x       y       z     vdW  Elec       q    Type
REMARK                         _______ _______ _______ _____ _____    ______ ____
ROOT
ATOM      3  O   UNL     1      -4.742  -0.184  26.094  0.00  0.00    -0.274 OA
ATOM      8  N   UNL     1      -3.362  -0.145  24.220  0.00  0.00    -0.302 N 
ATOM     16  C   UNL     1      -4.412   0.290  25.010  0.00  0.00    +0.235 C 
ATOM     33  H   UNL     1      -3.131   0.369  23.376  0.00  0.00    +0.150 HD
ENDROOT
BRANCH  16  11
ATOM      1  O   UNL     1       0.134   4.592  25.291  0.00  0.00    -0.377 OA
ATOM      2  O   UNL     1      -3.621   3.323  22.908  0.00  0.00    -0.252 OA
ATOM      5  N   UNL     1      -4.474   2.658  24.947  0.00  0.00    -0.271 N 
ATOM      6  N   UNL     1      -6.998   1.783  26.041  0.00  0.00    -0.312 NA
ATOM      7  N   UNL     1      -2.605   4.151  24.795  0.00  0.00    -0.281 N 
ATOM     11  C   UNL     1      -5.129   1.462  24.406  0.00  0.00    +0.177 C 
ATOM     12  C   UNL     1      -6.635   1.428  24.667  0.00  0.00    +0.113 C 
ATOM     13  C   UNL     1      -4.917   3.087  26.283  0.00  0.00    +0.125 C 
ATOM     14  C   UNL     1      -6.440   3.089  26.389  0.00  0.00    +0.100 C 
ATOM     15  C   UNL     1      -3.567   3.370  24.144  0.00  0.00    +0.306 C 
ATOM     18  C   UNL     1      -2.032   3.841  26.111  0.00  0.00    +0.137 C 
ATOM     19  C   UNL     1      -1.858   5.165  24.050  0.00  0.00    +0.137 C 
ATOM     21  C   UNL     1      -0.544   3.530  25.966  0.00  0.00    +0.179 C 
ATOM     22  C   UNL     1      -0.389   4.781  23.972  0.00  0.00    +0.179 C 
ATOM     32  H   UNL     1      -6.619   1.079  26.676  0.00  0.00    +0.122 HD
ENDBRANCH  16  11
BRANCH   8  17
ATOM     17  C   UNL     1      -2.498  -1.244  24.587  0.00  0.00    +0.163 C 
BRANCH  17  25
ATOM      4  O   UNL     1      -3.327  -3.381  25.397  0.00  0.00    -0.274 OA
ATOM     10  N   UNL     1      -4.151  -2.564  23.415  0.00  0.00    -0.328 N 
ATOM     25  C   UNL     1      -3.337  -2.513  24.527  0.00  0.00    +0.231 C 
ATOM     35  H   UNL     1      -4.165  -1.827  22.715  0.00  0.00    +0.145 HD
ATOM     36  H   UNL     1      -4.772  -3.350  23.260  0.00  0.00    +0.145 HD
ENDBRANCH  17  25
BRANCH  17  20
ATOM     20  C   UNL     1      -1.283  -1.363  23.659  0.00  0.00    +0.069 C 
BRANCH  20  23
ATOM      9  N   UNL     1       0.798   1.465  24.771  0.00  0.00    -0.360 N 
ATOM     23  C   UNL     1      -0.256  -0.284  23.901  0.00  0.00    -0.020 A 
ATOM     24  C   UNL     1       0.945  -0.077  23.165  0.00  0.00    +0.003 A 
ATOM     26  C   UNL     1      -0.318   0.679  24.881  0.00  0.00    +0.087 A 
ATOM     27  C   UNL     1       1.587   1.026  23.731  0.00  0.00    +0.047 A 
ATOM     28  C   UNL     1       1.548  -0.725  22.070  0.00  0.00    +0.010 A 
ATOM     29  C   UNL     1       2.807   1.516  23.254  0.00  0.00    +0.026 A 
ATOM     30  C   UNL     1       2.769  -0.245  21.581  0.00  0.00    +0.001 A 
ATOM     31  C   UNL     1       3.386   0.858  22.166  0.00  0.00    +0.002 A 
ATOM     34  H   UNL     1       1.011   2.253  25.366  0.00  0.00    +0.165 HD
ENDBRANCH  20  23
ENDBRANCH  17  20
ENDBRANCH   8  17
TORSDOF 5
ENDMDL
MODEL 3
REMARK VINA RESULT:      -1.7     15.750     17.832
REMARK  Name = 25391123
REMARK  5 active torsions:
REMARK  status: ('A' for Active; 'I' for Inactive)
REMARK    1  A    between atoms: N_8  and  C_17
REMARK    2  A    between atoms: C_11  and  C_16
REMARK    3  A    between atoms: C_17  and  C_20
REMARK    4  A    between atoms: C_17  and  C_25
REMARK    5  A    between atoms: C_20  and  C_23
REMARK                            x       y       z     vdW  Elec       q    Type
REMARK                         _______ _______ _______ _____ _____    ______ ____
ROOT
ATOM      3  O   UNL     1      -0.987   0.191  26.954  0.00  0.00    -0.274 OA
ATOM      8  N   UNL     1      -0.237   0.527  24.776  0.00  0.00    -0.302 N 
ATOM     16  C   UNL     1      -0.689   0.931  26.020  0.00  0.00    +0.235 C 
ATOM     33  H   UNL     1       0.054   1.228  24.102  0.00  0.00    +0.150 HD
ENDROOT
BRANCH  16  11
ATOM      1  O   UNL     1      -6.791   1.806  24.901  0.00  0.00    -0.377 OA
ATOM      2  O   UNL     1      -3.145   3.573  27.131  0.00  0.00    -0.252 OA
ATOM      5  N   UNL     1      -1.909   2.841  25.325  0.00  0.00    -0.271 N 
ATOM      6  N   UNL     1       0.771   3.136  24.290  0.00  0.00    -0.312 NA
ATOM      7  N   UNL     1      -4.291   3.071  25.204  0.00  0.00    -0.281 N 
ATOM     11  C   UNL     1      -0.761   2.425  26.140  0.00  0.00    +0.177 C 
ATOM     12  C   UNL     1       0.545   3.112  25.737  0.00  0.00    +0.113 C 
ATOM     13  C   UNL     1      -1.658   2.977  23.881  0.00  0.00    +0.125 C 
ATOM     14  C   UNL     1      -0.370   3.750  23.611  0.00  0.00    +0.100 C 
ATOM     15  C   UNL     1      -3.116   3.180  25.958  0.00  0.00    +0.306 C 
ATOM     18  C   UNL     1      -4.502   2.097  24.126  0.00  0.00    +0.137 C 
ATOM     19  C   UNL     1      -5.522   3.712  25.669  0.00  0.00    +0.137 C 
ATOM     21  C   UNL     1      -5.599   1.112  24.526  0.00  0.00    +0.179 C 
ATOM     22  C   UNL     1      -6.558   2.659  26.027  0.00  0.00    +0.179 C 
ATOM     32  H   UNL     1       0.879   2.177  23.956  0.00  0.00    +0.122 HD
ENDBRANCH  16  11
BRANCH   8  17
ATOM     17  C   UNL     1      -0.056  -0.861  24.413  0.00  0.00    +0.163 C 
BRANCH  17  25
ATOM      4  O   UNL     1      -1.656  -2.679  24.212  0.00  0.00    -0.274 OA
ATOM     10  N   UNL     1      -2.444  -0.521  24.242  0.00  0.00    -0.328 N 
ATOM     25  C   UNL     1      -1.443  -1.470  24.264  0.00  0.00    +0.231 C 
ATOM     35  H   UNL     1      -2.253   0.474  24.309  0.00  0.00    +0.145 HD
ATOM     36  H   UNL     1      -3.417  -0.794  24.161  0.00  0.00    +0.145 HD
ENDBRANCH  17  25
BRANCH  17  20
ATOM     20  C   UNL     1       0.741  -1.022  23.113  0.00  0.00    +0.069 C 
BRANCH  20  23
ATOM      9  N   UNL     1       3.277   1.628  22.783  0.00  0.00    -0.360 N 
ATOM     23  C   UNL     1       1.964  -0.139  23.065  0.00  0.00    -0.020 A 
ATOM     24  C   UNL     1       3.296  -0.518  23.392  0.00  0.00    +0.003 A 
ATOM     26  C   UNL     1       1.985   1.186  22.695  0.00  0.00    +0.087 A 
ATOM     27  C   UNL     1       4.100   0.609  23.206  0.00  0.00    +0.047 A 
ATOM     28  C   UNL     1       3.896  -1.715  23.828  0.00  0.00    +0.010 A 
ATOM     29  C   UNL     1       5.480   0.598  23.437  0.00  0.00    +0.026 A 
ATOM     30  C   UNL     1       5.277  -1.741  24.063  0.00  0.00    +0.001 A 
ATOM     31  C   UNL     1       6.053  -0.601  23.869  0.00  0.00    +0.002 A 
ATOM     34  H   UNL     1       3.583   2.567  22.568  0.00  0.00    +0.165 HD
ENDBRANCH  20  23
ENDBRANCH  17  20
ENDBRANCH   8  17
TORSDOF 5
ENDMDL
MODEL 4
REMARK VINA RESULT:      -0.8     15.250     17.480
REMARK  Name = 25391123
REMARK  5 active torsions:
REMARK  status: ('A' for Active; 'I' for Inactive)
REMARK    1  A    between atoms: N_8  and  C_17
REMARK    2  A    between atoms: C_11  and  C_16
REMARK    3  A    between atoms: C_17  and  C_20
REMARK    4  A    between atoms: C_17  and  C_25
REMARK    5  A    between atoms: C_20  and  C_23
REMARK                            x       y       z     vdW  Elec       q    Type
REMARK                         _______ _______ _______ _____ _____    ______ ____
ROOT
ATOM      3  O   UNL     1      -2.686   3.774  26.889  0.00  0.00    -0.274 OA
ATOM      8  N   UNL     1      -1.735   3.061  24.887  0.00  0.00    -0.302 N 
ATOM     16  C   UNL     1      -2.785   3.338  25.745  0.00  0.00    +0.235 C 
ATOM     33  H   UNL     1      -1.935   2.774  23.935  0.00  0.00    +0.150 HD
ENDROOT
BRANCH  16  11
ATOM      1  O   UNL     1      -2.273  -2.826  24.742  0.00  0.00    -0.377 OA
ATOM      2  O   UNL     1      -5.325   0.551  25.561  0.00  0.00    -0.252 OA
ATOM      5  N   UNL     1      -3.937   1.876  24.277  0.00  0.00    -0.271 N 
ATOM      6  N   UNL     1      -3.984   4.493  23.059  0.00  0.00    -0.312 NA
ATOM      7  N   UNL     1      -3.799  -0.516  24.214  0.00  0.00    -0.281 N 
ATOM     11  C   UNL     1      -4.120   3.068  25.114  0.00  0.00    +0.177 C 
ATOM     12  C   UNL     1      -4.659   4.271  24.340  0.00  0.00    +0.113 C 
ATOM     13  C   UNL     1      -3.363   2.108  22.942  0.00  0.00    +0.125 C 
ATOM     14  C   UNL     1      -4.041   3.282  22.242  0.00  0.00    +0.100 C 
ATOM     15  C   UNL     1      -4.405   0.633  24.737  0.00  0.00    +0.306 C 
ATOM     18  C   UNL     1      -2.400  -0.595  23.776  0.00  0.00    +0.137 C 
ATOM     19  C   UNL     1      -4.440  -1.821  24.380  0.00  0.00    +0.137 C 
ATOM     21  C   UNL     1      -1.627  -1.552  24.681  0.00  0.00    +0.179 C 
ATOM     22  C   UNL     1      -3.594  -2.709  25.279  0.00  0.00    +0.179 C 
ATOM     32  H   UNL     1      -3.007   4.728  23.237  0.00  0.00    +0.122 HD
ENDBRANCH  16  11
BRANCH   8  17
ATOM     17  C   UNL     1      -0.349   3.257  25.246  0.00  0.00    +0.163 C 
BRANCH  17  25
ATOM      4  O   UNL     1      -0.558   1.091  26.327  0.00  0.00    -0.274 OA
ATOM     10  N   UNL     1       1.080   2.528  27.054  0.00  0.00    -0.328 N 
ATOM     25  C   UNL     1       0.011   2.178  26.256  0.00  0.00    +0.231 C 
ATOM     35  H   UNL     1       1.555   3.421  26.969  0.00  0.00    +0.145 HD
ATOM     36  H   UNL     1       1.432   1.892  27.762  0.00  0.00    +0.145 HD
ENDBRANCH  17  25
BRANCH  17  20
ATOM     20  C   UNL     1       0.582   3.182  24.029  0.00  0.00    +0.069 C 
BRANCH  20  23
ATOM      9  N   UNL     1       0.731  -0.389  23.137  0.00  0.00    -0.360 N 
ATOM     23  C   UNL     1       0.926   1.763  23.645  0.00  0.00    -0.020 A 
ATOM     24  C   UNL     1       2.226   1.249  23.376  0.00  0.00    +0.003 A 
ATOM     26  C   UNL     1       0.028   0.732  23.489  0.00  0.00    +0.087 A 
ATOM     27  C   UNL     1       2.075  -0.103  23.061  0.00  0.00    +0.047 A 
ATOM     28  C   UNL     1       3.519   1.807  23.372  0.00  0.00    +0.010 A 
ATOM     29  C   UNL     1       3.158  -0.928  22.741  0.00  0.00    +0.026 A 
ATOM     30  C   UNL     1       4.613   0.992  23.053  0.00  0.00    +0.001 A 
ATOM     31  C   UNL     1       4.432  -0.353  22.743  0.00  0.00    +0.002 A 
ATOM     34  H   UNL     1       0.321  -1.296  22.960  0.00  0.00    +0.165 HD
ENDBRANCH  20  23
ENDBRANCH  17  20
ENDBRANCH   8  17
TORSDOF 5
ENDMDL
MODEL 5
REMARK VINA RESULT:      -0.0     15.713     17.839
REMARK  Name = 25391123
REMARK  5 active torsions:
REMARK  status: ('A' for Active; 'I' for Inactive)
REMARK    1  A    between atoms: N_8  and  C_17
REMARK    2  A    between atoms: C_11  and  C_16
REMARK    3  A    between atoms: C_17  and  C_20
REMARK    4  A    between atoms: C_17  and  C_25
REMARK    5  A    between atoms: C_20  and  C_23
REMARK                            x       y       z     vdW  Elec       q    Type
REMARK                         _______ _______ _______ _____ _____    ______ ____
ROOT
ATOM      3  O   UNL     1      -1.423   2.034  23.142  0.00  0.00    -0.274 OA
ATOM      8  N   UNL     1       0.601   1.365  24.078  0.00  0.00    -0.302 N 
ATOM     16  C   UNL     1      -0.566   2.107  24.020  0.00  0.00    +0.235 C 
ATOM     33  H   UNL     1       1.203   1.452  24.890  0.00  0.00    +0.150 HD
ENDROOT
BRANCH  16  11
ATOM      1  O   UNL     1      -6.773   1.850  24.839  0.00  0.00    -0.377 OA
ATOM      2  O   UNL     1      -2.770   2.517  27.056  0.00  0.00    -0.252 OA
ATOM      5  N   UNL     1      -2.075   3.566  25.121  0.00  0.00    -0.271 N 
ATOM      6  N   UNL     1       0.146   5.178  24.226  0.00  0.00    -0.312 NA
ATOM      7  N   UNL     1      -4.397   3.175  25.573  0.00  0.00    -0.281 N 
ATOM     11  C   UNL     1      -0.710   3.032  25.192  0.00  0.00    +0.177 C 
ATOM     12  C   UNL     1       0.363   4.122  25.217  0.00  0.00    +0.113 C 
ATOM     13  C   UNL     1      -2.276   4.703  24.210  0.00  0.00    +0.125 C 
ATOM     14  C   UNL     1      -1.186   5.758  24.389  0.00  0.00    +0.100 C 
ATOM     15  C   UNL     1      -3.062   3.050  25.978  0.00  0.00    +0.306 C 
ATOM     18  C   UNL     1      -4.846   3.181  24.175  0.00  0.00    +0.137 C 
ATOM     19  C   UNL     1      -5.477   2.975  26.539  0.00  0.00    +0.137 C 
ATOM     21  C   UNL     1      -5.698   1.944  23.900  0.00  0.00    +0.179 C 
ATOM     22  C   UNL     1      -6.280   1.735  26.177  0.00  0.00    +0.179 C 
ATOM     32  H   UNL     1       0.221   4.775  23.291  0.00  0.00    +0.122 HD
ENDBRANCH  16  11
BRANCH   8  17
ATOM     17  C   UNL     1       0.965   0.384  23.081  0.00  0.00    +0.163 C 
BRANCH  17  25
ATOM      4  O   UNL     1       3.165  -0.608  22.789  0.00  0.00    -0.274 OA
ATOM     10  N   UNL     1       3.013   1.669  23.049  0.00  0.00    -0.328 N 
ATOM     25  C   UNL     1       2.483   0.398  22.972  0.00  0.00    +0.231 C 
ATOM     35  H   UNL     1       2.435   2.494  23.177  0.00  0.00    +0.145 HD
ATOM     36  H   UNL     1       4.013   1.821  22.976  0.00  0.00    +0.145 HD
ENDBRANCH  17  25
BRANCH  17  20
ATOM     20  C   UNL     1       0.469  -1.021  23.441  0.00  0.00    +0.069 C 
BRANCH  20  23
ATOM      9  N   UNL     1      -1.360  -0.972  26.637  0.00  0.00    -0.360 N 
ATOM     23  C   UNL     1      -0.515  -1.018  24.585  0.00  0.00    -0.020 A 
ATOM     24  C   UNL     1      -1.933  -1.080  24.484  0.00  0.00    +0.003 A 
ATOM     26  C   UNL     1      -0.194  -0.952  25.921  0.00  0.00    +0.087 A 
ATOM     27  C   UNL     1      -2.439  -1.050  25.785  0.00  0.00    +0.047 A 
ATOM     28  C   UNL     1      -2.837  -1.160  23.407  0.00  0.00    +0.010 A 
ATOM     29  C   UNL     1      -3.809  -1.096  26.063  0.00  0.00    +0.026 A 
ATOM     30  C   UNL     1      -4.211  -1.206  23.670  0.00  0.00    +0.001 A 
ATOM     31  C   UNL     1      -4.687  -1.175  24.979  0.00  0.00    +0.002 A 
ATOM     34  H   UNL     1      -1.421  -0.935  27.645  0.00  0.00    +0.165 HD
ENDBRANCH  20  23
ENDBRANCH  17  20
ENDBRANCH   8  17
TORSDOF 5
ENDMDL
MODEL 6
REMARK VINA RESULT:       0.0     14.936     17.728
REMARK  Name = 25391123
REMARK  5 active torsions:
REMARK  status: ('A' for Active; 'I' for Inactive)
REMARK    1  A    between atoms: N_8  and  C_17
REMARK    2  A    between atoms: C_11  and  C_16
REMARK    3  A    between atoms: C_17  and  C_20
REMARK    4  A    between atoms: C_17  and  C_25
REMARK    5  A    between atoms: C_20  and  C_23
REMARK                            x       y       z     vdW  Elec       q    Type
REMARK                         _______ _______ _______ _____ _____    ______ ____
ROOT
ATOM      3  O   UNL     1      -3.228   0.053  23.107  0.00  0.00    -0.274 OA
ATOM      8  N   UNL     1      -4.339   1.014  24.912  0.00  0.00    -0.302 N 
ATOM     16  C   UNL     1      -3.429   0.160  24.314  0.00  0.00    +0.235 C 
ATOM     33  H   UNL     1      -4.370   1.076  25.924  0.00  0.00    +0.150 HD
ENDROOT
BRANCH  16  11
ATOM      1  O   UNL     1       2.171   0.010  21.509  0.00  0.00    -0.377 OA
ATOM      2  O   UNL     1       0.095  -0.096  25.640  0.00  0.00    -0.252 OA
ATOM      5  N   UNL     1      -1.571  -1.288  24.575  0.00  0.00    -0.271 N 
ATOM      6  N   UNL     1      -3.921  -2.806  25.287  0.00  0.00    -0.312 NA
ATOM      7  N   UNL     1       0.607  -1.036  23.606  0.00  0.00    -0.281 N 
ATOM     11  C   UNL     1      -2.659  -0.643  25.320  0.00  0.00    +0.177 C 
ATOM     12  C   UNL     1      -3.540  -1.635  26.081  0.00  0.00    +0.113 C 
ATOM     13  C   UNL     1      -1.922  -2.529  23.867  0.00  0.00    +0.125 C 
ATOM     14  C   UNL     1      -2.729  -3.468  24.759  0.00  0.00    +0.100 C 
ATOM     15  C   UNL     1      -0.271  -0.763  24.663  0.00  0.00    +0.306 C 
ATOM     18  C   UNL     1       0.196  -1.228  22.210  0.00  0.00    +0.137 C 
ATOM     19  C   UNL     1       2.044  -0.820  23.774  0.00  0.00    +0.137 C 
ATOM     21  C   UNL     1       0.755  -0.098  21.347  0.00  0.00    +0.179 C 
ATOM     22  C   UNL     1       2.514   0.307  22.867  0.00  0.00    +0.179 C 
ATOM     32  H   UNL     1      -4.505  -2.500  24.507  0.00  0.00    +0.122 HD
ENDBRANCH  16  11
BRANCH   8  17
ATOM     17  C   UNL     1      -5.189   1.913  24.164  0.00  0.00    +0.163 C 
BRANCH  17  25
ATOM      4  O   UNL     1      -7.615   1.786  24.239  0.00  0.00    -0.274 OA
ATOM     10  N   UNL     1      -6.466   2.008  26.215  0.00  0.00    -0.328 N 
ATOM     25  C   UNL     1      -6.552   1.909  24.842  0.00  0.00    +0.231 C 
ATOM     35  H   UNL     1      -5.578   2.087  26.702  0.00  0.00    +0.145 HD
ATOM     36  H   UNL     1      -7.302   2.004  26.791  0.00  0.00    +0.145 HD
ENDBRANCH  17  25
BRANCH  17  20
ATOM     20  C   UNL     1      -4.624   3.337  24.111  0.00  0.00    +0.069 C 
BRANCH  20  23
ATOM      9  N   UNL     1      -2.202   4.044  26.794  0.00  0.00    -0.360 N 
ATOM     23  C   UNL     1      -3.437   3.529  25.023  0.00  0.00    -0.020 A 
ATOM     24  C   UNL     1      -2.079   3.229  24.721  0.00  0.00    +0.003 A 
ATOM     26  C   UNL     1      -3.481   4.028  26.305  0.00  0.00    +0.087 A 
ATOM     27  C   UNL     1      -1.325   3.562  25.849  0.00  0.00    +0.047 A 
ATOM     28  C   UNL     1      -1.417   2.706  23.594  0.00  0.00    +0.010 A 
ATOM     29  C   UNL     1       0.063   3.396  25.905  0.00  0.00    +0.026 A 
ATOM     30  C   UNL     1      -0.028   2.535  23.635  0.00  0.00    +0.001 A 
ATOM     31  C   UNL     1       0.697   2.875  24.774  0.00  0.00    +0.002 A 
ATOM     34  H   UNL     1      -1.940   4.364  27.716  0.00  0.00    +0.165 HD
ENDBRANCH  20  23
ENDBRANCH  17  20
ENDBRANCH   8  17
TORSDOF 5
ENDMDL
MODEL 7
REMARK VINA RESULT:       0.6     15.077     17.239
REMARK  Name = 25391123
REMARK  5 active torsions:
REMARK  status: ('A' for Active; 'I' for Inactive)
REMARK    1  A    between atoms: N_8  and  C_17
REMARK    2  A    between atoms: C_11  and  C_16
REMARK    3  A    between atoms: C_17  and  C_20
REMARK    4  A    between atoms: C_17  and  C_25
REMARK    5  A    between atoms: C_20  and  C_23
REMARK                            x       y       z     vdW  Elec       q    Type
REMARK                         _______ _______ _______ _____ _____    ______ ____
ROOT
ATOM      3  O   UNL     1      -2.712   0.879  21.808  0.00  0.00    -0.274 OA
ATOM      8  N   UNL     1      -1.585   0.325  23.768  0.00  0.00    -0.302 N 
ATOM     16  C   UNL     1      -2.687   0.385  22.932  0.00  0.00    +0.235 C 
ATOM     33  H   UNL     1      -1.657  -0.175  24.648  0.00  0.00    +0.150 HD
ENDROOT
BRANCH  16  11
ATOM      1  O   UNL     1      -4.883   5.181  26.314  0.00  0.00    -0.377 OA
ATOM      2  O   UNL     1      -6.158   1.352  24.054  0.00  0.00    -0.252 OA
ATOM      5  N   UNL     1      -4.158   0.465  24.789  0.00  0.00    -0.271 N 
ATOM      6  N   UNL     1      -2.846  -2.106  24.870  0.00  0.00    -0.312 NA
ATOM      7  N   UNL     1      -5.110   2.419  25.798  0.00  0.00    -0.281 N 
ATOM     11  C   UNL     1      -3.896  -0.262  23.541  0.00  0.00    +0.177 C 
ATOM     12  C   UNL     1      -3.719  -1.767  23.744  0.00  0.00    +0.113 C 
ATOM     13  C   UNL     1      -3.361   0.050  25.954  0.00  0.00    +0.125 C 
ATOM     14  C   UNL     1      -3.330  -1.470  26.094  0.00  0.00    +0.100 C 
ATOM     15  C   UNL     1      -5.196   1.410  24.831  0.00  0.00    +0.306 C 
ATOM     18  C   UNL     1      -3.851   2.975  26.312  0.00  0.00    +0.137 C 
ATOM     19  C   UNL     1      -6.287   3.224  26.124  0.00  0.00    +0.137 C 
ATOM     21  C   UNL     1      -3.730   4.442  25.903  0.00  0.00    +0.179 C 
ATOM     22  C   UNL     1      -6.069   4.667  25.698  0.00  0.00    +0.179 C 
ATOM     32  H   UNL     1      -1.903  -1.768  24.670  0.00  0.00    +0.122 HD
ENDBRANCH  16  11
BRANCH   8  17
ATOM     17  C   UNL     1      -0.290   0.856  23.408  0.00  0.00    +0.163 C 
BRANCH  17  25
ATOM      4  O   UNL     1       0.260   3.090  24.192  0.00  0.00    -0.274 OA
ATOM     10  N   UNL     1       0.118   1.390  25.730  0.00  0.00    -0.328 N 
ATOM     25  C   UNL     1       0.072   1.904  24.451  0.00  0.00    +0.231 C 
ATOM     35  H   UNL     1      -0.062   0.411  25.932  0.00  0.00    +0.145 HD
ATOM     36  H   UNL     1       0.334   1.986  26.523  0.00  0.00    +0.145 HD
ENDBRANCH  17  25
BRANCH  17  20
ATOM     20  C   UNL     1       0.788  -0.233  23.349  0.00  0.00    +0.069 C 
BRANCH  20  23
ATOM      9  N   UNL     1       3.838   1.712  22.656  0.00  0.00    -0.360 N 
ATOM     23  C   UNL     1       2.175   0.329  23.155  0.00  0.00    -0.020 A 
ATOM     24  C   UNL     1       3.405  -0.337  23.424  0.00  0.00    +0.003 A 
ATOM     26  C   UNL     1       2.475   1.586  22.685  0.00  0.00    +0.087 A 
ATOM     27  C   UNL     1       4.432   0.553  23.101  0.00  0.00    +0.047 A 
ATOM     28  C   UNL     1       3.742  -1.615  23.911  0.00  0.00    +0.010 A 
ATOM     29  C   UNL     1       5.784   0.226  23.243  0.00  0.00    +0.026 A 
ATOM     30  C   UNL     1       5.092  -1.955  24.058  0.00  0.00    +0.001 A 
ATOM     31  C   UNL     1       6.095  -1.047  23.728  0.00  0.00    +0.002 A 
ATOM     34  H   UNL     1       4.337   2.536  22.351  0.00  0.00    +0.165 HD
ENDBRANCH  20  23
ENDBRANCH  17  20
ENDBRANCH   8  17
TORSDOF 5
ENDMDL
MODEL 8
REMARK VINA RESULT:       0.8     15.092     17.411
REMARK  Name = 25391123
REMARK  5 active torsions:
REMARK  status: ('A' for Active; 'I' for Inactive)
REMARK    1  A    between atoms: N_8  and  C_17
REMARK    2  A    between atoms: C_11  and  C_16
REMARK    3  A    between atoms: C_17  and  C_20
REMARK    4  A    between atoms: C_17  and  C_25
REMARK    5  A    between atoms: C_20  and  C_23
REMARK                            x       y       z     vdW  Elec       q    Type
REMARK                         _______ _______ _______ _____ _____    ______ ____
ROOT
ATOM      3  O   UNL     1      -0.884  -0.128  25.766  0.00  0.00    -0.274 OA
ATOM      8  N   UNL     1       0.075  -0.178  23.646  0.00  0.00    -0.302 N 
ATOM     16  C   UNL     1      -0.890  -0.481  24.589  0.00  0.00    +0.235 C 
ATOM     33  H   UNL     1      -0.068  -0.459  22.681  0.00  0.00    +0.150 HD
ENDROOT
BRANCH  16  11
ATOM      1  O   UNL     1      -5.757   3.181  26.062  0.00  0.00    -0.377 OA
ATOM      2  O   UNL     1      -4.264   0.065  22.988  0.00  0.00    -0.252 OA
ATOM      5  N   UNL     1      -3.209  -0.937  24.779  0.00  0.00    -0.271 N 
ATOM      6  N   UNL     1      -1.821  -3.402  25.356  0.00  0.00    -0.312 NA
ATOM      7  N   UNL     1      -4.975   0.653  25.092  0.00  0.00    -0.281 N 
ATOM     11  C   UNL     1      -2.011  -1.297  24.013  0.00  0.00    +0.177 C 
ATOM     12  C   UNL     1      -1.714  -2.797  24.026  0.00  0.00    +0.113 C 
ATOM     13  C   UNL     1      -3.381  -1.627  26.068  0.00  0.00    +0.125 C 
ATOM     14  C   UNL     1      -3.137  -3.128  25.931  0.00  0.00    +0.100 C 
ATOM     15  C   UNL     1      -4.152  -0.062  24.214  0.00  0.00    +0.306 C 
ATOM     18  C   UNL     1      -4.581   1.083  26.440  0.00  0.00    +0.137 C 
ATOM     19  C   UNL     1      -6.182   1.312  24.592  0.00  0.00    +0.137 C 
ATOM     21  C   UNL     1      -4.522   2.608  26.499  0.00  0.00    +0.179 C 
ATOM     22  C   UNL     1      -6.040   2.822  24.705  0.00  0.00    +0.179 C 
ATOM     32  H   UNL     1      -1.104  -3.000  25.961  0.00  0.00    +0.122 HD
ENDBRANCH  16  11
BRANCH   8  17
ATOM     17  C   UNL     1       1.247   0.616  23.940  0.00  0.00    +0.163 C 
BRANCH  17  25
ATOM      4  O   UNL     1       1.966  -0.224  21.776  0.00  0.00    -0.274 OA
ATOM     10  N   UNL     1       3.434   1.046  23.004  0.00  0.00    -0.328 N 
ATOM     25  C   UNL     1       2.230   0.407  22.797  0.00  0.00    +0.231 C 
ATOM     35  H   UNL     1       3.629   1.583  23.844  0.00  0.00    +0.145 HD
ATOM     36  H   UNL     1       4.174   0.999  22.312  0.00  0.00    +0.145 HD
ENDBRANCH  17  25
BRANCH  17  20
ATOM     20  C   UNL     1       0.915   2.105  24.094  0.00  0.00    +0.069 C 
BRANCH  20  23
ATOM      9  N   UNL     1      -2.463   2.366  22.650  0.00  0.00    -0.360 N 
ATOM     23  C   UNL     1      -0.499   2.434  23.683  0.00  0.00    -0.020 A 
ATOM     24  C   UNL     1      -1.313   3.478  24.205  0.00  0.00    +0.003 A 
ATOM     26  C   UNL     1      -1.234   1.768  22.729  0.00  0.00    +0.087 A 
ATOM     27  C   UNL     1      -2.539   3.414  23.540  0.00  0.00    +0.047 A 
ATOM     28  C   UNL     1      -1.122   4.475  25.182  0.00  0.00    +0.010 A 
ATOM     29  C   UNL     1      -3.588   4.301  23.805  0.00  0.00    +0.026 A 
ATOM     30  C   UNL     1      -2.164   5.369  25.457  0.00  0.00    +0.001 A 
ATOM     31  C   UNL     1      -3.376   5.281  24.778  0.00  0.00    +0.002 A 
ATOM     34  H   UNL     1      -3.207   2.081  22.028  0.00  0.00    +0.165 HD
ENDBRANCH  20  23
ENDBRANCH  17  20
ENDBRANCH   8  17
TORSDOF 5
ENDMDL
MODEL 9
REMARK VINA RESULT:       1.4     15.161     17.958
REMARK  Name = 25391123
REMARK  5 active torsions:
REMARK  status: ('A' for Active; 'I' for Inactive)
REMARK    1  A    between atoms: N_8  and  C_17
REMARK    2  A    between atoms: C_11  and  C_16
REMARK    3  A    between atoms: C_17  and  C_20
REMARK    4  A    between atoms: C_17  and  C_25
REMARK    5  A    between atoms: C_20  and  C_23
REMARK                            x       y       z     vdW  Elec       q    Type
REMARK                         _______ _______ _______ _____ _____    ______ ____
ROOT
ATOM      3  O   UNL     1      -3.345   2.282  23.156  0.00  0.00    -0.274 OA
ATOM      8  N   UNL     1      -3.669   2.246  25.461  0.00  0.00    -0.302 N 
ATOM     16  C   UNL     1      -3.051   2.650  24.290  0.00  0.00    +0.235 C 
ATOM     33  H   UNL     1      -3.394   2.672  26.340  0.00  0.00    +0.150 HD
ENDROOT
BRANCH  16  11
ATOM      1  O   UNL     1       1.920  -0.796  22.655  0.00  0.00    -0.377 OA
ATOM      2  O   UNL     1       0.341   3.544  22.897  0.00  0.00    -0.252 OA
ATOM      5  N   UNL     1      -0.748   2.854  24.812  0.00  0.00    -0.271 N 
ATOM      6  N   UNL     1      -2.211   4.039  27.001  0.00  0.00    -0.312 NA
ATOM      7  N   UNL     1       1.065   1.595  23.877  0.00  0.00    -0.281 N 
ATOM     11  C   UNL     1      -1.955   3.644  24.542  0.00  0.00    +0.177 C 
ATOM     12  C   UNL     1      -2.297   4.626  25.662  0.00  0.00    +0.113 C 
ATOM     13  C   UNL     1      -0.600   2.355  26.189  0.00  0.00    +0.125 C 
ATOM     14  C   UNL     1      -0.888   3.452  27.211  0.00  0.00    +0.100 C 
ATOM     15  C   UNL     1       0.222   2.712  23.806  0.00  0.00    +0.306 C 
ATOM     18  C   UNL     1       0.681   0.296  24.444  0.00  0.00    +0.137 C 
ATOM     19  C   UNL     1       2.292   1.552  23.081  0.00  0.00    +0.137 C 
ATOM     21  C   UNL     1       0.668  -0.764  23.344  0.00  0.00    +0.179 C 
ATOM     22  C   UNL     1       2.195   0.460  22.027  0.00  0.00    +0.179 C 
ATOM     32  H   UNL     1      -2.917   3.307  27.087  0.00  0.00    +0.122 HD
ENDBRANCH  16  11
BRANCH   8  17
ATOM     17  C   UNL     1      -4.771   1.310  25.491  0.00  0.00    +0.163 C 
BRANCH  17  25
ATOM      4  O   UNL     1      -6.962   1.633  26.493  0.00  0.00    -0.274 OA
ATOM     10  N   UNL     1      -5.963   3.413  25.439  0.00  0.00    -0.328 N 
ATOM     25  C   UNL     1      -6.020   2.099  25.856  0.00  0.00    +0.231 C 
ATOM     35  H   UNL     1      -5.168   3.790  24.933  0.00  0.00    +0.145 HD
ATOM     36  H   UNL     1      -6.726   4.053  25.630  0.00  0.00    +0.145 HD
ENDBRANCH  17  25
BRANCH  17  20
ATOM     20  C   UNL     1      -4.964   0.597  24.147  0.00  0.00    +0.069 C 
BRANCH  20  23
ATOM      9  N   UNL     1      -3.906  -2.893  23.629  0.00  0.00    -0.360 N 
ATOM     23  C   UNL     1      -4.314  -0.764  24.110  0.00  0.00    -0.020 A 
ATOM     24  C   UNL     1      -3.126  -1.155  24.791  0.00  0.00    +0.003 A 
ATOM     26  C   UNL     1      -4.769  -1.854  23.405  0.00  0.00    +0.087 A 
ATOM     27  C   UNL     1      -2.893  -2.495  24.472  0.00  0.00    +0.047 A 
ATOM     28  C   UNL     1      -2.226  -0.496  25.650  0.00  0.00    +0.010 A 
ATOM     29  C   UNL     1      -1.800  -3.210  24.972  0.00  0.00    +0.026 A 
ATOM     30  C   UNL     1      -1.127  -1.199  26.158  0.00  0.00    +0.001 A 
ATOM     31  C   UNL     1      -0.920  -2.535  25.823  0.00  0.00    +0.002 A 
ATOM     34  H   UNL     1      -3.999  -3.818  23.234  0.00  0.00    +0.165 HD
ENDBRANCH  20  23
ENDBRANCH  17  20
ENDBRANCH   8  17
TORSDOF 5
ENDMDL
