MODEL 1
REMARK VINA RESULT:      -3.9      0.000      0.000
REMARK  Name = 75368651
REMARK  4 active torsions:
REMARK  status: ('A' for Active; 'I' for Inactive)
REMARK    1  A    between atoms: N_2  and  C_6
REMARK    2  A    between atoms: N_4  and  C_17
REMARK    3  A    between atoms: C_17  and  C_18
REMARK    4  A    between atoms: C_19  and  C_22
REMARK                            x       y       z     vdW  Elec       q    Type
REMARK                         _______ _______ _______ _____ _____    ______ ____
ROOT
ATOM      1  O   UNL     1      -5.505 -10.019  14.594  0.00  0.00    -0.252 OA
ATOM      2  N   UNL     1      -7.825  -9.718  14.285  0.00  0.00    -0.281 N 
ATOM      3  N   UNL     1      -6.575 -10.350  12.529  0.00  0.00    -0.278 N 
ATOM      4  N   UNL     1      -7.024 -10.222   9.756  0.00  0.00    -0.295 NA
ATOM      5  C   UNL     1      -7.937 -10.381  12.035  0.00  0.00    +0.109 C 
ATOM      7  C   UNL     1      -8.744  -9.734  13.160  0.00  0.00    +0.133 C 
ATOM      8  C   UNL     1      -8.029  -9.670  10.686  0.00  0.00    +0.109 C 
ATOM     11  C   UNL     1      -6.508 -10.032  13.892  0.00  0.00    +0.305 C 
ATOM     12  C   UNL     1      -5.492 -10.731  11.646  0.00  0.00    +0.125 C 
ATOM     13  C   UNL     1      -5.658 -10.043  10.288  0.00  0.00    +0.104 C 
ENDROOT
BRANCH   2   6
ATOM      6  C   UNL     1      -8.232  -9.279  15.598  0.00  0.00    +0.078 C 
ATOM      9  C   UNL     1      -8.310 -10.467  16.560  0.00  0.00    +0.022 C 
ATOM     10  C   UNL     1      -9.563  -8.527  15.530  0.00  0.00    +0.022 C 
ATOM     14  C   UNL     1      -8.790 -10.038  17.945  0.00  0.00    +0.002 C 
ATOM     15  C   UNL     1     -10.039  -8.100  16.916  0.00  0.00    +0.002 C 
ATOM     16  C   UNL     1     -10.115  -9.286  17.874  0.00  0.00    +0.000 C 
ENDBRANCH   2   6
BRANCH   4  17
ATOM     17  C   UNL     1      -7.145  -9.590   8.442  0.00  0.00    +0.120 C 
BRANCH  17  18
ATOM     18  C   UNL     1      -8.256  -8.574   8.408  0.00  0.00    -0.030 A 
ATOM     19  C   UNL     1      -9.585  -8.970   8.257  0.00  0.00    -0.046 A 
ATOM     20  C   UNL     1      -7.941  -7.221   8.529  0.00  0.00    +0.005 A 
ATOM     21  C   UNL     1     -10.599  -8.012   8.228  0.00  0.00    +0.003 A 
ATOM     22  C   UNL     1      -9.947 -10.413   8.125  0.00  0.00    +0.044 C 
ATOM     23  C   UNL     1      -8.954  -6.263   8.499  0.00  0.00    +0.000 A 
ATOM     24  C   UNL     1     -10.283  -6.659   8.349  0.00  0.00    +0.000 A 
ENDBRANCH  17  18
ENDBRANCH   4  17
TORSDOF 3
ENDMDL
MODEL 2
REMARK VINA RESULT:      -2.6      1.752      2.409
REMARK  Name = 75368651
REMARK  4 active torsions:
REMARK  status: ('A' for Active; 'I' for Inactive)
REMARK    1  A    between atoms: N_2  and  C_6
REMARK    2  A    between atoms: N_4  and  C_17
REMARK    3  A    between atoms: C_17  and  C_18
REMARK    4  A    between atoms: C_19  and  C_22
REMARK                            x       y       z     vdW  Elec       q    Type
REMARK                         _______ _______ _______ _____ _____    ______ ____
ROOT
ATOM      1  O   UNL     1      -4.945 -10.577  16.058  0.00  0.00    -0.252 OA
ATOM      2  N   UNL     1      -6.980 -10.496  14.868  0.00  0.00    -0.281 N 
ATOM      3  N   UNL     1      -5.062 -10.676  13.714  0.00  0.00    -0.278 N 
ATOM      4  N   UNL     1      -4.424 -10.136  11.029  0.00  0.00    -0.295 NA
ATOM      5  C   UNL     1      -6.101 -10.780  12.710  0.00  0.00    +0.109 C 
ATOM      7  C   UNL     1      -7.378 -10.428  13.472  0.00  0.00    +0.133 C 
ATOM      8  C   UNL     1      -5.788  -9.868  11.525  0.00  0.00    +0.109 C 
ATOM     11  C   UNL     1      -5.581 -10.587  15.013  0.00  0.00    +0.305 C 
ATOM     12  C   UNL     1      -3.675 -10.777  13.311  0.00  0.00    +0.125 C 
ATOM     13  C   UNL     1      -3.421  -9.895  12.086  0.00  0.00    +0.104 C 
ENDROOT
BRANCH   2   6
ATOM      6  C   UNL     1      -7.931 -10.334  15.942  0.00  0.00    +0.078 C 
ATOM      9  C   UNL     1      -9.361 -10.328  15.397  0.00  0.00    +0.022 C 
ATOM     10  C   UNL     1      -7.633  -9.062  16.742  0.00  0.00    +0.022 C 
ATOM     14  C   UNL     1     -10.385 -10.104  16.507  0.00  0.00    +0.002 C 
ATOM     15  C   UNL     1      -8.659  -8.843  17.850  0.00  0.00    +0.002 C 
ATOM     16  C   UNL     1     -10.084  -8.839  17.304  0.00  0.00    +0.000 C 
ENDBRANCH   2   6
BRANCH   4  17
ATOM     17  C   UNL     1      -4.136  -9.312   9.856  0.00  0.00    +0.120 C 
BRANCH  17  18
ATOM     18  C   UNL     1      -5.368  -8.610   9.348  0.00  0.00    -0.030 A 
ATOM     19  C   UNL     1      -6.331  -9.298   8.610  0.00  0.00    -0.046 A 
ATOM     20  C   UNL     1      -5.538  -7.253   9.623  0.00  0.00    +0.005 A 
ATOM     21  C   UNL     1      -7.465  -8.628   8.148  0.00  0.00    +0.003 A 
ATOM     22  C   UNL     1      -6.171 -10.750   8.301  0.00  0.00    +0.044 C 
ATOM     23  C   UNL     1      -6.670  -6.584   9.162  0.00  0.00    +0.000 A 
ATOM     24  C   UNL     1      -7.634  -7.271   8.424  0.00  0.00    +0.000 A 
ENDBRANCH  17  18
ENDBRANCH   4  17
TORSDOF 3
ENDMDL
