MODEL 1
REMARK VINA RESULT:      13.8      0.000      0.000
REMARK  Name = 7143719
REMARK  2 active torsions:
REMARK  status: ('A' for Active; 'I' for Inactive)
REMARK    1  A    between atoms: N_5  and  C_20
REMARK    2  A    between atoms: C_16  and  C_18
REMARK                            x       y       z     vdW  Elec       q    Type
REMARK                         _______ _______ _______ _____ _____    ______ ____
ROOT
ATOM      1  O   UNL     1       0.695   1.515  26.101  0.00  0.00    -0.267 OA
ATOM      2  O   UNL     1      -4.196   1.579  22.997  0.00  0.00    -0.252 OA
ATOM      3  N   UNL     1      -0.791   3.133  25.316  0.00  0.00    -0.311 N 
ATOM      4  N   UNL     1      -3.943   2.960  24.837  0.00  0.00    -0.284 N 
ATOM      5  N   UNL     1      -4.474   0.679  25.117  0.00  0.00    -0.269 N 
ATOM      6  C   UNL     1      -2.716   4.038  26.737  0.00  0.00    +0.027 C 
ATOM      7  C   UNL     1      -2.394   4.870  24.448  0.00  0.00    +0.054 C 
ATOM      8  C   UNL     1      -2.561   5.303  25.902  0.00  0.00    +0.018 C 
ATOM      9  C   UNL     1      -1.421   3.224  26.640  0.00  0.00    +0.130 C 
ATOM     10  C   UNL     1      -3.944   3.223  26.284  0.00  0.00    +0.114 C 
ATOM     11  C   UNL     1      -3.665   4.129  23.993  0.00  0.00    +0.119 C 
ATOM     12  C   UNL     1      -1.184   3.973  24.272  0.00  0.00    +0.027 A 
ATOM     13  C   UNL     1      -0.516   3.958  23.108  0.00  0.00    +0.022 A 
ATOM     14  C   UNL     1       0.294   2.243  25.190  0.00  0.00    +0.259 A 
ATOM     15  C   UNL     1      -4.200   1.714  24.224  0.00  0.00    +0.306 C 
ATOM     16  C   UNL     1       0.998   2.221  23.861  0.00  0.00    +0.047 A 
ATOM     17  C   UNL     1       0.587   3.064  22.901  0.00  0.00    +0.015 A 
ATOM     34  H   UNL     1      -4.887   0.915  26.012  0.00  0.00    +0.156 HD
ENDROOT
BRANCH  16  18
ATOM     18  C   UNL     1       2.110   1.289  23.601  0.00  0.00    -0.012 A 
ATOM     19  C   UNL     1       3.423   1.675  23.873  0.00  0.00    +0.017 A 
ATOM     21  C   UNL     1       1.850   0.022  23.085  0.00  0.00    +0.009 A 
ATOM     22  C   UNL     1       4.494   0.798  23.631  0.00  0.00    -0.017 A 
ATOM     23  C   UNL     1       2.901  -0.861  22.838  0.00  0.00    +0.009 A 
ATOM     24  C   UNL     1       4.229  -0.489  23.106  0.00  0.00    -0.018 A 
ATOM     27  C   UNL     1       5.821   1.170  23.898  0.00  0.00    +0.008 A 
ATOM     28  C   UNL     1       5.299  -1.366  22.863  0.00  0.00    +0.008 A 
ATOM     31  C   UNL     1       6.872   0.287  23.651  0.00  0.00    +0.001 A 
ATOM     32  C   UNL     1       6.612  -0.979  23.134  0.00  0.00    +0.001 A 
ENDBRANCH  16  18
BRANCH   5  20
ATOM     20  C   UNL     1      -4.286  -0.709  24.903  0.00  0.00    +0.035 A 
ATOM     25  C   UNL     1      -4.856  -1.321  23.789  0.00  0.00    +0.023 A 
ATOM     26  C   UNL     1      -3.534  -1.453  25.807  0.00  0.00    +0.023 A 
ATOM     29  C   UNL     1      -4.670  -2.687  23.578  0.00  0.00    +0.002 A 
ATOM     30  C   UNL     1      -3.348  -2.819  25.595  0.00  0.00    +0.002 A 
ATOM     33  C   UNL     1      -3.916  -3.436  24.482  0.00  0.00    +0.000 A 
ENDBRANCH   5  20
TORSDOF 2
ENDMDL
MODEL 2
REMARK VINA RESULT:      17.7      1.794      5.016
REMARK  Name = 7143719
REMARK  2 active torsions:
REMARK  status: ('A' for Active; 'I' for Inactive)
REMARK    1  A    between atoms: N_5  and  C_20
REMARK    2  A    between atoms: C_16  and  C_18
REMARK                            x       y       z     vdW  Elec       q    Type
REMARK                         _______ _______ _______ _____ _____    ______ ____
ROOT
ATOM      1  O   UNL     1      -0.397  -0.204  22.045  0.00  0.00    -0.267 OA
ATOM      2  O   UNL     1      -3.152   1.748  26.753  0.00  0.00    -0.252 OA
ATOM      3  N   UNL     1      -1.877  -1.076  23.624  0.00  0.00    -0.311 N 
ATOM      4  N   UNL     1      -4.225   0.360  25.243  0.00  0.00    -0.284 N 
ATOM      5  N   UNL     1      -3.964   2.657  24.779  0.00  0.00    -0.269 N 
ATOM      6  C   UNL     1      -4.406  -1.145  23.247  0.00  0.00    +0.027 C 
ATOM      7  C   UNL     1      -3.462  -2.008  25.345  0.00  0.00    +0.054 C 
ATOM      8  C   UNL     1      -4.377  -2.355  24.173  0.00  0.00    +0.018 C 
ATOM      9  C   UNL     1      -2.997  -0.921  22.686  0.00  0.00    +0.130 C 
ATOM     10  C   UNL     1      -4.938   0.102  23.982  0.00  0.00    +0.114 C 
ATOM     11  C   UNL     1      -4.055  -0.812  26.112  0.00  0.00    +0.119 C 
ATOM     12  C   UNL     1      -2.059  -1.673  24.873  0.00  0.00    +0.027 A 
ATOM     13  C   UNL     1      -1.003  -1.914  25.665  0.00  0.00    +0.022 A 
ATOM     14  C   UNL     1      -0.603  -0.697  23.157  0.00  0.00    +0.259 A 
ATOM     15  C   UNL     1      -3.728   1.611  25.669  0.00  0.00    +0.306 C 
ATOM     16  C   UNL     1       0.557  -0.945  24.082  0.00  0.00    +0.047 A 
ATOM     17  C   UNL     1       0.322  -1.539  25.262  0.00  0.00    +0.015 A 
ATOM     34  H   UNL     1      -4.773   2.597  24.171  0.00  0.00    +0.156 HD
ENDROOT
BRANCH  16  18
ATOM     18  C   UNL     1       1.925  -0.538  23.718  0.00  0.00    -0.012 A 
ATOM     19  C   UNL     1       3.009  -1.350  24.054  0.00  0.00    +0.017 A 
ATOM     21  C   UNL     1       2.138   0.658  23.037  0.00  0.00    +0.009 A 
ATOM     22  C   UNL     1       4.320  -0.975  23.714  0.00  0.00    -0.017 A 
ATOM     23  C   UNL     1       3.432   1.046  22.692  0.00  0.00    +0.009 A 
ATOM     24  C   UNL     1       4.534   0.240  23.022  0.00  0.00    -0.018 A 
ATOM     27  C   UNL     1       5.422  -1.780  24.044  0.00  0.00    +0.008 A 
ATOM     28  C   UNL     1       5.845   0.615  22.681  0.00  0.00    +0.008 A 
ATOM     31  C   UNL     1       6.716  -1.393  23.698  0.00  0.00    +0.001 A 
ATOM     32  C   UNL     1       6.927  -0.197  23.019  0.00  0.00    +0.001 A 
ENDBRANCH  16  18
BRANCH   5  20
ATOM     20  C   UNL     1      -3.217   3.854  24.647  0.00  0.00    +0.035 A 
ATOM     25  C   UNL     1      -1.928   3.927  25.168  0.00  0.00    +0.023 A 
ATOM     26  C   UNL     1      -3.776   4.951  23.997  0.00  0.00    +0.023 A 
ATOM     29  C   UNL     1      -1.192   5.105  25.037  0.00  0.00    +0.002 A 
ATOM     30  C   UNL     1      -3.040   6.128  23.865  0.00  0.00    +0.002 A 
ATOM     33  C   UNL     1      -1.749   6.206  24.386  0.00  0.00    +0.000 A 
ENDBRANCH   5  20
TORSDOF 2
ENDMDL
