MODEL 1
REMARK VINA RESULT:      -6.1      0.000      0.000
REMARK  Name = 75536722
REMARK  8 active torsions:
REMARK  status: ('A' for Active; 'I' for Inactive)
REMARK    1  A    between atoms: O_2  and  C_12
REMARK    2  A    between atoms: N_4  and  C_7
REMARK    3  A    between atoms: N_4  and  C_8
REMARK    4  A    between atoms: N_5  and  C_15
REMARK    5  A    between atoms: N_6  and  C_17
REMARK    6  A    between atoms: C_13  and  C_15
REMARK    7  A    between atoms: C_17  and  C_18
REMARK    8  A    between atoms: C_17  and  C_19
REMARK                            x       y       z     vdW  Elec       q    Type
REMARK                         _______ _______ _______ _____ _____    ______ ____
ROOT
ATOM      1  O   UNL     1      -0.609   1.146  26.056  0.00  0.00    -0.371 OA
ATOM      8  C   UNL     1      -0.462  -0.857  24.790  0.00  0.00    +0.111 C 
ATOM     12  C   UNL     1      -0.363   0.330  23.850  0.00  0.00    +0.164 C 
ATOM     13  C   UNL     1       0.055   1.432  24.815  0.00  0.00    +0.165 C 
ATOM     14  C   UNL     1      -1.073  -0.214  26.024  0.00  0.00    +0.181 C 
ENDROOT
BRANCH  12   2
ATOM      2  O   UNL     1       0.592   0.138  22.824  0.00  0.00    -0.388 OA
ATOM     21  H   UNL     1       0.643  -0.813  22.629  0.00  0.00    +0.210 HD
ENDBRANCH  12   2
BRANCH   8   4
ATOM      4  N   UNL     1      -1.264  -1.951  24.264  0.00  0.00    -0.306 NA
ATOM     20  H   UNL     1      -0.819  -2.829  24.533  0.00  0.00    +0.123 HD
BRANCH   4   7
ATOM      7  C   UNL     1      -2.630  -1.832  24.753  0.00  0.00    +0.054 C 
ATOM      9  C   UNL     1      -3.407  -3.121  24.407  0.00  0.00    +0.019 C 
ATOM     10  C   UNL     1      -3.490  -1.116  23.690  0.00  0.00    +0.019 C 
ATOM     11  C   UNL     1      -4.562  -2.198  23.954  0.00  0.00    +0.003 C 
ENDBRANCH   4   7
ENDBRANCH   8   4
BRANCH  13  15
ATOM     15  C   UNL     1      -0.326   2.823  24.338  0.00  0.00    +0.140 C 
BRANCH  15   5
ATOM      3  O   UNL     1      -3.046   2.310  23.523  0.00  0.00    -0.253 OA
ATOM      5  N   UNL     1      -1.522   3.285  24.980  0.00  0.00    -0.297 N 
ATOM      6  N   UNL     1      -3.786   3.564  25.329  0.00  0.00    -0.297 N 
ATOM     16  C   UNL     1      -2.809   2.991  24.520  0.00  0.00    +0.300 C 
ATOM     22  H   UNL     1      -1.428   3.869  25.806  0.00  0.00    +0.150 HD
ATOM     23  H   UNL     1      -3.492   4.046  26.175  0.00  0.00    +0.150 HD
BRANCH   6  17
ATOM     17  C   UNL     1      -5.200   3.414  25.076  0.00  0.00    +0.068 C 
ATOM     18  C   UNL     1      -5.966   4.612  25.619  0.00  0.00    +0.027 C 
ATOM     19  C   UNL     1      -5.715   2.112  25.674  0.00  0.00    +0.027 C 
ENDBRANCH   6  17
ENDBRANCH  15   5
ENDBRANCH  13  15
TORSDOF 6
ENDMDL
MODEL 2
REMARK VINA RESULT:      -5.9      2.116      4.889
REMARK  Name = 75536722
REMARK  8 active torsions:
REMARK  status: ('A' for Active; 'I' for Inactive)
REMARK    1  A    between atoms: O_2  and  C_12
REMARK    2  A    between atoms: N_4  and  C_7
REMARK    3  A    between atoms: N_4  and  C_8
REMARK    4  A    between atoms: N_5  and  C_15
REMARK    5  A    between atoms: N_6  and  C_17
REMARK    6  A    between atoms: C_13  and  C_15
REMARK    7  A    between atoms: C_17  and  C_18
REMARK    8  A    between atoms: C_17  and  C_19
REMARK                            x       y       z     vdW  Elec       q    Type
REMARK                         _______ _______ _______ _____ _____    ______ ____
ROOT
ATOM      1  O   UNL     1      -2.271   2.827  23.204  0.00  0.00    -0.371 OA
ATOM      8  C   UNL     1      -4.147   1.793  24.228  0.00  0.00    +0.111 C 
ATOM     12  C   UNL     1      -3.305   2.462  25.299  0.00  0.00    +0.164 C 
ATOM     13  C   UNL     1      -2.518   3.466  24.467  0.00  0.00    +0.165 C 
ATOM     14  C   UNL     1      -3.155   1.700  23.080  0.00  0.00    +0.181 C 
ENDROOT
BRANCH  12   2
ATOM      2  O   UNL     1      -4.088   3.099  26.291  0.00  0.00    -0.388 OA
ATOM     21  H   UNL     1      -4.799   2.491  26.557  0.00  0.00    +0.210 HD
ENDBRANCH  12   2
BRANCH   8   4
ATOM      4  N   UNL     1      -4.675   0.498  24.627  0.00  0.00    -0.306 NA
ATOM     20  H   UNL     1      -5.515   0.314  24.078  0.00  0.00    +0.123 HD
BRANCH   4   7
ATOM      7  C   UNL     1      -3.649  -0.521  24.453  0.00  0.00    +0.054 C 
ATOM      9  C   UNL     1      -4.300  -1.807  23.899  0.00  0.00    +0.019 C 
ATOM     10  C   UNL     1      -3.457  -1.280  25.784  0.00  0.00    +0.019 C 
ATOM     11  C   UNL     1      -3.459  -2.577  24.943  0.00  0.00    +0.003 C 
ENDBRANCH   4   7
ENDBRANCH   8   4
BRANCH  13  15
ATOM     15  C   UNL     1      -1.200   3.871  25.104  0.00  0.00    +0.140 C 
BRANCH  15   5
ATOM      3  O   UNL     1      -0.132   1.190  25.071  0.00  0.00    -0.253 OA
ATOM      5  N   UNL     1      -0.084   3.394  24.340  0.00  0.00    -0.297 N 
ATOM      6  N   UNL     1       1.469   1.884  23.543  0.00  0.00    -0.297 N 
ATOM     16  C   UNL     1       0.373   2.074  24.380  0.00  0.00    +0.300 C 
ATOM     22  H   UNL     1       0.409   4.056  23.748  0.00  0.00    +0.150 HD
ATOM     23  H   UNL     1       1.766   2.658  22.954  0.00  0.00    +0.150 HD
BRANCH   6  17
ATOM     17  C   UNL     1       2.133   0.611  23.398  0.00  0.00    +0.068 C 
ATOM     18  C   UNL     1       3.532   0.804  22.829  0.00  0.00    +0.027 C 
ATOM     19  C   UNL     1       1.307  -0.328  22.527  0.00  0.00    +0.027 C 
ENDBRANCH   6  17
ENDBRANCH  15   5
ENDBRANCH  13  15
TORSDOF 6
ENDMDL
MODEL 3
REMARK VINA RESULT:      -5.6      1.834      4.091
REMARK  Name = 75536722
REMARK  8 active torsions:
REMARK  status: ('A' for Active; 'I' for Inactive)
REMARK    1  A    between atoms: O_2  and  C_12
REMARK    2  A    between atoms: N_4  and  C_7
REMARK    3  A    between atoms: N_4  and  C_8
REMARK    4  A    between atoms: N_5  and  C_15
REMARK    5  A    between atoms: N_6  and  C_17
REMARK    6  A    between atoms: C_13  and  C_15
REMARK    7  A    between atoms: C_17  and  C_18
REMARK    8  A    between atoms: C_17  and  C_19
REMARK                            x       y       z     vdW  Elec       q    Type
REMARK                         _______ _______ _______ _____ _____    ______ ____
ROOT
ATOM      1  O   UNL     1      -1.365  -2.000  23.559  0.00  0.00    -0.371 OA
ATOM      8  C   UNL     1       0.019  -0.440  24.695  0.00  0.00    +0.111 C 
ATOM     12  C   UNL     1      -1.235  -0.679  25.516  0.00  0.00    +0.164 C 
ATOM     13  C   UNL     1      -1.700  -2.017  24.956  0.00  0.00    +0.165 C 
ATOM     14  C   UNL     1      -0.416  -0.944  23.329  0.00  0.00    +0.181 C 
ENDROOT
BRANCH  12   2
ATOM      2  O   UNL     1      -0.973  -0.753  26.905  0.00  0.00    -0.388 OA
ATOM     21  H   UNL     1      -1.809  -0.938  27.364  0.00  0.00    +0.210 HD
ENDBRANCH  12   2
BRANCH   8   4
ATOM      4  N   UNL     1       0.446   0.950  24.676  0.00  0.00    -0.306 NA
ATOM     20  H   UNL     1       0.903   1.131  23.782  0.00  0.00    +0.123 HD
BRANCH   4   7
ATOM      7  C   UNL     1      -0.700   1.816  24.914  0.00  0.00    +0.054 C 
ATOM      9  C   UNL     1      -0.547   3.103  24.076  0.00  0.00    +0.019 C 
ATOM     10  C   UNL     1      -0.431   2.684  26.162  0.00  0.00    +0.019 C 
ATOM     11  C   UNL     1      -0.980   3.875  25.343  0.00  0.00    +0.003 C 
ENDBRANCH   4   7
ENDBRANCH   8   4
BRANCH  13  15
ATOM     15  C   UNL     1      -3.192  -2.251  25.122  0.00  0.00    +0.140 C 
BRANCH  15   5
ATOM      3  O   UNL     1      -3.949  -0.002  23.480  0.00  0.00    -0.253 OA
ATOM      5  N   UNL     1      -3.863  -1.057  25.547  0.00  0.00    -0.297 N 
ATOM      6  N   UNL     1      -4.840   1.025  25.358  0.00  0.00    -0.297 N 
ATOM     16  C   UNL     1      -4.196  -0.008  24.685  0.00  0.00    +0.300 C 
ATOM     22  H   UNL     1      -4.097  -0.963  26.531  0.00  0.00    +0.150 HD
ATOM     23  H   UNL     1      -5.068   0.894  26.341  0.00  0.00    +0.150 HD
BRANCH   6  17
ATOM     17  C   UNL     1      -5.291   2.228  24.700  0.00  0.00    +0.068 C 
ATOM     18  C   UNL     1      -4.152   2.859  23.910  0.00  0.00    +0.027 C 
ATOM     19  C   UNL     1      -5.869   3.208  25.713  0.00  0.00    +0.027 C 
ENDBRANCH   6  17
ENDBRANCH  15   5
ENDBRANCH  13  15
TORSDOF 6
ENDMDL
MODEL 4
REMARK VINA RESULT:      -4.9      1.367      4.782
REMARK  Name = 75536722
REMARK  8 active torsions:
REMARK  status: ('A' for Active; 'I' for Inactive)
REMARK    1  A    between atoms: O_2  and  C_12
REMARK    2  A    between atoms: N_4  and  C_7
REMARK    3  A    between atoms: N_4  and  C_8
REMARK    4  A    between atoms: N_5  and  C_15
REMARK    5  A    between atoms: N_6  and  C_17
REMARK    6  A    between atoms: C_13  and  C_15
REMARK    7  A    between atoms: C_17  and  C_18
REMARK    8  A    between atoms: C_17  and  C_19
REMARK                            x       y       z     vdW  Elec       q    Type
REMARK                         _______ _______ _______ _____ _____    ______ ____
ROOT
ATOM      1  O   UNL     1      -0.835   2.600  23.209  0.00  0.00    -0.371 OA
ATOM      8  C   UNL     1      -1.882   3.485  25.147  0.00  0.00    +0.111 C 
ATOM     12  C   UNL     1      -0.963   2.349  25.556  0.00  0.00    +0.164 C 
ATOM     13  C   UNL     1      -0.030   2.280  24.355  0.00  0.00    +0.165 C 
ATOM     14  C   UNL     1      -2.054   3.213  23.662  0.00  0.00    +0.181 C 
ENDROOT
BRANCH  12   2
ATOM      2  O   UNL     1      -0.261   2.619  26.755  0.00  0.00    -0.388 OA
ATOM     21  H   UNL     1      -0.246   3.581  26.891  0.00  0.00    +0.210 HD
ENDBRANCH  12   2
BRANCH   8   4
ATOM      4  N   UNL     1      -3.144   3.504  25.870  0.00  0.00    -0.306 NA
ATOM     20  H   UNL     1      -3.272   4.437  26.263  0.00  0.00    +0.123 HD
BRANCH   4   7
ATOM      7  C   UNL     1      -4.223   3.110  24.976  0.00  0.00    +0.054 C 
ATOM      9  C   UNL     1      -5.578   3.423  25.647  0.00  0.00    +0.019 C 
ATOM     10  C   UNL     1      -4.544   1.616  25.193  0.00  0.00    +0.019 C 
ATOM     11  C   UNL     1      -6.035   2.024  25.175  0.00  0.00    +0.003 C 
ENDBRANCH   4   7
ENDBRANCH   8   4
BRANCH  13  15
ATOM     15  C   UNL     1       0.609   0.915  24.169  0.00  0.00    +0.140 C 
BRANCH  15   5
ATOM      3  O   UNL     1      -1.082  -0.592  25.957  0.00  0.00    -0.253 OA
ATOM      5  N   UNL     1      -0.367  -0.072  23.809  0.00  0.00    -0.297 N 
ATOM      6  N   UNL     1      -2.013  -1.660  24.120  0.00  0.00    -0.297 N 
ATOM     16  C   UNL     1      -1.150  -0.761  24.740  0.00  0.00    +0.300 C 
ATOM     22  H   UNL     1      -0.486  -0.292  22.824  0.00  0.00    +0.150 HD
ATOM     23  H   UNL     1      -2.049  -1.672  23.104  0.00  0.00    +0.150 HD
BRANCH   6  17
ATOM     17  C   UNL     1      -2.930  -2.499  24.854  0.00  0.00    +0.068 C 
ATOM     18  C   UNL     1      -4.039  -3.001  23.939  0.00  0.00    +0.027 C 
ATOM     19  C   UNL     1      -3.501  -1.747  26.050  0.00  0.00    +0.027 C 
ENDBRANCH   6  17
ENDBRANCH  15   5
ENDBRANCH  13  15
TORSDOF 6
ENDMDL
MODEL 5
REMARK VINA RESULT:      -4.5      1.865      3.979
REMARK  Name = 75536722
REMARK  8 active torsions:
REMARK  status: ('A' for Active; 'I' for Inactive)
REMARK    1  A    between atoms: O_2  and  C_12
REMARK    2  A    between atoms: N_4  and  C_7
REMARK    3  A    between atoms: N_4  and  C_8
REMARK    4  A    between atoms: N_5  and  C_15
REMARK    5  A    between atoms: N_6  and  C_17
REMARK    6  A    between atoms: C_13  and  C_15
REMARK    7  A    between atoms: C_17  and  C_18
REMARK    8  A    between atoms: C_17  and  C_19
REMARK                            x       y       z     vdW  Elec       q    Type
REMARK                         _______ _______ _______ _____ _____    ______ ____
ROOT
ATOM      1  O   UNL     1      -2.079  -1.554  25.544  0.00  0.00    -0.371 OA
ATOM      8  C   UNL     1      -4.093  -0.748  24.578  0.00  0.00    +0.111 C 
ATOM     12  C   UNL     1      -2.915  -0.070  23.903  0.00  0.00    +0.164 C 
ATOM     13  C   UNL     1      -1.790  -1.043  24.232  0.00  0.00    +0.165 C 
ATOM     14  C   UNL     1      -3.452  -1.263  25.856  0.00  0.00    +0.181 C 
ENDROOT
BRANCH  12   2
ATOM      2  O   UNL     1      -3.094   0.075  22.507  0.00  0.00    -0.388 OA
ATOM     21  H   UNL     1      -2.446   0.722  22.181  0.00  0.00    +0.210 HD
ENDBRANCH  12   2
BRANCH   8   4
ATOM      4  N   UNL     1      -5.214   0.144  24.826  0.00  0.00    -0.306 NA
ATOM     20  H   UNL     1      -5.866  -0.329  25.452  0.00  0.00    +0.123 HD
BRANCH   4   7
ATOM      7  C   UNL     1      -4.724   1.405  25.364  0.00  0.00    +0.054 C 
ATOM      9  C   UNL     1      -5.847   2.079  26.181  0.00  0.00    +0.019 C 
ATOM     10  C   UNL     1      -4.922   2.518  24.313  0.00  0.00    +0.019 C 
ATOM     11  C   UNL     1      -5.457   3.395  25.469  0.00  0.00    +0.003 C 
ENDBRANCH   4   7
ENDBRANCH   8   4
BRANCH  13  15
ATOM     15  C   UNL     1      -0.416  -0.396  24.225  0.00  0.00    +0.140 C 
BRANCH  15   5
ATOM      3  O   UNL     1      -0.782   1.700  26.174  0.00  0.00    -0.253 OA
ATOM      5  N   UNL     1      -0.504   1.013  23.973  0.00  0.00    -0.297 N 
ATOM      6  N   UNL     1      -0.733   3.258  24.457  0.00  0.00    -0.297 N 
ATOM     16  C   UNL     1      -0.682   1.968  24.978  0.00  0.00    +0.300 C 
ATOM     22  H   UNL     1      -0.446   1.332  23.011  0.00  0.00    +0.150 HD
ATOM     23  H   UNL     1      -0.564   3.383  23.462  0.00  0.00    +0.150 HD
BRANCH   6  17
ATOM     17  C   UNL     1      -0.911   4.429  25.281  0.00  0.00    +0.068 C 
ATOM     18  C   UNL     1      -2.310   4.448  25.882  0.00  0.00    +0.027 C 
ATOM     19  C   UNL     1      -0.639   5.695  24.478  0.00  0.00    +0.027 C 
ENDBRANCH   6  17
ENDBRANCH  15   5
ENDBRANCH  13  15
TORSDOF 6
ENDMDL
MODEL 6
REMARK VINA RESULT:      -4.4      1.652      2.169
REMARK  Name = 75536722
REMARK  8 active torsions:
REMARK  status: ('A' for Active; 'I' for Inactive)
REMARK    1  A    between atoms: O_2  and  C_12
REMARK    2  A    between atoms: N_4  and  C_7
REMARK    3  A    between atoms: N_4  and  C_8
REMARK    4  A    between atoms: N_5  and  C_15
REMARK    5  A    between atoms: N_6  and  C_17
REMARK    6  A    between atoms: C_13  and  C_15
REMARK    7  A    between atoms: C_17  and  C_18
REMARK    8  A    between atoms: C_17  and  C_19
REMARK                            x       y       z     vdW  Elec       q    Type
REMARK                         _______ _______ _______ _____ _____    ______ ____
ROOT
ATOM      1  O   UNL     1       0.034   3.181  25.670  0.00  0.00    -0.371 OA
ATOM      8  C   UNL     1      -0.376   1.331  24.240  0.00  0.00    +0.111 C 
ATOM     12  C   UNL     1      -1.468   2.364  24.036  0.00  0.00    +0.164 C 
ATOM     13  C   UNL     1      -0.790   3.616  24.576  0.00  0.00    +0.165 C 
ATOM     14  C   UNL     1       0.193   1.755  25.583  0.00  0.00    +0.181 C 
ENDROOT
BRANCH  12   2
ATOM      2  O   UNL     1      -1.837   2.509  22.678  0.00  0.00    -0.388 OA
ATOM     21  H   UNL     1      -1.085   2.236  22.126  0.00  0.00    +0.210 HD
ENDBRANCH  12   2
BRANCH   8   4
ATOM      4  N   UNL     1      -0.862  -0.040  24.237  0.00  0.00    -0.306 NA
ATOM     20  H   UNL     1      -0.181  -0.621  24.726  0.00  0.00    +0.123 HD
BRANCH   4   7
ATOM      7  C   UNL     1      -2.186  -0.088  24.841  0.00  0.00    +0.054 C 
ATOM      9  C   UNL     1      -2.151  -1.024  26.068  0.00  0.00    +0.019 C 
ATOM     10  C   UNL     1      -3.030  -1.169  24.132  0.00  0.00    +0.019 C 
ATOM     11  C   UNL     1      -3.478  -1.620  25.541  0.00  0.00    +0.003 C 
ENDBRANCH   4   7
ENDBRANCH   8   4
BRANCH  13  15
ATOM     15  C   UNL     1      -1.771   4.669  25.060  0.00  0.00    +0.140 C 
BRANCH  15   5
ATOM      3  O   UNL     1      -4.207   3.541  24.002  0.00  0.00    -0.253 OA
ATOM      5  N   UNL     1      -2.845   4.078  25.805  0.00  0.00    -0.297 N 
ATOM      6  N   UNL     1      -4.875   3.041  26.166  0.00  0.00    -0.297 N 
ATOM     16  C   UNL     1      -3.997   3.551  25.214  0.00  0.00    +0.300 C 
ATOM     22  H   UNL     1      -2.770   4.053  26.817  0.00  0.00    +0.150 HD
ATOM     23  H   UNL     1      -4.578   3.026  27.138  0.00  0.00    +0.150 HD
BRANCH   6  17
ATOM     17  C   UNL     1      -6.141   2.438  25.821  0.00  0.00    +0.068 C 
ATOM     18  C   UNL     1      -6.758   1.766  27.040  0.00  0.00    +0.027 C 
ATOM     19  C   UNL     1      -5.968   1.451  24.674  0.00  0.00    +0.027 C 
ENDBRANCH   6  17
ENDBRANCH  15   5
ENDBRANCH  13  15
TORSDOF 6
ENDMDL
MODEL 7
REMARK VINA RESULT:      -3.8     13.975     16.545
REMARK  Name = 75536722
REMARK  8 active torsions:
REMARK  status: ('A' for Active; 'I' for Inactive)
REMARK    1  A    between atoms: O_2  and  C_12
REMARK    2  A    between atoms: N_4  and  C_7
REMARK    3  A    between atoms: N_4  and  C_8
REMARK    4  A    between atoms: N_5  and  C_15
REMARK    5  A    between atoms: N_6  and  C_17
REMARK    6  A    between atoms: C_13  and  C_15
REMARK    7  A    between atoms: C_17  and  C_18
REMARK    8  A    between atoms: C_17  and  C_19
REMARK                            x       y       z     vdW  Elec       q    Type
REMARK                         _______ _______ _______ _____ _____    ______ ____
ROOT
ATOM      1  O   UNL     1      -4.371 -10.492  15.475  0.00  0.00    -0.371 OA
ATOM      8  C   UNL     1      -6.573 -10.045  16.241  0.00  0.00    +0.111 C 
ATOM     12  C   UNL     1      -6.555  -9.981  14.725  0.00  0.00    +0.164 C 
ATOM     13  C   UNL     1      -5.297 -10.781  14.414  0.00  0.00    +0.165 C 
ATOM     14  C   UNL     1      -5.096  -9.901  16.566  0.00  0.00    +0.181 C 
ENDROOT
BRANCH  12   2
ATOM      2  O   UNL     1      -7.705 -10.561  14.139  0.00  0.00    -0.388 OA
ATOM     21  H   UNL     1      -7.728 -11.503  14.377  0.00  0.00    +0.210 HD
ENDBRANCH  12   2
BRANCH   8   4
ATOM      4  N   UNL     1      -7.393  -9.014  16.857  0.00  0.00    -0.306 NA
ATOM     20  H   UNL     1      -7.224  -8.136  16.366  0.00  0.00    +0.123 HD
BRANCH   4   7
ATOM      7  C   UNL     1      -8.791  -9.421  16.829  0.00  0.00    +0.054 C 
ATOM      9  C   UNL     1      -9.676  -8.229  17.251  0.00  0.00    +0.019 C 
ATOM     10  C   UNL     1      -9.157 -10.075  18.179  0.00  0.00    +0.019 C 
ATOM     11  C   UNL     1     -10.451  -9.230  18.137  0.00  0.00    +0.003 C 
ENDBRANCH   4   7
ENDBRANCH   8   4
BRANCH  13  15
ATOM     15  C   UNL     1      -4.672 -10.422  13.077  0.00  0.00    +0.140 C 
BRANCH  15   5
ATOM      3  O   UNL     1      -4.529 -10.242  10.200  0.00  0.00    -0.253 OA
ATOM      5  N   UNL     1      -5.631  -9.815  12.200  0.00  0.00    -0.297 N 
ATOM      6  N   UNL     1      -6.561  -9.122  10.204  0.00  0.00    -0.297 N 
ATOM     16  C   UNL     1      -5.487  -9.769  10.810  0.00  0.00    +0.300 C 
ATOM     22  H   UNL     1      -6.452  -9.383  12.613  0.00  0.00    +0.150 HD
ATOM     23  H   UNL     1      -7.342  -8.833  10.788  0.00  0.00    +0.150 HD
BRANCH   6  17
ATOM     17  C   UNL     1      -6.660  -8.939   8.776  0.00  0.00    +0.068 C 
ATOM     18  C   UNL     1      -7.438  -7.669   8.457  0.00  0.00    +0.027 C 
ATOM     19  C   UNL     1      -7.301 -10.157   8.124  0.00  0.00    +0.027 C 
ENDBRANCH   6  17
ENDBRANCH  15   5
ENDBRANCH  13  15
TORSDOF 6
ENDMDL
MODEL 8
REMARK VINA RESULT:      -3.7     13.708     15.238
REMARK  Name = 75536722
REMARK  8 active torsions:
REMARK  status: ('A' for Active; 'I' for Inactive)
REMARK    1  A    between atoms: O_2  and  C_12
REMARK    2  A    between atoms: N_4  and  C_7
REMARK    3  A    between atoms: N_4  and  C_8
REMARK    4  A    between atoms: N_5  and  C_15
REMARK    5  A    between atoms: N_6  and  C_17
REMARK    6  A    between atoms: C_13  and  C_15
REMARK    7  A    between atoms: C_17  and  C_18
REMARK    8  A    between atoms: C_17  and  C_19
REMARK                            x       y       z     vdW  Elec       q    Type
REMARK                         _______ _______ _______ _____ _____    ______ ____
ROOT
ATOM      1  O   UNL     1      -5.039 -10.685  14.640  0.00  0.00    -0.371 OA
ATOM      8  C   UNL     1      -2.728 -10.776  14.098  0.00  0.00    +0.111 C 
ATOM     12  C   UNL     1      -2.884 -10.260  15.517  0.00  0.00    +0.164 C 
ATOM     13  C   UNL     1      -4.281 -10.761  15.858  0.00  0.00    +0.165 C 
ATOM     14  C   UNL     1      -4.122 -10.547  13.540  0.00  0.00    +0.181 C 
ENDROOT
BRANCH  12   2
ATOM      2  O   UNL     1      -1.908 -10.781  16.399  0.00  0.00    -0.388 OA
ATOM     21  H   UNL     1      -1.049 -10.775  15.942  0.00  0.00    +0.210 HD
ENDBRANCH  12   2
BRANCH   8   4
ATOM      4  N   UNL     1      -1.694 -10.091  13.340  0.00  0.00    -0.306 NA
ATOM     20  H   UNL     1      -0.786 -10.385  13.702  0.00  0.00    +0.123 HD
BRANCH   4   7
ATOM      7  C   UNL     1      -1.859 -10.378  11.922  0.00  0.00    +0.054 C 
ATOM      9  C   UNL     1      -1.381  -9.162  11.099  0.00  0.00    +0.019 C 
ATOM     10  C   UNL     1      -3.296 -10.010  11.493  0.00  0.00    +0.019 C 
ATOM     11  C   UNL     1      -2.662  -9.344  10.251  0.00  0.00    +0.003 C 
ENDBRANCH   4   7
ENDBRANCH   8   4
BRANCH  13  15
ATOM     15  C   UNL     1      -4.965  -9.941  16.939  0.00  0.00    +0.140 C 
BRANCH  15   5
ATOM      3  O   UNL     1      -7.576 -10.023  18.165  0.00  0.00    -0.253 OA
ATOM      5  N   UNL     1      -6.169  -9.335  16.450  0.00  0.00    -0.297 N 
ATOM      6  N   UNL     1      -8.400  -8.744  16.414  0.00  0.00    -0.297 N 
ATOM     16  C   UNL     1      -7.400  -9.422  17.106  0.00  0.00    +0.300 C 
ATOM     22  H   UNL     1      -6.128  -8.827  15.571  0.00  0.00    +0.150 HD
ATOM     23  H   UNL     1      -8.140  -8.213  15.587  0.00  0.00    +0.150 HD
BRANCH   6  17
ATOM     17  C   UNL     1      -9.766  -8.678  16.876  0.00  0.00    +0.068 C 
ATOM     18  C   UNL     1     -10.617  -9.724  16.169  0.00  0.00    +0.027 C 
ATOM     19  C   UNL     1     -10.331  -7.278  16.674  0.00  0.00    +0.027 C 
ENDBRANCH   6  17
ENDBRANCH  15   5
ENDBRANCH  13  15
TORSDOF 6
ENDMDL
MODEL 9
REMARK VINA RESULT:      -3.7      2.662      6.341
REMARK  Name = 75536722
REMARK  8 active torsions:
REMARK  status: ('A' for Active; 'I' for Inactive)
REMARK    1  A    between atoms: O_2  and  C_12
REMARK    2  A    between atoms: N_4  and  C_7
REMARK    3  A    between atoms: N_4  and  C_8
REMARK    4  A    between atoms: N_5  and  C_15
REMARK    5  A    between atoms: N_6  and  C_17
REMARK    6  A    between atoms: C_13  and  C_15
REMARK    7  A    between atoms: C_17  and  C_18
REMARK    8  A    between atoms: C_17  and  C_19
REMARK                            x       y       z     vdW  Elec       q    Type
REMARK                         _______ _______ _______ _____ _____    ______ ____
ROOT
ATOM      1  O   UNL     1      -1.661   1.462  22.640  0.00  0.00    -0.371 OA
ATOM      8  C   UNL     1      -2.190   2.721  24.583  0.00  0.00    +0.111 C 
ATOM     12  C   UNL     1      -1.495   1.438  24.999  0.00  0.00    +0.164 C 
ATOM     13  C   UNL     1      -0.786   1.057  23.706  0.00  0.00    +0.165 C 
ATOM     14  C   UNL     1      -2.634   2.378  23.171  0.00  0.00    +0.181 C 
ENDROOT
BRANCH  12   2
ATOM      2  O   UNL     1      -0.581   1.632  26.062  0.00  0.00    -0.388 OA
ATOM     21  H   UNL     1      -0.334   2.572  26.086  0.00  0.00    +0.210 HD
ENDBRANCH  12   2
BRANCH   8   4
ATOM      4  N   UNL     1      -3.296   3.092  25.451  0.00  0.00    -0.306 NA
ATOM     20  H   UNL     1      -3.213   4.086  25.666  0.00  0.00    +0.123 HD
BRANCH   4   7
ATOM      7  C   UNL     1      -4.557   2.755  24.805  0.00  0.00    +0.054 C 
ATOM      9  C   UNL     1      -5.724   3.319  25.643  0.00  0.00    +0.019 C 
ATOM     10  C   UNL     1      -5.003   1.350  25.263  0.00  0.00    +0.019 C 
ATOM     11  C   UNL     1      -6.416   1.952  25.438  0.00  0.00    +0.003 C 
ENDBRANCH   4   7
ENDBRANCH   8   4
BRANCH  13  15
ATOM     15  C   UNL     1      -0.499  -0.431  23.595  0.00  0.00    +0.140 C 
BRANCH  15   5
ATOM      3  O   UNL     1       1.865   0.320  22.119  0.00  0.00    -0.253 OA
ATOM      5  N   UNL     1       0.863  -0.725  23.935  0.00  0.00    -0.297 N 
ATOM      6  N   UNL     1       3.161  -0.742  23.723  0.00  0.00    -0.297 N 
ATOM     16  C   UNL     1       1.957  -0.324  23.164  0.00  0.00    +0.300 C 
ATOM     22  H   UNL     1       1.041  -1.267  24.776  0.00  0.00    +0.150 HD
ATOM     23  H   UNL     1       3.138  -1.203  24.629  0.00  0.00    +0.150 HD
BRANCH   6  17
ATOM     17  C   UNL     1       4.444  -0.458  23.124  0.00  0.00    +0.068 C 
ATOM     18  C   UNL     1       5.568  -0.792  24.094  0.00  0.00    +0.027 C 
ATOM     19  C   UNL     1       4.515   0.997  22.677  0.00  0.00    +0.027 C 
ENDBRANCH   6  17
ENDBRANCH  15   5
ENDBRANCH  13  15
TORSDOF 6
ENDMDL
MODEL 10
REMARK VINA RESULT:      -3.6      1.842      5.794
REMARK  Name = 75536722
REMARK  8 active torsions:
REMARK  status: ('A' for Active; 'I' for Inactive)
REMARK    1  A    between atoms: O_2  and  C_12
REMARK    2  A    between atoms: N_4  and  C_7
REMARK    3  A    between atoms: N_4  and  C_8
REMARK    4  A    between atoms: N_5  and  C_15
REMARK    5  A    between atoms: N_6  and  C_17
REMARK    6  A    between atoms: C_13  and  C_15
REMARK    7  A    between atoms: C_17  and  C_18
REMARK    8  A    between atoms: C_17  and  C_19
REMARK                            x       y       z     vdW  Elec       q    Type
REMARK                         _______ _______ _______ _____ _____    ______ ____
ROOT
ATOM      1  O   UNL     1      -4.761  -0.068  25.595  0.00  0.00    -0.371 OA
ATOM      8  C   UNL     1      -4.496   1.884  24.268  0.00  0.00    +0.111 C 
ATOM     12  C   UNL     1      -3.395   0.898  23.923  0.00  0.00    +0.164 C 
ATOM     13  C   UNL     1      -4.004  -0.406  24.421  0.00  0.00    +0.165 C 
ATOM     14  C   UNL     1      -4.962   1.356  25.614  0.00  0.00    +0.181 C 
ENDROOT
BRANCH  12   2
ATOM      2  O   UNL     1      -3.116   0.853  22.537  0.00  0.00    -0.388 OA
ATOM     21  H   UNL     1      -2.180   1.081  22.406  0.00  0.00    +0.210 HD
ENDBRANCH  12   2
BRANCH   8   4
ATOM      4  N   UNL     1      -4.044   3.265  24.325  0.00  0.00    -0.306 NA
ATOM     20  H   UNL     1      -4.787   3.826  24.743  0.00  0.00    +0.123 HD
BRANCH   4   7
ATOM      7  C   UNL     1      -2.793   3.338  25.065  0.00  0.00    +0.054 C 
ATOM      9  C   UNL     1      -2.707   4.701  25.785  0.00  0.00    +0.019 C 
ATOM     10  C   UNL     1      -1.676   3.846  24.127  0.00  0.00    +0.019 C 
ATOM     11  C   UNL     1      -1.245   4.773  25.286  0.00  0.00    +0.003 C 
ENDBRANCH   4   7
ENDBRANCH   8   4
BRANCH  13  15
ATOM     15  C   UNL     1      -2.966  -1.460  24.767  0.00  0.00    +0.140 C 
BRANCH  15   5
ATOM      3  O   UNL     1      -0.674   0.166  25.425  0.00  0.00    -0.253 OA
ATOM      5  N   UNL     1      -1.773  -1.292  23.989  0.00  0.00    -0.297 N 
ATOM      6  N   UNL     1       0.325  -0.501  23.440  0.00  0.00    -0.297 N 
ATOM     16  C   UNL     1      -0.702  -0.483  24.380  0.00  0.00    +0.300 C 
ATOM     22  H   UNL     1      -1.709  -1.778  23.099  0.00  0.00    +0.150 HD
ATOM     23  H   UNL     1       0.239  -1.128  22.644  0.00  0.00    +0.150 HD
BRANCH   6  17
ATOM     17  C   UNL     1       1.547   0.250  23.601  0.00  0.00    +0.068 C 
ATOM     18  C   UNL     1       1.240   1.732  23.772  0.00  0.00    +0.027 C 
ATOM     19  C   UNL     1       2.479   0.013  22.419  0.00  0.00    +0.027 C 
ENDBRANCH   6  17
ENDBRANCH  15   5
ENDBRANCH  13  15
TORSDOF 6
ENDMDL
