MODEL 1
REMARK VINA RESULT:       1.1      0.000      0.000
REMARK  Name = 75536033
REMARK  8 active torsions:
REMARK  status: ('A' for Active; 'I' for Inactive)
REMARK    1  A    between atoms: O_4  and  C_31
REMARK    2  A    between atoms: O_4  and  C_32
REMARK    3  A    between atoms: N_8  and  C_11
REMARK    4  A    between atoms: N_10  and  C_29
REMARK    5  A    between atoms: C_12  and  C_28
REMARK    6  A    between atoms: C_13  and  C_19
REMARK    7  A    between atoms: C_29  and  C_30
REMARK    8  A    between atoms: C_29  and  C_31
REMARK                            x       y       z     vdW  Elec       q    Type
REMARK                         _______ _______ _______ _____ _____    ______ ____
ROOT
ATOM      1  O   UNL     1      -3.161   4.088  26.039  0.00  0.00    -0.275 OA
ATOM      2  O   UNL     1       0.787   0.125  21.305  0.00  0.00    -0.253 OA
ATOM      6  N   UNL     1      -2.300   2.785  24.316  0.00  0.00    -0.298 N 
ATOM      7  N   UNL     1      -0.153   1.206  23.137  0.00  0.00    -0.271 N 
ATOM      8  N   UNL     1       1.813  -0.093  23.351  0.00  0.00    -0.296 N 
ATOM     12  C   UNL     1      -0.068   1.691  24.524  0.00  0.00    +0.181 C 
ATOM     14  C   UNL     1      -0.916   2.941  24.770  0.00  0.00    +0.139 C 
ATOM     15  C   UNL     1      -2.516   1.973  23.115  0.00  0.00    +0.127 C 
ATOM     18  C   UNL     1      -1.238   1.751  22.317  0.00  0.00    +0.129 C 
ATOM     19  C   UNL     1      -3.330   3.403  25.027  0.00  0.00    +0.219 C 
ATOM     25  C   UNL     1       0.815   0.394  22.511  0.00  0.00    +0.303 C 
ATOM     33  H   UNL     1       1.743   0.048  24.351  0.00  0.00    +0.151 HD
ENDROOT
BRANCH  19  13
ATOM      9  N   UNL     1      -6.346   1.682  26.401  0.00  0.00    -0.316 NA
ATOM     13  C   UNL     1      -4.720   3.202  24.491  0.00  0.00    +0.078 C 
ATOM     22  C   UNL     1      -5.024   1.713  24.310  0.00  0.00    +0.028 C 
ATOM     23  C   UNL     1      -5.756   3.866  25.400  0.00  0.00    +0.028 C 
ATOM     26  C   UNL     1      -5.291   1.010  25.642  0.00  0.00    +0.081 C 
ATOM     27  C   UNL     1      -5.992   3.073  26.686  0.00  0.00    +0.081 C 
ATOM     34  H   UNL     1      -6.497   1.186  27.279  0.00  0.00    +0.122 HD
ENDBRANCH  19  13
BRANCH   8  11
ATOM     11  C   UNL     1       2.878  -0.942  22.867  0.00  0.00    +0.074 C 
ATOM     16  C   UNL     1       3.794  -1.383  24.013  0.00  0.00    +0.022 C 
ATOM     17  C   UNL     1       3.674  -0.247  21.757  0.00  0.00    +0.022 C 
ATOM     20  C   UNL     1       4.666  -0.242  24.539  0.00  0.00    +0.002 C 
ATOM     21  C   UNL     1       4.545   0.892  22.286  0.00  0.00    +0.002 C 
ATOM     24  C   UNL     1       5.456   0.426  23.417  0.00  0.00    +0.000 C 
ENDBRANCH   8  11
BRANCH  12  28
ATOM      3  O   UNL     1      -0.551   0.700  26.644  0.00  0.00    -0.274 OA
ATOM     10  N   UNL     1      -0.886  -0.554  24.712  0.00  0.00    -0.301 N 
ATOM     28  C   UNL     1      -0.529   0.579  25.422  0.00  0.00    +0.236 C 
ATOM     35  H   UNL     1      -0.803  -0.551  23.699  0.00  0.00    +0.150 HD
BRANCH  10  29
ATOM     29  C   UNL     1      -1.342  -1.772  25.343  0.00  0.00    +0.179 C 
ATOM     30  C   UNL     1      -0.945  -2.976  24.503  0.00  0.00    +0.040 C 
BRANCH  29  31
ATOM      5  O   UNL     1      -3.375  -1.086  26.453  0.00  0.00    -0.249 OA
ATOM     31  C   UNL     1      -2.845  -1.763  25.577  0.00  0.00    +0.327 C 
BRANCH  31   4
ATOM      4  O   UNL     1      -3.507  -2.590  24.719  0.00  0.00    -0.467 OA
ATOM     32  C   UNL     1      -4.307  -1.943  23.724  0.00  0.00    +0.280 C 
ENDBRANCH  31   4
ENDBRANCH  29  31
ENDBRANCH  10  29
ENDBRANCH  12  28
TORSDOF 6
ENDMDL
MODEL 2
REMARK VINA RESULT:       4.3      1.546      2.043
REMARK  Name = 75536033
REMARK  8 active torsions:
REMARK  status: ('A' for Active; 'I' for Inactive)
REMARK    1  A    between atoms: O_4  and  C_31
REMARK    2  A    between atoms: O_4  and  C_32
REMARK    3  A    between atoms: N_8  and  C_11
REMARK    4  A    between atoms: N_10  and  C_29
REMARK    5  A    between atoms: C_12  and  C_28
REMARK    6  A    between atoms: C_13  and  C_19
REMARK    7  A    between atoms: C_29  and  C_30
REMARK    8  A    between atoms: C_29  and  C_31
REMARK                            x       y       z     vdW  Elec       q    Type
REMARK                         _______ _______ _______ _____ _____    ______ ____
ROOT
ATOM      1  O   UNL     1      -2.912   2.872  27.254  0.00  0.00    -0.275 OA
ATOM      2  O   UNL     1       2.559   2.834  22.379  0.00  0.00    -0.253 OA
ATOM      6  N   UNL     1      -1.425   3.170  25.492  0.00  0.00    -0.298 N 
ATOM      7  N   UNL     1       0.940   2.376  23.985  0.00  0.00    -0.271 N 
ATOM      8  N   UNL     1       2.520   0.741  23.330  0.00  0.00    -0.296 N 
ATOM     12  C   UNL     1       0.404   1.529  25.062  0.00  0.00    +0.181 C 
ATOM     14  C   UNL     1      -0.397   2.320  26.098  0.00  0.00    +0.139 C 
ATOM     15  C   UNL     1      -1.107   3.769  24.192  0.00  0.00    +0.127 C 
ATOM     18  C   UNL     1       0.381   3.726  23.873  0.00  0.00    +0.129 C 
ATOM     19  C   UNL     1      -2.633   3.371  26.161  0.00  0.00    +0.219 C 
ATOM     25  C   UNL     1       2.045   2.041  23.175  0.00  0.00    +0.303 C 
ATOM     33  H   UNL     1       2.006   0.081  23.900  0.00  0.00    +0.151 HD
ENDROOT
BRANCH  19  13
ATOM      9  N   UNL     1      -5.848   2.679  24.391  0.00  0.00    -0.316 NA
ATOM     13  C   UNL     1      -3.630   4.263  25.476  0.00  0.00    +0.078 C 
ATOM     22  C   UNL     1      -3.742   3.915  23.990  0.00  0.00    +0.028 C 
ATOM     23  C   UNL     1      -4.995   4.182  26.162  0.00  0.00    +0.028 C 
ATOM     26  C   UNL     1      -4.532   2.626  23.754  0.00  0.00    +0.081 C 
ATOM     27  C   UNL     1      -5.732   2.882  25.835  0.00  0.00    +0.081 C 
ATOM     34  H   UNL     1      -6.344   1.807  24.212  0.00  0.00    +0.122 HD
ENDBRANCH  19  13
BRANCH   8  11
ATOM     11  C   UNL     1       3.643   0.238  22.572  0.00  0.00    +0.074 C 
ATOM     16  C   UNL     1       3.779  -1.280  22.731  0.00  0.00    +0.022 C 
ATOM     17  C   UNL     1       4.939   0.955  22.967  0.00  0.00    +0.022 C 
ATOM     20  C   UNL     1       4.274  -1.682  24.120  0.00  0.00    +0.002 C 
ATOM     21  C   UNL     1       5.432   0.550  24.356  0.00  0.00    +0.002 C 
ATOM     24  C   UNL     1       5.570  -0.963  24.486  0.00  0.00    +0.000 C 
ENDBRANCH   8  11
BRANCH  12  28
ATOM      3  O   UNL     1      -0.173  -0.053  23.366  0.00  0.00    -0.274 OA
ATOM     10  N   UNL     1      -1.624   0.255  25.160  0.00  0.00    -0.301 N 
ATOM     28  C   UNL     1      -0.473   0.489  24.426  0.00  0.00    +0.236 C 
ATOM     35  H   UNL     1      -1.783   0.782  26.015  0.00  0.00    +0.150 HD
BRANCH  10  29
ATOM     29  C   UNL     1      -2.644  -0.684  24.753  0.00  0.00    +0.179 C 
ATOM     30  C   UNL     1      -3.955  -0.369  25.457  0.00  0.00    +0.040 C 
BRANCH  29  31
ATOM      5  O   UNL     1      -1.072  -2.449  25.253  0.00  0.00    -0.249 OA
ATOM     31  C   UNL     1      -2.233  -2.124  25.022  0.00  0.00    +0.327 C 
BRANCH  31   4
ATOM      4  O   UNL     1      -3.289  -2.983  24.966  0.00  0.00    -0.467 OA
ATOM     32  C   UNL     1      -4.081  -2.918  23.775  0.00  0.00    +0.280 C 
ENDBRANCH  31   4
ENDBRANCH  29  31
ENDBRANCH  10  29
ENDBRANCH  12  28
TORSDOF 6
ENDMDL
