MODEL 1
REMARK VINA RESULT:       7.9      0.000      0.000
REMARK  Name = 11911723
REMARK  8 active torsions:
REMARK  status: ('A' for Active; 'I' for Inactive)
REMARK    1  A    between atoms: N_4  and  C_11
REMARK    2  A    between atoms: N_5  and  C_12
REMARK    3  A    between atoms: N_8  and  C_32
REMARK    4  A    between atoms: N_8  and  C_33
REMARK    5  A    between atoms: N_8  and  C_34
REMARK    6  A    between atoms: C_15  and  C_17
REMARK    7  A    between atoms: C_18  and  C_23
REMARK    8  A    between atoms: C_26  and  C_29
REMARK                            x       y       z     vdW  Elec       q    Type
REMARK                         _______ _______ _______ _____ _____    ______ ____
ROOT
ATOM      1  O   UNL     1      -4.063  -1.579  23.236  0.00  0.00    -0.370 OA
ATOM      2  O   UNL     1      -2.723  -1.380  26.048  0.00  0.00    -0.370 OA
ATOM      9  C   UNL     1      -3.024  -0.410  25.030  0.00  0.00    +0.171 C 
ATOM     10  C   UNL     1      -2.794  -1.079  23.688  0.00  0.00    +0.171 C 
ATOM     11  C   UNL     1      -1.860  -2.225  24.004  0.00  0.00    +0.130 C 
ATOM     12  C   UNL     1      -4.500  -0.088  25.033  0.00  0.00    +0.130 C 
ATOM     13  C   UNL     1      -5.083  -1.190  24.168  0.00  0.00    +0.185 C 
ATOM     14  C   UNL     1      -2.258  -2.587  25.424  0.00  0.00    +0.185 C 
ENDROOT
BRANCH  12   5
ATOM      5  N   UNL     1      -4.727   1.202  24.420  0.00  0.00    -0.306 N 
ATOM      6  N   UNL     1      -2.853   2.151  25.465  0.00  0.00    -0.214 NA
ATOM      7  N   UNL     1      -4.241   3.458  23.991  0.00  0.00    -0.223 NA
ATOM     16  C   UNL     1      -3.916   2.304  24.631  0.00  0.00    +0.216 A 
ATOM     18  C   UNL     1      -2.084   3.245  25.649  0.00  0.00    +0.076 A 
ATOM     21  C   UNL     1      -3.430   4.512  24.221  0.00  0.00    +0.116 A 
ATOM     22  C   UNL     1      -2.326   4.463  25.047  0.00  0.00    +0.048 A 
ATOM     36  H   UNL     1      -5.486   1.312  23.757  0.00  0.00    +0.149 HD
BRANCH  18  23
ATOM     23  C   UNL     1      -0.960   3.061  26.536  0.00  0.00    +0.001 A 
ATOM     27  C   UNL     1      -1.154   3.046  27.919  0.00  0.00    +0.012 A 
ATOM     28  C   UNL     1       0.326   2.896  26.015  0.00  0.00    +0.012 A 
ATOM     30  C   UNL     1      -0.069   2.866  28.777  0.00  0.00    +0.024 A 
ATOM     31  C   UNL     1       1.411   2.717  26.873  0.00  0.00    +0.024 A 
ATOM     32  C   UNL     1       1.213   2.702  28.254  0.00  0.00    +0.029 A 
BRANCH  32   8
ATOM      8  N   UNL     1       2.311   2.521  29.121  0.00  0.00    -0.336 N 
ATOM     33  C   UNL     1       2.132   1.876  30.406  0.00  0.00    +0.129 C 
ATOM     34  C   UNL     1       3.629   2.990  28.745  0.00  0.00    +0.129 C 
ENDBRANCH  32   8
ENDBRANCH  18  23
ENDBRANCH  12   5
BRANCH  11   4
ATOM      3  O   UNL     1      -0.873   0.288  23.027  0.00  0.00    -0.270 OA
ATOM      4  N   UNL     1      -0.480  -1.807  23.939  0.00  0.00    -0.304 N 
ATOM     15  C   UNL     1      -0.099  -0.566  23.448  0.00  0.00    +0.244 C 
ATOM     35  H   UNL     1       0.221  -2.506  24.163  0.00  0.00    +0.149 HD
BRANCH  15  17
ATOM     17  C   UNL     1       1.362  -0.298  23.425  0.00  0.00    +0.037 A 
ATOM     19  C   UNL     1       2.232  -1.333  23.695  0.00  0.00    +0.013 A 
ATOM     20  C   UNL     1       1.801   0.976  23.132  0.00  0.00    +0.013 A 
ATOM     24  C   UNL     1       3.606  -1.082  23.671  0.00  0.00    +0.004 A 
ATOM     25  C   UNL     1       3.173   1.227  23.108  0.00  0.00    +0.004 A 
ATOM     26  C   UNL     1       4.075   0.199  23.378  0.00  0.00    -0.050 A 
ATOM     29  C   UNL     1       5.542   0.466  23.354  0.00  0.00    +0.044 C 
ENDBRANCH  15  17
ENDBRANCH  11   4
TORSDOF 5
ENDMDL
MODEL 2
REMARK VINA RESULT:       9.4      1.938      5.440
REMARK  Name = 11911723
REMARK  8 active torsions:
REMARK  status: ('A' for Active; 'I' for Inactive)
REMARK    1  A    between atoms: N_4  and  C_11
REMARK    2  A    between atoms: N_5  and  C_12
REMARK    3  A    between atoms: N_8  and  C_32
REMARK    4  A    between atoms: N_8  and  C_33
REMARK    5  A    between atoms: N_8  and  C_34
REMARK    6  A    between atoms: C_15  and  C_17
REMARK    7  A    between atoms: C_18  and  C_23
REMARK    8  A    between atoms: C_26  and  C_29
REMARK                            x       y       z     vdW  Elec       q    Type
REMARK                         _______ _______ _______ _____ _____    ______ ____
ROOT
ATOM      1  O   UNL     1      -5.391   2.825  25.802  0.00  0.00    -0.370 OA
ATOM      2  O   UNL     1      -3.003   3.312  23.852  0.00  0.00    -0.370 OA
ATOM      9  C   UNL     1      -3.446   2.166  24.599  0.00  0.00    +0.171 C 
ATOM     10  C   UNL     1      -3.967   2.671  25.930  0.00  0.00    +0.171 C 
ATOM     11  C   UNL     1      -3.305   4.019  26.098  0.00  0.00    +0.130 C 
ATOM     12  C   UNL     1      -4.656   1.547  23.939  0.00  0.00    +0.130 C 
ATOM     13  C   UNL     1      -5.800   2.368  24.504  0.00  0.00    +0.185 C 
ATOM     14  C   UNL     1      -3.156   4.488  24.661  0.00  0.00    +0.185 C 
ENDROOT
BRANCH  12   5
ATOM      5  N   UNL     1      -4.786   0.164  24.342  0.00  0.00    -0.306 N 
ATOM      6  N   UNL     1      -2.485  -0.233  24.121  0.00  0.00    -0.214 NA
ATOM      7  N   UNL     1      -3.980  -1.986  24.827  0.00  0.00    -0.223 NA
ATOM     16  C   UNL     1      -3.718  -0.711  24.433  0.00  0.00    +0.216 A 
ATOM     18  C   UNL     1      -1.466  -1.112  24.220  0.00  0.00    +0.076 A 
ATOM     21  C   UNL     1      -2.916  -2.812  24.903  0.00  0.00    +0.116 A 
ATOM     22  C   UNL     1      -1.624  -2.427  24.610  0.00  0.00    +0.048 A 
ATOM     36  H   UNL     1      -5.694  -0.188  24.627  0.00  0.00    +0.149 HD
BRANCH  18  23
ATOM     23  C   UNL     1      -0.165  -0.584  23.885  0.00  0.00    +0.001 A 
ATOM     27  C   UNL     1       0.033   0.796  23.813  0.00  0.00    +0.012 A 
ATOM     28  C   UNL     1       0.901  -1.451  23.635  0.00  0.00    +0.012 A 
ATOM     30  C   UNL     1       1.290   1.307  23.492  0.00  0.00    +0.024 A 
ATOM     31  C   UNL     1       2.159  -0.941  23.314  0.00  0.00    +0.024 A 
ATOM     32  C   UNL     1       2.353   0.439  23.242  0.00  0.00    +0.029 A 
BRANCH  32   8
ATOM      8  N   UNL     1       3.625   0.955  22.917  0.00  0.00    -0.336 N 
ATOM     33  C   UNL     1       4.821   0.184  23.192  0.00  0.00    +0.129 C 
ATOM     34  C   UNL     1       3.754   2.268  22.318  0.00  0.00    +0.129 C 
ENDBRANCH  32   8
ENDBRANCH  18  23
ENDBRANCH  12   5
BRANCH  11   4
ATOM      3  O   UNL     1      -1.660   1.669  26.200  0.00  0.00    -0.270 OA
ATOM      4  N   UNL     1      -2.021   3.894  26.743  0.00  0.00    -0.304 N 
ATOM     15  C   UNL     1      -1.296   2.710  26.738  0.00  0.00    +0.244 C 
ATOM     35  H   UNL     1      -1.711   4.680  27.304  0.00  0.00    +0.149 HD
BRANCH  15  17
ATOM     17  C   UNL     1      -0.003   2.737  27.468  0.00  0.00    +0.037 A 
ATOM     19  C   UNL     1       0.000   2.490  28.825  0.00  0.00    +0.013 A 
ATOM     20  C   UNL     1       1.154   3.007  26.767  0.00  0.00    +0.013 A 
ATOM     24  C   UNL     1       1.216   2.514  29.512  0.00  0.00    +0.004 A 
ATOM     25  C   UNL     1       2.368   3.031  27.452  0.00  0.00    +0.004 A 
ATOM     26  C   UNL     1       2.399   2.785  28.824  0.00  0.00    -0.050 A 
ATOM     29  C   UNL     1       3.697   2.812  29.559  0.00  0.00    +0.044 C 
ENDBRANCH  15  17
ENDBRANCH  11   4
TORSDOF 5
ENDMDL
