MODEL 1
REMARK VINA RESULT:      -3.5      0.000      0.000
REMARK  Name = 75367171
REMARK  3 active torsions:
REMARK  status: ('A' for Active; 'I' for Inactive)
REMARK    1  A    between atoms: N_2  and  C_7
REMARK    2  A    between atoms: C_8  and  C_16
REMARK    3  A    between atoms: C_17  and  C_19
REMARK                            x       y       z     vdW  Elec       q    Type
REMARK                         _______ _______ _______ _____ _____    ______ ____
ROOT
ATOM      1  O   UNL     1      -2.718  -2.063  25.033  0.00  0.00    -0.377 OA
ATOM      2  N   UNL     1      -2.935   0.699  24.237  0.00  0.00    -0.286 NA
ATOM      8  C   UNL     1      -1.724   0.193  24.922  0.00  0.00    +0.149 C 
ATOM     11  C   UNL     1      -3.681  -0.385  23.583  0.00  0.00    +0.113 C 
ATOM     14  C   UNL     1      -2.019  -1.060  25.773  0.00  0.00    +0.186 C 
ATOM     15  C   UNL     1      -3.946  -1.565  24.510  0.00  0.00    +0.175 C 
ENDROOT
BRANCH   2   7
ATOM      3  N   UNL     1      -5.708   3.655  25.528  0.00  0.00    -0.316 NA
ATOM      7  C   UNL     1      -3.785   1.481  25.133  0.00  0.00    +0.060 C 
ATOM      9  C   UNL     1      -5.261   1.345  24.745  0.00  0.00    +0.034 C 
ATOM     10  C   UNL     1      -3.366   2.954  25.108  0.00  0.00    +0.034 C 
ATOM     12  C   UNL     1      -6.136   2.256  25.607  0.00  0.00    +0.082 C 
ATOM     13  C   UNL     1      -4.315   3.803  25.957  0.00  0.00    +0.082 C 
ATOM     24  H   UNL     1      -6.306   4.224  26.127  0.00  0.00    +0.122 HD
ENDBRANCH   2   7
BRANCH   8  16
ATOM      4  N   UNL     1       0.733   0.027  24.356  0.00  0.00    -0.341 N 
ATOM      5  N   UNL     1      -0.654  -0.029  22.623  0.00  0.00    -0.238 NA
ATOM     16  C   UNL     1      -0.566   0.062  23.932  0.00  0.00    +0.127 A 
ATOM     17  C   UNL     1       1.524  -0.093  23.248  0.00  0.00    +0.066 A 
ATOM     18  C   UNL     1       0.645  -0.126  22.191  0.00  0.00    +0.139 A 
ATOM     25  H   UNL     1       1.043   0.075  25.319  0.00  0.00    +0.167 HD
BRANCH  17  19
ATOM      6  N   UNL     1       5.751  -0.291  23.414  0.00  0.00    -0.263 NA
ATOM     19  C   UNL     1       2.961  -0.161  23.303  0.00  0.00    +0.003 A 
ATOM     20  C   UNL     1       3.727   0.924  22.892  0.00  0.00    +0.029 A 
ATOM     21  C   UNL     1       3.587  -1.311  23.770  0.00  0.00    +0.029 A 
ATOM     22  C   UNL     1       5.105   0.810  22.966  0.00  0.00    +0.111 A 
ATOM     23  C   UNL     1       4.972  -1.325  23.805  0.00  0.00    +0.111 A 
ENDBRANCH  17  19
ENDBRANCH   8  16
TORSDOF 3
ENDMDL
MODEL 2
REMARK VINA RESULT:      -3.1      1.912      2.725
REMARK  Name = 75367171
REMARK  3 active torsions:
REMARK  status: ('A' for Active; 'I' for Inactive)
REMARK    1  A    between atoms: N_2  and  C_7
REMARK    2  A    between atoms: C_8  and  C_16
REMARK    3  A    between atoms: C_17  and  C_19
REMARK                            x       y       z     vdW  Elec       q    Type
REMARK                         _______ _______ _______ _____ _____    ______ ____
ROOT
ATOM      1  O   UNL     1      -0.385   3.977  24.154  0.00  0.00    -0.377 OA
ATOM      2  N   UNL     1      -2.284   1.955  24.935  0.00  0.00    -0.286 NA
ATOM      8  C   UNL     1      -1.601   1.897  23.623  0.00  0.00    +0.149 C 
ATOM     11  C   UNL     1      -1.532   2.765  25.903  0.00  0.00    +0.113 C 
ATOM     14  C   UNL     1      -1.133   3.289  23.151  0.00  0.00    +0.186 C 
ATOM     15  C   UNL     1      -1.138   4.130  25.353  0.00  0.00    +0.175 C 
ENDROOT
BRANCH   2   7
ATOM      3  N   UNL     1      -6.310   2.804  26.018  0.00  0.00    -0.316 NA
ATOM      7  C   UNL     1      -3.670   2.402  24.812  0.00  0.00    +0.060 C 
ATOM      9  C   UNL     1      -3.960   3.560  25.774  0.00  0.00    +0.034 C 
ATOM     10  C   UNL     1      -4.628   1.239  25.082  0.00  0.00    +0.034 C 
ATOM     12  C   UNL     1      -5.439   3.946  25.729  0.00  0.00    +0.082 C 
ATOM     13  C   UNL     1      -6.082   1.716  25.064  0.00  0.00    +0.082 C 
ATOM     24  H   UNL     1      -7.284   3.101  25.963  0.00  0.00    +0.122 HD
ENDBRANCH   2   7
BRANCH   8  16
ATOM      4  N   UNL     1       0.796   1.109  23.486  0.00  0.00    -0.341 N 
ATOM      5  N   UNL     1      -0.722  -0.489  23.756  0.00  0.00    -0.238 NA
ATOM     16  C   UNL     1      -0.529   0.806  23.627  0.00  0.00    +0.127 A 
ATOM     17  C   UNL     1       1.492  -0.066  23.528  0.00  0.00    +0.066 A 
ATOM     18  C   UNL     1       0.534  -1.037  23.696  0.00  0.00    +0.139 A 
ATOM     25  H   UNL     1       1.182   2.038  23.378  0.00  0.00    +0.167 HD
BRANCH  17  19
ATOM      6  N   UNL     1       5.708  -0.290  23.186  0.00  0.00    -0.263 NA
ATOM     19  C   UNL     1       2.925  -0.142  23.410  0.00  0.00    +0.003 A 
ATOM     20  C   UNL     1       3.640   0.923  22.874  0.00  0.00    +0.029 A 
ATOM     21  C   UNL     1       3.600  -1.282  23.834  0.00  0.00    +0.029 A 
ATOM     22  C   UNL     1       5.017   0.801  22.784  0.00  0.00    +0.111 A 
ATOM     23  C   UNL     1       4.979  -1.305  23.702  0.00  0.00    +0.111 A 
ENDBRANCH  17  19
ENDBRANCH   8  16
TORSDOF 3
ENDMDL
MODEL 3
REMARK VINA RESULT:      -1.5     16.969     18.587
REMARK  Name = 75367171
REMARK  3 active torsions:
REMARK  status: ('A' for Active; 'I' for Inactive)
REMARK    1  A    between atoms: N_2  and  C_7
REMARK    2  A    between atoms: C_8  and  C_16
REMARK    3  A    between atoms: C_17  and  C_19
REMARK                            x       y       z     vdW  Elec       q    Type
REMARK                         _______ _______ _______ _____ _____    ______ ____
ROOT
ATOM      1  O   UNL     1      15.391 -10.337  29.904  0.00  0.00    -0.377 OA
ATOM      2  N   UNL     1      13.748  -8.022  30.397  0.00  0.00    -0.286 NA
ATOM      8  C   UNL     1      15.167  -8.056  30.818  0.00  0.00    +0.149 C 
ATOM     11  C   UNL     1      13.479  -8.980  29.316  0.00  0.00    +0.113 C 
ATOM     14  C   UNL     1      15.675  -9.498  31.024  0.00  0.00    +0.186 C 
ATOM     15  C   UNL     1      13.995 -10.380  29.625  0.00  0.00    +0.175 C 
ENDROOT
BRANCH   2   7
ATOM      3  N   UNL     1      10.104  -8.489  32.543  0.00  0.00    -0.316 NA
ATOM      7  C   UNL     1      12.837  -8.204  31.525  0.00  0.00    +0.060 C 
ATOM      9  C   UNL     1      12.047  -9.510  31.386  0.00  0.00    +0.034 C 
ATOM     10  C   UNL     1      11.877  -7.015  31.628  0.00  0.00    +0.034 C 
ATOM     12  C   UNL     1      11.011  -9.640  32.503  0.00  0.00    +0.082 C 
ATOM     13  C   UNL     1      10.848  -7.242  32.737  0.00  0.00    +0.082 C 
ATOM     24  H   UNL     1       9.442  -8.609  33.309  0.00  0.00    +0.122 HD
ENDBRANCH   2   7
BRANCH   8  16
ATOM      4  N   UNL     1      15.904  -7.254  28.538  0.00  0.00    -0.341 N 
ATOM      5  N   UNL     1      16.920  -6.295  30.263  0.00  0.00    -0.238 NA
ATOM     16  C   UNL     1      16.019  -7.180  29.898  0.00  0.00    +0.127 A 
ATOM     17  C   UNL     1      16.787  -6.360  28.002  0.00  0.00    +0.066 A 
ATOM     18  C   UNL     1      17.402  -5.780  29.087  0.00  0.00    +0.139 A 
ATOM     25  H   UNL     1      15.271  -7.859  28.029  0.00  0.00    +0.167 HD
BRANCH  17  19
ATOM      6  N   UNL     1      17.269  -5.764  23.837  0.00  0.00    -0.263 NA
ATOM     19  C   UNL     1      16.950  -6.158  26.586  0.00  0.00    +0.003 A 
ATOM     20  C   UNL     1      16.940  -4.871  26.059  0.00  0.00    +0.029 A 
ATOM     21  C   UNL     1      17.120  -7.248  25.740  0.00  0.00    +0.029 A 
ATOM     22  C   UNL     1      17.101  -4.729  24.691  0.00  0.00    +0.111 A 
ATOM     23  C   UNL     1      17.274  -7.000  24.386  0.00  0.00    +0.111 A 
ENDBRANCH  17  19
ENDBRANCH   8  16
TORSDOF 3
ENDMDL
MODEL 4
REMARK VINA RESULT:      -0.3     16.297     18.015
REMARK  Name = 75367171
REMARK  3 active torsions:
REMARK  status: ('A' for Active; 'I' for Inactive)
REMARK    1  A    between atoms: N_2  and  C_7
REMARK    2  A    between atoms: C_8  and  C_16
REMARK    3  A    between atoms: C_17  and  C_19
REMARK                            x       y       z     vdW  Elec       q    Type
REMARK                         _______ _______ _______ _____ _____    ______ ____
ROOT
ATOM      1  O   UNL     1      15.421  -8.498  30.051  0.00  0.00    -0.377 OA
ATOM      2  N   UNL     1      13.689  -6.313  30.779  0.00  0.00    -0.286 NA
ATOM      8  C   UNL     1      15.073  -6.396  31.297  0.00  0.00    +0.149 C 
ATOM     11  C   UNL     1      13.524  -7.089  29.542  0.00  0.00    +0.113 C 
ATOM     14  C   UNL     1      15.601  -7.846  31.309  0.00  0.00    +0.186 C 
ATOM     15  C   UNL     1      14.051  -8.513  29.662  0.00  0.00    +0.175 C 
ENDROOT
BRANCH   2   7
ATOM      3  N   UNL     1       9.934  -7.327  32.502  0.00  0.00    -0.316 NA
ATOM      7  C   UNL     1      12.703  -6.686  31.791  0.00  0.00    +0.060 C 
ATOM      9  C   UNL     1      12.070  -8.044  31.467  0.00  0.00    +0.034 C 
ATOM     10  C   UNL     1      11.618  -5.610  31.895  0.00  0.00    +0.034 C 
ATOM     12  C   UNL     1      10.956  -8.376  32.459  0.00  0.00    +0.082 C 
ATOM     13  C   UNL     1      10.520  -6.038  32.873  0.00  0.00    +0.082 C 
ATOM     24  H   UNL     1       9.220  -7.581  33.185  0.00  0.00    +0.122 HD
ENDBRANCH   2   7
BRANCH   8  16
ATOM      4  N   UNL     1      15.886  -5.161  29.248  0.00  0.00    -0.341 N 
ATOM      5  N   UNL     1      16.881  -4.609  31.155  0.00  0.00    -0.238 NA
ATOM     16  C   UNL     1      15.968  -5.373  30.595  0.00  0.00    +0.127 A 
ATOM     17  C   UNL     1      16.803  -4.200  28.927  0.00  0.00    +0.066 A 
ATOM     18  C   UNL     1      17.404  -3.875  30.120  0.00  0.00    +0.139 A 
ATOM     25  H   UNL     1      15.252  -5.629  28.613  0.00  0.00    +0.167 HD
BRANCH  17  19
ATOM      6  N   UNL     1      17.404  -2.768  24.987  0.00  0.00    -0.263 NA
ATOM     19  C   UNL     1      17.006  -3.713  27.588  0.00  0.00    +0.003 A 
ATOM     20  C   UNL     1      17.213  -2.357  27.362  0.00  0.00    +0.029 A 
ATOM     21  C   UNL     1      16.997  -4.598  26.515  0.00  0.00    +0.029 A 
ATOM     22  C   UNL     1      17.405  -1.939  26.055  0.00  0.00    +0.111 A 
ATOM     23  C   UNL     1      17.199  -4.080  25.246  0.00  0.00    +0.111 A 
ENDBRANCH  17  19
ENDBRANCH   8  16
TORSDOF 3
ENDMDL
