MODEL 1
REMARK VINA RESULT:      -3.2      0.000      0.000
REMARK  Name = 40779893
REMARK  6 active torsions:
REMARK  status: ('A' for Active; 'I' for Inactive)
REMARK    1  A    between atoms: S_2  and  N_7
REMARK    2  A    between atoms: S_2  and  C_23
REMARK    3  A    between atoms: N_6  and  C_15
REMARK    4  A    between atoms: N_7  and  C_16
REMARK    5  A    between atoms: C_9  and  C_15
REMARK    6  A    between atoms: C_10  and  C_16
REMARK                            x       y       z     vdW  Elec       q    Type
REMARK                         _______ _______ _______ _____ _____    ______ ____
ROOT
ATOM      5  N   UNL     1      -2.735  -2.671  24.439  0.00  0.00    -0.298 NA
ATOM      8  C   UNL     1      -3.178  -0.509  25.817  0.00  0.00    -0.002 C 
ATOM      9  C   UNL     1      -4.004  -0.510  24.510  0.00  0.00    +0.023 C 
ATOM     10  C   UNL     1      -1.446  -2.015  24.786  0.00  0.00    +0.072 C 
ATOM     11  C   UNL     1      -1.683  -0.653  25.475  0.00  0.00    +0.024 C 
ATOM     12  C   UNL     1      -3.595  -1.740  23.668  0.00  0.00    +0.090 C 
ATOM     13  C   UNL     1      -3.588  -1.766  26.605  0.00  0.00    +0.019 C 
ATOM     14  C   UNL     1      -3.434  -3.005  25.704  0.00  0.00    +0.085 C 
ENDROOT
BRANCH   9  15
ATOM     15  C   UNL     1      -3.873   0.786  23.714  0.00  0.00    +0.110 C 
BRANCH  15   6
ATOM      6  N   UNL     1      -3.965   1.916  24.603  0.00  0.00    -0.329 N 
ATOM     17  C   UNL     1      -5.239   2.547  24.945  0.00  0.00    +0.110 C 
ATOM     18  C   UNL     1      -2.984   2.890  24.731  0.00  0.00    +0.033 A 
ATOM     19  C   UNL     1      -4.902   3.807  25.766  0.00  0.00    +0.056 C 
ATOM     20  C   UNL     1      -3.472   4.025  25.390  0.00  0.00    -0.025 A 
ATOM     21  C   UNL     1      -1.663   2.850  24.314  0.00  0.00    +0.023 A 
ATOM     22  C   UNL     1      -2.672   5.125  25.652  0.00  0.00    +0.005 A 
ATOM     24  C   UNL     1      -0.843   3.957  24.563  0.00  0.00    +0.002 A 
ATOM     25  C   UNL     1      -1.345   5.085  25.227  0.00  0.00    +0.000 A 
ENDBRANCH  15   6
ENDBRANCH   9  15
BRANCH  10  16
ATOM     16  C   UNL     1      -0.512  -1.888  23.580  0.00  0.00    +0.124 C 
BRANCH  16   7
ATOM      7  N   UNL     1       0.611  -1.058  23.925  0.00  0.00    -0.188 NA
ATOM     31  H   UNL     1       0.756  -0.850  24.920  0.00  0.00    +0.148 HD
BRANCH   7   2
ATOM      2  S   UNL     1       1.229   0.105  22.818  0.00  0.00    +0.058 S 
ATOM      3  O   UNL     1       0.812   1.426  23.249  0.00  0.00    -0.153 OA
ATOM      4  O   UNL     1       0.987  -0.327  21.454  0.00  0.00    -0.153 OA
BRANCH   2  23
ATOM      1 CL   UNL     1       7.406  -0.397  23.827  0.00  0.00    -0.084 Cl
ATOM     23  C   UNL     1       2.968  -0.036  23.102  0.00  0.00    +0.105 A 
ATOM     26  C   UNL     1       3.809   1.045  22.835  0.00  0.00    +0.030 A 
ATOM     27  C   UNL     1       3.500  -1.228  23.594  0.00  0.00    +0.030 A 
ATOM     28  C   UNL     1       5.181   0.934  23.059  0.00  0.00    +0.022 A 
ATOM     29  C   UNL     1       4.872  -1.340  23.818  0.00  0.00    +0.022 A 
ATOM     30  C   UNL     1       5.712  -0.259  23.551  0.00  0.00    +0.041 A 
ENDBRANCH   2  23
ENDBRANCH   7   2
ENDBRANCH  16   7
ENDBRANCH  10  16
TORSDOF 6
ENDMDL
MODEL 2
REMARK VINA RESULT:      -0.9      0.813      2.139
REMARK  Name = 40779893
REMARK  6 active torsions:
REMARK  status: ('A' for Active; 'I' for Inactive)
REMARK    1  A    between atoms: S_2  and  N_7
REMARK    2  A    between atoms: S_2  and  C_23
REMARK    3  A    between atoms: N_6  and  C_15
REMARK    4  A    between atoms: N_7  and  C_16
REMARK    5  A    between atoms: C_9  and  C_15
REMARK    6  A    between atoms: C_10  and  C_16
REMARK                            x       y       z     vdW  Elec       q    Type
REMARK                         _______ _______ _______ _____ _____    ______ ____
ROOT
ATOM      5  N   UNL     1      -2.447  -2.407  24.428  0.00  0.00    -0.298 NA
ATOM      8  C   UNL     1      -2.926  -0.098  25.525  0.00  0.00    -0.002 C 
ATOM      9  C   UNL     1      -3.121  -0.032  23.993  0.00  0.00    +0.023 C 
ATOM     10  C   UNL     1      -1.304  -2.007  25.290  0.00  0.00    +0.072 C 
ATOM     11  C   UNL     1      -1.495  -0.575  25.836  0.00  0.00    +0.024 C 
ATOM     12  C   UNL     1      -2.686  -1.383  23.381  0.00  0.00    +0.090 C 
ATOM     13  C   UNL     1      -3.890  -1.177  26.052  0.00  0.00    +0.019 C 
ATOM     14  C   UNL     1      -3.658  -2.488  25.280  0.00  0.00    +0.085 C 
ENDROOT
BRANCH   9  15
ATOM     15  C   UNL     1      -2.392   1.141  23.343  0.00  0.00    +0.110 C 
BRANCH  15   6
ATOM      6  N   UNL     1      -2.790   2.373  23.976  0.00  0.00    -0.329 N 
ATOM     17  C   UNL     1      -1.837   3.252  24.653  0.00  0.00    +0.110 C 
ATOM     18  C   UNL     1      -4.026   2.581  24.572  0.00  0.00    +0.033 A 
ATOM     19  C   UNL     1      -2.666   4.356  25.340  0.00  0.00    +0.056 C 
ATOM     20  C   UNL     1      -4.016   3.716  25.391  0.00  0.00    -0.025 A 
ATOM     21  C   UNL     1      -5.189   1.839  24.436  0.00  0.00    +0.023 A 
ATOM     22  C   UNL     1      -5.142   4.138  26.078  0.00  0.00    +0.005 A 
ATOM     24  C   UNL     1      -6.334   2.247  25.131  0.00  0.00    +0.002 A 
ATOM     25  C   UNL     1      -6.310   3.388  25.946  0.00  0.00    +0.000 A 
ENDBRANCH  15   6
ENDBRANCH   9  15
BRANCH  10  16
ATOM     16  C   UNL     1       0.045  -2.172  24.586  0.00  0.00    +0.124 C 
BRANCH  16   7
ATOM      7  N   UNL     1       0.800  -0.953  24.697  0.00  0.00    -0.188 NA
ATOM     31  H   UNL     1       0.743  -0.443  25.587  0.00  0.00    +0.148 HD
BRANCH   7   2
ATOM      2  S   UNL     1       1.162  -0.002  23.310  0.00  0.00    +0.058 S 
ATOM      3  O   UNL     1       0.795   1.374  23.581  0.00  0.00    -0.153 OA
ATOM      4  O   UNL     1       0.678  -0.664  22.113  0.00  0.00    -0.153 OA
BRANCH   2  23
ATOM      1 CL   UNL     1       7.430  -0.346  23.187  0.00  0.00    -0.084 Cl
ATOM     23  C   UNL     1       2.927  -0.099  23.275  0.00  0.00    +0.105 A 
ATOM     26  C   UNL     1       3.572  -1.245  23.740  0.00  0.00    +0.030 A 
ATOM     27  C   UNL     1       3.674   0.970  22.782  0.00  0.00    +0.030 A 
ATOM     28  C   UNL     1       4.964  -1.322  23.713  0.00  0.00    +0.022 A 
ATOM     29  C   UNL     1       5.067   0.894  22.755  0.00  0.00    +0.022 A 
ATOM     30  C   UNL     1       5.712  -0.252  23.220  0.00  0.00    +0.041 A 
ENDBRANCH   2  23
ENDBRANCH   7   2
ENDBRANCH  16   7
ENDBRANCH  10  16
TORSDOF 6
ENDMDL
MODEL 3
REMARK VINA RESULT:      -0.5      1.496      4.351
REMARK  Name = 40779893
REMARK  6 active torsions:
REMARK  status: ('A' for Active; 'I' for Inactive)
REMARK    1  A    between atoms: S_2  and  N_7
REMARK    2  A    between atoms: S_2  and  C_23
REMARK    3  A    between atoms: N_6  and  C_15
REMARK    4  A    between atoms: N_7  and  C_16
REMARK    5  A    between atoms: C_9  and  C_15
REMARK    6  A    between atoms: C_10  and  C_16
REMARK                            x       y       z     vdW  Elec       q    Type
REMARK                         _______ _______ _______ _____ _____    ______ ____
ROOT
ATOM      5  N   UNL     1      -0.670   3.993  25.216  0.00  0.00    -0.298 NA
ATOM      8  C   UNL     1      -3.180   4.094  24.541  0.00  0.00    -0.002 C 
ATOM      9  C   UNL     1      -3.026   3.882  26.065  0.00  0.00    +0.023 C 
ATOM     10  C   UNL     1      -0.939   3.033  24.113  0.00  0.00    +0.072 C 
ATOM     11  C   UNL     1      -2.449   2.963  23.793  0.00  0.00    +0.024 C 
ATOM     12  C   UNL     1      -1.527   3.686  26.387  0.00  0.00    +0.090 C 
ATOM     13  C   UNL     1      -2.457   5.410  24.198  0.00  0.00    +0.019 C 
ATOM     14  C   UNL     1      -1.015   5.353  24.734  0.00  0.00    +0.085 C 
ENDROOT
BRANCH   9  15
ATOM     15  C   UNL     1      -3.873   2.731  26.601  0.00  0.00    +0.110 C 
BRANCH  15   6
ATOM      6  N   UNL     1      -4.313   1.899  25.510  0.00  0.00    -0.329 N 
ATOM     17  C   UNL     1      -5.664   1.977  24.957  0.00  0.00    +0.110 C 
ATOM     18  C   UNL     1      -3.853   0.611  25.277  0.00  0.00    +0.033 A 
ATOM     19  C   UNL     1      -5.792   0.824  23.941  0.00  0.00    +0.056 C 
ATOM     20  C   UNL     1      -4.680  -0.074  24.379  0.00  0.00    -0.025 A 
ATOM     21  C   UNL     1      -2.730  -0.016  25.795  0.00  0.00    +0.023 A 
ATOM     22  C   UNL     1      -4.415  -1.373  23.977  0.00  0.00    +0.005 A 
ATOM     24  C   UNL     1      -2.453  -1.332  25.405  0.00  0.00    +0.002 A 
ATOM     25  C   UNL     1      -3.289  -2.004  24.503  0.00  0.00    +0.000 A 
ENDBRANCH  15   6
ENDBRANCH   9  15
BRANCH  10  16
ATOM     16  C   UNL     1      -0.352   1.646  24.389  0.00  0.00    +0.124 C 
BRANCH  16   7
ATOM      7  N   UNL     1       0.684   1.362  23.434  0.00  0.00    -0.188 NA
ATOM     31  H   UNL     1       0.871   2.072  22.716  0.00  0.00    +0.148 HD
BRANCH   7   2
ATOM      2  S   UNL     1       1.080  -0.257  23.007  0.00  0.00    +0.058 S 
ATOM      3  O   UNL     1       0.770  -0.458  21.605  0.00  0.00    -0.153 OA
ATOM      4  O   UNL     1       0.566  -1.175  24.007  0.00  0.00    -0.153 OA
BRANCH   2  23
ATOM      1 CL   UNL     1       7.328  -0.197  23.619  0.00  0.00    -0.084 Cl
ATOM     23  C   UNL     1       2.839  -0.241  23.179  0.00  0.00    +0.105 A 
ATOM     26  C   UNL     1       3.502  -1.361  23.680  0.00  0.00    +0.030 A 
ATOM     27  C   UNL     1       3.565   0.893  22.815  0.00  0.00    +0.030 A 
ATOM     28  C   UNL     1       4.890  -1.349  23.816  0.00  0.00    +0.022 A 
ATOM     29  C   UNL     1       4.953   0.907  22.951  0.00  0.00    +0.022 A 
ATOM     30  C   UNL     1       5.615  -0.214  23.451  0.00  0.00    +0.041 A 
ENDBRANCH   2  23
ENDBRANCH   7   2
ENDBRANCH  16   7
ENDBRANCH  10  16
TORSDOF 6
ENDMDL
MODEL 4
REMARK VINA RESULT:      -0.3      3.383      6.406
REMARK  Name = 40779893
REMARK  6 active torsions:
REMARK  status: ('A' for Active; 'I' for Inactive)
REMARK    1  A    between atoms: S_2  and  N_7
REMARK    2  A    between atoms: S_2  and  C_23
REMARK    3  A    between atoms: N_6  and  C_15
REMARK    4  A    between atoms: N_7  and  C_16
REMARK    5  A    between atoms: C_9  and  C_15
REMARK    6  A    between atoms: C_10  and  C_16
REMARK                            x       y       z     vdW  Elec       q    Type
REMARK                         _______ _______ _______ _____ _____    ______ ____
ROOT
ATOM      5  N   UNL     1      -3.327  -0.653  25.995  0.00  0.00    -0.298 NA
ATOM      8  C   UNL     1      -2.826  -2.516  24.249  0.00  0.00    -0.002 C 
ATOM      9  C   UNL     1      -1.547  -1.714  24.583  0.00  0.00    +0.023 C 
ATOM     10  C   UNL     1      -4.279  -0.554  24.857  0.00  0.00    +0.072 C 
ATOM     11  C   UNL     1      -3.912  -1.552  23.736  0.00  0.00    +0.024 C 
ATOM     12  C   UNL     1      -1.930  -0.537  25.508  0.00  0.00    +0.090 C 
ATOM     13  C   UNL     1      -3.336  -3.115  25.573  0.00  0.00    +0.019 C 
ATOM     14  C   UNL     1      -3.490  -1.991  26.613  0.00  0.00    +0.085 C 
ENDROOT
BRANCH   9  15
ATOM     15  C   UNL     1      -0.796  -1.234  23.343  0.00  0.00    +0.110 C 
BRANCH  15   6
ATOM      6  N   UNL     1      -0.006  -0.074  23.671  0.00  0.00    -0.329 N 
ATOM     17  C   UNL     1      -0.588   1.260  23.811  0.00  0.00    +0.110 C 
ATOM     18  C   UNL     1       1.318   0.099  23.293  0.00  0.00    +0.033 A 
ATOM     19  C   UNL     1       0.590   2.239  23.987  0.00  0.00    +0.056 C 
ATOM     20  C   UNL     1       1.724   1.431  23.442  0.00  0.00    -0.025 A 
ATOM     21  C   UNL     1       2.219  -0.847  22.830  0.00  0.00    +0.023 A 
ATOM     22  C   UNL     1       3.011   1.846  23.146  0.00  0.00    +0.005 A 
ATOM     24  C   UNL     1       3.522  -0.443  22.518  0.00  0.00    +0.002 A 
ATOM     25  C   UNL     1       3.915   0.894  22.675  0.00  0.00    +0.000 A 
ENDBRANCH  15   6
ENDBRANCH   9  15
BRANCH  10  16
ATOM     16  C   UNL     1      -4.408   0.876  24.326  0.00  0.00    +0.124 C 
BRANCH  16   7
ATOM      7  N   UNL     1      -5.670   1.431  24.737  0.00  0.00    -0.188 NA
ATOM     31  H   UNL     1      -6.468   1.310  24.102  0.00  0.00    +0.148 HD
BRANCH   7   2
ATOM      2  S   UNL     1      -5.741   2.800  25.778  0.00  0.00    +0.058 S 
ATOM      3  O   UNL     1      -5.766   2.337  27.152  0.00  0.00    -0.153 OA
ATOM      4  O   UNL     1      -6.745   3.733  25.304  0.00  0.00    -0.153 OA
BRANCH   2  23
ATOM      1 CL   UNL     1      -0.143   5.440  24.724  0.00  0.00    -0.084 Cl
ATOM     23  C   UNL     1      -4.165   3.543  25.481  0.00  0.00    +0.105 A 
ATOM     26  C   UNL     1      -3.211   3.586  26.499  0.00  0.00    +0.030 A 
ATOM     27  C   UNL     1      -3.874   4.085  24.230  0.00  0.00    +0.030 A 
ATOM     28  C   UNL     1      -1.968   4.173  26.265  0.00  0.00    +0.022 A 
ATOM     29  C   UNL     1      -2.631   4.673  23.995  0.00  0.00    +0.022 A 
ATOM     30  C   UNL     1      -1.677   4.715  25.013  0.00  0.00    +0.041 A 
ENDBRANCH   2  23
ENDBRANCH   7   2
ENDBRANCH  16   7
ENDBRANCH  10  16
TORSDOF 6
ENDMDL
MODEL 5
REMARK VINA RESULT:       0.6      3.844      6.310
REMARK  Name = 40779893
REMARK  6 active torsions:
REMARK  status: ('A' for Active; 'I' for Inactive)
REMARK    1  A    between atoms: S_2  and  N_7
REMARK    2  A    between atoms: S_2  and  C_23
REMARK    3  A    between atoms: N_6  and  C_15
REMARK    4  A    between atoms: N_7  and  C_16
REMARK    5  A    between atoms: C_9  and  C_15
REMARK    6  A    between atoms: C_10  and  C_16
REMARK                            x       y       z     vdW  Elec       q    Type
REMARK                         _______ _______ _______ _____ _____    ______ ____
ROOT
ATOM      5  N   UNL     1      -3.962  -2.100  25.243  0.00  0.00    -0.298 NA
ATOM      8  C   UNL     1      -1.891  -2.498  23.720  0.00  0.00    -0.002 C 
ATOM      9  C   UNL     1      -1.511  -2.624  25.213  0.00  0.00    +0.023 C 
ATOM     10  C   UNL     1      -3.813  -0.974  24.282  0.00  0.00    +0.072 C 
ATOM     11  C   UNL     1      -2.508  -1.110  23.466  0.00  0.00    +0.024 C 
ATOM     12  C   UNL     1      -2.738  -2.237  26.069  0.00  0.00    +0.090 C 
ATOM     13  C   UNL     1      -2.992  -3.542  23.450  0.00  0.00    +0.019 C 
ATOM     14  C   UNL     1      -4.135  -3.348  24.462  0.00  0.00    +0.085 C 
ENDROOT
BRANCH   9  15
ATOM     15  C   UNL     1      -0.279  -1.805  25.591  0.00  0.00    +0.110 C 
BRANCH  15   6
ATOM      6  N   UNL     1      -0.107  -0.723  24.656  0.00  0.00    -0.329 N 
ATOM     17  C   UNL     1       0.728  -0.842  23.461  0.00  0.00    +0.110 C 
ATOM     18  C   UNL     1      -0.126   0.620  25.005  0.00  0.00    +0.033 A 
ATOM     19  C   UNL     1       0.793   0.562  22.827  0.00  0.00    +0.056 C 
ATOM     20  C   UNL     1       0.399   1.422  23.984  0.00  0.00    -0.025 A 
ATOM     21  C   UNL     1      -0.590   1.207  26.171  0.00  0.00    +0.023 A 
ATOM     22  C   UNL     1       0.468   2.801  24.093  0.00  0.00    +0.005 A 
ATOM     24  C   UNL     1      -0.520   2.598  26.301  0.00  0.00    +0.002 A 
ATOM     25  C   UNL     1       0.005   3.389  25.269  0.00  0.00    +0.000 A 
ENDBRANCH  15   6
ENDBRANCH   9  15
BRANCH  10  16
ATOM     16  C   UNL     1      -3.918   0.393  24.963  0.00  0.00    +0.124 C 
BRANCH  16   7
ATOM      7  N   UNL     1      -5.193   0.509  25.618  0.00  0.00    -0.188 NA
ATOM     31  H   UNL     1      -5.777  -0.335  25.666  0.00  0.00    +0.148 HD
BRANCH   7   2
ATOM      2  S   UNL     1      -6.037   2.008  25.662  0.00  0.00    +0.058 S 
ATOM      3  O   UNL     1      -6.547   2.216  27.003  0.00  0.00    -0.153 OA
ATOM      4  O   UNL     1      -6.925   2.113  24.519  0.00  0.00    -0.153 OA
BRANCH   2  23
ATOM      1 CL   UNL     1      -1.354   6.083  24.721  0.00  0.00    -0.084 Cl
ATOM     23  C   UNL     1      -4.718   3.155  25.397  0.00  0.00    +0.105 A 
ATOM     26  C   UNL     1      -4.133   3.808  26.482  0.00  0.00    +0.030 A 
ATOM     27  C   UNL     1      -4.263   3.408  24.103  0.00  0.00    +0.030 A 
ATOM     28  C   UNL     1      -3.093   4.713  26.273  0.00  0.00    +0.022 A 
ATOM     29  C   UNL     1      -3.223   4.313  23.894  0.00  0.00    +0.022 A 
ATOM     30  C   UNL     1      -2.638   4.966  24.979  0.00  0.00    +0.041 A 
ENDBRANCH   2  23
ENDBRANCH   7   2
ENDBRANCH  16   7
ENDBRANCH  10  16
TORSDOF 6
ENDMDL
MODEL 6
REMARK VINA RESULT:       0.6      3.484      7.326
REMARK  Name = 40779893
REMARK  6 active torsions:
REMARK  status: ('A' for Active; 'I' for Inactive)
REMARK    1  A    between atoms: S_2  and  N_7
REMARK    2  A    between atoms: S_2  and  C_23
REMARK    3  A    between atoms: N_6  and  C_15
REMARK    4  A    between atoms: N_7  and  C_16
REMARK    5  A    between atoms: C_9  and  C_15
REMARK    6  A    between atoms: C_10  and  C_16
REMARK                            x       y       z     vdW  Elec       q    Type
REMARK                         _______ _______ _______ _____ _____    ______ ____
ROOT
ATOM      5  N   UNL     1      -1.312   3.914  24.885  0.00  0.00    -0.298 NA
ATOM      8  C   UNL     1      -0.214   1.615  25.414  0.00  0.00    -0.002 C 
ATOM      9  C   UNL     1       0.215   2.124  24.019  0.00  0.00    +0.023 C 
ATOM     10  C   UNL     1      -2.353   2.935  25.296  0.00  0.00    +0.072 C 
ATOM     11  C   UNL     1      -1.751   1.523  25.472  0.00  0.00    +0.024 C 
ATOM     12  C   UNL     1      -0.574   3.413  23.699  0.00  0.00    +0.090 C 
ATOM     13  C   UNL     1       0.217   2.687  26.432  0.00  0.00    +0.019 C 
ATOM     14  C   UNL     1      -0.348   4.053  26.003  0.00  0.00    +0.085 C 
ENDROOT
BRANCH   9  15
ATOM     15  C   UNL     1       0.053   1.077  22.920  0.00  0.00    +0.110 C 
BRANCH  15   6
ATOM      6  N   UNL     1       0.952  -0.024  23.159  0.00  0.00    -0.329 N 
ATOM     17  C   UNL     1       0.616  -1.134  24.050  0.00  0.00    +0.110 C 
ATOM     18  C   UNL     1       2.335   0.082  23.148  0.00  0.00    +0.033 A 
ATOM     19  C   UNL     1       1.885  -2.000  24.173  0.00  0.00    +0.056 C 
ATOM     20  C   UNL     1       2.940  -1.035  23.737  0.00  0.00    -0.025 A 
ATOM     21  C   UNL     1       3.123   1.102  22.636  0.00  0.00    +0.023 A 
ATOM     22  C   UNL     1       4.316  -1.166  23.826  0.00  0.00    +0.005 A 
ATOM     24  C   UNL     1       4.515   0.989  22.725  0.00  0.00    +0.002 A 
ATOM     25  C   UNL     1       5.106  -0.137  23.316  0.00  0.00    +0.000 A 
ENDBRANCH  15   6
ENDBRANCH   9  15
BRANCH  10  16
ATOM     16  C   UNL     1      -3.554   2.926  24.346  0.00  0.00    +0.124 C 
BRANCH  16   7
ATOM      7  N   UNL     1      -4.761   3.162  25.092  0.00  0.00    -0.188 NA
ATOM     31  H   UNL     1      -4.756   3.941  25.761  0.00  0.00    +0.148 HD
BRANCH   7   2
ATOM      2  S   UNL     1      -5.856   1.882  25.439  0.00  0.00    +0.058 S 
ATOM      3  O   UNL     1      -6.907   1.885  24.439  0.00  0.00    -0.153 OA
ATOM      4  O   UNL     1      -6.192   1.883  26.850  0.00  0.00    -0.153 OA
BRANCH   2  23
ATOM      1 CL   UNL     1      -2.234  -3.144  24.421  0.00  0.00    -0.084 Cl
ATOM     23  C   UNL     1      -4.837   0.467  25.152  0.00  0.00    +0.105 A 
ATOM     26  C   UNL     1      -4.252  -0.201  26.228  0.00  0.00    +0.030 A 
ATOM     27  C   UNL     1      -4.617   0.017  23.851  0.00  0.00    +0.030 A 
ATOM     28  C   UNL     1      -3.447  -1.318  26.003  0.00  0.00    +0.022 A 
ATOM     29  C   UNL     1      -3.812  -1.099  23.624  0.00  0.00    +0.022 A 
ATOM     30  C   UNL     1      -3.228  -1.767  24.700  0.00  0.00    +0.041 A 
ENDBRANCH   2  23
ENDBRANCH   7   2
ENDBRANCH  16   7
ENDBRANCH  10  16
TORSDOF 6
ENDMDL
