MODEL 1
REMARK VINA RESULT:       4.2      0.000      0.000
REMARK  Name = 7143040
REMARK  9 active torsions:
REMARK  status: ('A' for Active; 'I' for Inactive)
REMARK    1  A    between atoms: O_4  and  C_28
REMARK    2  A    between atoms: O_4  and  C_33
REMARK    3  A    between atoms: N_7  and  C_21
REMARK    4  A    between atoms: N_8  and  C_27
REMARK    5  A    between atoms: C_16  and  C_19
REMARK    6  A    between atoms: C_19  and  C_20
REMARK    7  A    between atoms: C_20  and  C_23
REMARK    8  A    between atoms: C_20  and  C_24
REMARK    9  A    between atoms: C_20  and  C_25
REMARK                            x       y       z     vdW  Elec       q    Type
REMARK                         _______ _______ _______ _____ _____    ______ ____
ROOT
ATOM      1  O   UNL     1      -4.314  -0.538  26.756  0.00  0.00    -0.276 OA
ATOM      2  O   UNL     1      -0.544   3.141  25.793  0.00  0.00    -0.266 OA
ATOM      5  N   UNL     1      -5.186   1.238  25.537  0.00  0.00    -0.301 N 
ATOM      6  N   UNL     1      -2.727   3.199  24.962  0.00  0.00    -0.310 N 
ATOM      9  C   UNL     1      -4.773   3.519  26.467  0.00  0.00    +0.027 C 
ATOM     10  C   UNL     1      -5.074   3.225  24.044  0.00  0.00    +0.054 C 
ATOM     11  C   UNL     1      -5.416   4.129  25.227  0.00  0.00    +0.018 C 
ATOM     12  C   UNL     1      -5.315   2.101  26.713  0.00  0.00    +0.113 C 
ATOM     13  C   UNL     1      -5.668   1.822  24.277  0.00  0.00    +0.117 C 
ATOM     14  C   UNL     1      -3.250   3.533  26.294  0.00  0.00    +0.130 C 
ATOM     15  C   UNL     1      -3.572   3.124  23.850  0.00  0.00    +0.027 A 
ATOM     16  C   UNL     1      -4.714  -0.066  25.688  0.00  0.00    +0.216 C 
ATOM     17  C   UNL     1      -3.059   2.932  22.624  0.00  0.00    +0.024 A 
ATOM     18  C   UNL     1      -1.329   3.064  24.847  0.00  0.00    +0.273 A 
ATOM     21  C   UNL     1      -0.800   2.828  23.466  0.00  0.00    +0.100 A 
ATOM     22  C   UNL     1      -1.645   2.782  22.431  0.00  0.00    +0.030 A 
ENDROOT
BRANCH  21   7
ATOM      3  O   UNL     1       0.703   0.483  24.041  0.00  0.00    -0.252 OA
ATOM      7  N   UNL     1       0.548   2.679  23.313  0.00  0.00    -0.265 N 
ATOM      8  N   UNL     1       2.607   1.667  23.348  0.00  0.00    -0.266 N 
ATOM     26  C   UNL     1       1.243   1.500  23.611  0.00  0.00    +0.308 C 
ATOM     34  H   UNL     1       1.096   3.530  23.214  0.00  0.00    +0.157 HD
ATOM     35  H   UNL     1       2.896   2.576  22.995  0.00  0.00    +0.156 HD
BRANCH   8  27
ATOM     27  C   UNL     1       3.646   0.723  23.514  0.00  0.00    +0.077 A 
ATOM     28  C   UNL     1       3.446  -0.620  23.191  0.00  0.00    +0.141 A 
ATOM     29  C   UNL     1       4.882   1.145  24.004  0.00  0.00    +0.027 A 
ATOM     30  C   UNL     1       4.481  -1.540  23.360  0.00  0.00    +0.047 A 
ATOM     31  C   UNL     1       5.916   0.224  24.175  0.00  0.00    +0.002 A 
ATOM     32  C   UNL     1       5.715  -1.118  23.852  0.00  0.00    +0.004 A 
BRANCH  28   4
ATOM      4  O   UNL     1       2.246  -1.053  22.709  0.00  0.00    -0.493 OA
ATOM     33  C   UNL     1       1.881  -0.624  21.399  0.00  0.00    +0.277 C 
ENDBRANCH  28   4
ENDBRANCH   8  27
ENDBRANCH  21   7
BRANCH  16  19
ATOM     19  C   UNL     1      -4.697  -0.926  24.450  0.00  0.00    +0.102 C 
BRANCH  19  20
ATOM     20  C   UNL     1      -3.507  -1.901  24.416  0.00  0.00    -0.029 C 
ATOM     23  C   UNL     1      -3.847  -3.028  23.422  0.00  0.00    +0.011 C 
ATOM     24  C   UNL     1      -2.224  -1.198  23.940  0.00  0.00    +0.011 C 
ATOM     25  C   UNL     1      -3.262  -2.527  25.800  0.00  0.00    +0.011 C 
ENDBRANCH  19  20
ENDBRANCH  16  19
TORSDOF 5
ENDMDL
