MODEL 1
REMARK VINA RESULT:      -2.7      0.000      0.000
REMARK  Name = 45784031
REMARK  3 active torsions:
REMARK  status: ('A' for Active; 'I' for Inactive)
REMARK    1  A    between atoms: S_1  and  N_4
REMARK    2  A    between atoms: S_1  and  C_13
REMARK    3  A    between atoms: C_8  and  C_12
REMARK                            x       y       z     vdW  Elec       q    Type
REMARK                         _______ _______ _______ _____ _____    ______ ____
ROOT
ATOM      4  N   UNL     1      -0.625   3.636  25.461  0.00  0.00    -0.176 NA
ATOM      8  C   UNL     1       0.156   1.354  25.637  0.00  0.00    +0.072 C 
ATOM      9  C   UNL     1      -0.416   2.532  26.444  0.00  0.00    +0.120 C 
ATOM     10  C   UNL     1       0.771   2.042  24.416  0.00  0.00    +0.029 C 
ATOM     11  C   UNL     1      -0.192   3.182  24.119  0.00  0.00    +0.110 C 
ENDROOT
BRANCH   8  12
ATOM      5  N   UNL     1      -2.138   0.534  25.007  0.00  0.00    -0.342 N 
ATOM      6  N   UNL     1      -0.542  -1.013  25.062  0.00  0.00    -0.232 NA
ATOM     12  C   UNL     1      -0.818   0.260  25.235  0.00  0.00    +0.113 A 
ATOM     14  C   UNL     1      -2.755  -0.641  24.665  0.00  0.00    +0.066 A 
ATOM     15  C   UNL     1      -1.738  -1.592  24.707  0.00  0.00    +0.089 A 
ATOM     19  C   UNL     1      -4.077  -0.946  24.334  0.00  0.00    +0.028 A 
ATOM     20  C   UNL     1      -2.040  -2.930  24.402  0.00  0.00    +0.030 A 
ATOM     23  C   UNL     1      -4.357  -2.283  24.033  0.00  0.00    +0.002 A 
ATOM     24  C   UNL     1      -3.359  -3.259  24.066  0.00  0.00    +0.002 A 
ATOM     28  H   UNL     1      -2.582   1.440  25.077  0.00  0.00    +0.167 HD
ENDBRANCH   8  12
BRANCH   4   1
ATOM      1  S   UNL     1      -2.021   4.589  25.584  0.00  0.00    +0.063 S 
ATOM      2  O   UNL     1      -1.779   5.870  24.941  0.00  0.00    -0.153 OA
ATOM      3  O   UNL     1      -2.509   4.539  26.952  0.00  0.00    -0.153 OA
BRANCH   1  13
ATOM      7  N   UNL     1      -4.557   3.267  26.426  0.00  0.00    -0.253 NA
ATOM     13  C   UNL     1      -3.129   3.674  24.575  0.00  0.00    +0.131 A 
ATOM     16  C   UNL     1      -4.281   3.113  25.118  0.00  0.00    +0.097 A 
ATOM     17  C   UNL     1      -2.812   3.534  23.222  0.00  0.00    +0.031 A 
ATOM     18  C   UNL     1      -5.134   2.388  24.258  0.00  0.00    +0.002 A 
ATOM     21  C   UNL     1      -3.656   2.818  22.381  0.00  0.00    +0.003 A 
ATOM     22  C   UNL     1      -4.815   2.246  22.897  0.00  0.00    +0.010 A 
ATOM     25  C   UNL     1      -6.294   1.821  24.803  0.00  0.00    +0.011 A 
ATOM     26  C   UNL     1      -5.687   2.705  26.913  0.00  0.00    +0.111 A 
ATOM     27  C   UNL     1      -6.581   1.980  26.151  0.00  0.00    +0.020 A 
ENDBRANCH   1  13
ENDBRANCH   4   1
TORSDOF 3
ENDMDL
MODEL 2
REMARK VINA RESULT:      -2.2      2.961      5.281
REMARK  Name = 45784031
REMARK  3 active torsions:
REMARK  status: ('A' for Active; 'I' for Inactive)
REMARK    1  A    between atoms: S_1  and  N_4
REMARK    2  A    between atoms: S_1  and  C_13
REMARK    3  A    between atoms: C_8  and  C_12
REMARK                            x       y       z     vdW  Elec       q    Type
REMARK                         _______ _______ _______ _____ _____    ______ ____
ROOT
ATOM      4  N   UNL     1      -2.273  -1.617  24.889  0.00  0.00    -0.176 NA
ATOM      8  C   UNL     1      -0.294  -0.235  25.042  0.00  0.00    +0.072 C 
ATOM      9  C   UNL     1      -1.131  -1.095  24.081  0.00  0.00    +0.120 C 
ATOM     10  C   UNL     1      -0.669  -0.794  26.417  0.00  0.00    +0.029 C 
ATOM     11  C   UNL     1      -2.148  -1.126  26.282  0.00  0.00    +0.110 C 
ENDROOT
BRANCH   8  12
ATOM      5  N   UNL     1      -1.449   1.892  25.731  0.00  0.00    -0.342 N 
ATOM      6  N   UNL     1       0.169   2.118  24.224  0.00  0.00    -0.232 NA
ATOM     12  C   UNL     1      -0.498   1.269  24.972  0.00  0.00    +0.113 A 
ATOM     14  C   UNL     1      -1.393   3.234  25.453  0.00  0.00    +0.066 A 
ATOM     15  C   UNL     1      -0.375   3.349  24.510  0.00  0.00    +0.089 A 
ATOM     19  C   UNL     1      -2.124   4.323  25.930  0.00  0.00    +0.028 A 
ATOM     20  C   UNL     1      -0.054   4.620  24.002  0.00  0.00    +0.030 A 
ATOM     23  C   UNL     1      -1.789   5.579  25.414  0.00  0.00    +0.002 A 
ATOM     24  C   UNL     1      -0.773   5.728  24.467  0.00  0.00    +0.002 A 
ATOM     28  H   UNL     1      -2.082   1.447  26.382  0.00  0.00    +0.167 HD
ENDBRANCH   8  12
BRANCH   4   1
ATOM      1  S   UNL     1      -3.813  -1.681  24.186  0.00  0.00    +0.063 S 
ATOM      2  O   UNL     1      -4.633  -2.626  24.925  0.00  0.00    -0.153 OA
ATOM      3  O   UNL     1      -3.671  -1.806  22.746  0.00  0.00    -0.153 OA
BRANCH   1  13
ATOM      7  N   UNL     1      -3.099   0.845  22.772  0.00  0.00    -0.253 NA
ATOM     13  C   UNL     1      -4.398  -0.063  24.539  0.00  0.00    +0.131 A 
ATOM     16  C   UNL     1      -3.969   1.025  23.783  0.00  0.00    +0.097 A 
ATOM     17  C   UNL     1      -5.300   0.087  25.594  0.00  0.00    +0.031 A 
ATOM     18  C   UNL     1      -4.473   2.301  24.113  0.00  0.00    +0.002 A 
ATOM     21  C   UNL     1      -5.792   1.347  25.914  0.00  0.00    +0.003 A 
ATOM     22  C   UNL     1      -5.380   2.453  25.175  0.00  0.00    +0.010 A 
ATOM     25  C   UNL     1      -4.042   3.397  23.354  0.00  0.00    +0.011 A 
ATOM     26  C   UNL     1      -2.708   1.929  22.063  0.00  0.00    +0.111 A 
ATOM     27  C   UNL     1      -3.146   3.214  22.311  0.00  0.00    +0.020 A 
ENDBRANCH   1  13
ENDBRANCH   4   1
TORSDOF 3
ENDMDL
MODEL 3
REMARK VINA RESULT:      -2.1      2.684      5.708
REMARK  Name = 45784031
REMARK  3 active torsions:
REMARK  status: ('A' for Active; 'I' for Inactive)
REMARK    1  A    between atoms: S_1  and  N_4
REMARK    2  A    between atoms: S_1  and  C_13
REMARK    3  A    between atoms: C_8  and  C_12
REMARK                            x       y       z     vdW  Elec       q    Type
REMARK                         _______ _______ _______ _____ _____    ______ ____
ROOT
ATOM      4  N   UNL     1      -2.183  -1.943  25.072  0.00  0.00    -0.176 NA
ATOM      8  C   UNL     1      -4.425  -1.068  24.834  0.00  0.00    +0.072 C 
ATOM      9  C   UNL     1      -3.431  -1.667  25.843  0.00  0.00    +0.120 C 
ATOM     10  C   UNL     1      -3.902  -1.583  23.491  0.00  0.00    +0.029 C 
ATOM     11  C   UNL     1      -2.390  -1.555  23.657  0.00  0.00    +0.110 C 
ENDROOT
BRANCH   8  12
ATOM      5  N   UNL     1      -3.850   1.231  23.987  0.00  0.00    -0.342 N 
ATOM      6  N   UNL     1      -5.378   1.152  25.599  0.00  0.00    -0.232 NA
ATOM     12  C   UNL     1      -4.578   0.443  24.835  0.00  0.00    +0.113 A 
ATOM     14  C   UNL     1      -4.204   2.535  24.220  0.00  0.00    +0.066 A 
ATOM     15  C   UNL     1      -5.159   2.459  25.231  0.00  0.00    +0.089 A 
ATOM     19  C   UNL     1      -3.782   3.738  23.653  0.00  0.00    +0.028 A 
ATOM     20  C   UNL     1      -5.739   3.644  25.715  0.00  0.00    +0.030 A 
ATOM     23  C   UNL     1      -4.371   4.907  24.146  0.00  0.00    +0.002 A 
ATOM     24  C   UNL     1      -5.332   4.864  25.159  0.00  0.00    +0.002 A 
ATOM     28  H   UNL     1      -3.173   0.912  23.307  0.00  0.00    +0.167 HD
ENDBRANCH   8  12
BRANCH   4   1
ATOM      1  S   UNL     1      -0.685  -1.615  25.793  0.00  0.00    +0.063 S 
ATOM      2  O   UNL     1       0.166  -2.787  25.672  0.00  0.00    -0.153 OA
ATOM      3  O   UNL     1      -0.909  -1.005  27.092  0.00  0.00    -0.153 OA
BRANCH   1  13
ATOM      7  N   UNL     1      -1.080   1.333  26.002  0.00  0.00    -0.253 NA
ATOM     13  C   UNL     1      -0.067  -0.380  24.709  0.00  0.00    +0.131 A 
ATOM     16  C   UNL     1      -0.338   0.966  24.941  0.00  0.00    +0.097 A 
ATOM     17  C   UNL     1       0.699  -0.796  23.618  0.00  0.00    +0.031 A 
ATOM     18  C   UNL     1       0.186   1.913  24.035  0.00  0.00    +0.002 A 
ATOM     21  C   UNL     1       1.211   0.143  22.730  0.00  0.00    +0.003 A 
ATOM     22  C   UNL     1       0.956   1.495  22.937  0.00  0.00    +0.010 A 
ATOM     25  C   UNL     1      -0.087   3.268  24.267  0.00  0.00    +0.011 A 
ATOM     26  C   UNL     1      -1.319   2.651  26.191  0.00  0.00    +0.111 A 
ATOM     27  C   UNL     1      -0.851   3.649  25.361  0.00  0.00    +0.020 A 
ENDBRANCH   1  13
ENDBRANCH   4   1
TORSDOF 3
ENDMDL
MODEL 4
REMARK VINA RESULT:      -1.9      1.309      2.486
REMARK  Name = 45784031
REMARK  3 active torsions:
REMARK  status: ('A' for Active; 'I' for Inactive)
REMARK    1  A    between atoms: S_1  and  N_4
REMARK    2  A    between atoms: S_1  and  C_13
REMARK    3  A    between atoms: C_8  and  C_12
REMARK                            x       y       z     vdW  Elec       q    Type
REMARK                         _______ _______ _______ _____ _____    ______ ____
ROOT
ATOM      4  N   UNL     1      -1.047   4.057  25.423  0.00  0.00    -0.176 NA
ATOM      8  C   UNL     1      -0.074   1.957  26.123  0.00  0.00    +0.072 C 
ATOM      9  C   UNL     1      -0.898   3.162  26.608  0.00  0.00    +0.120 C 
ATOM     10  C   UNL     1       0.669   2.517  24.907  0.00  0.00    +0.029 C 
ATOM     11  C   UNL     1      -0.342   3.456  24.266  0.00  0.00    +0.110 C 
ENDROOT
BRANCH   8  12
ATOM      5  N   UNL     1      -0.364  -0.202  24.863  0.00  0.00    -0.342 N 
ATOM      6  N   UNL     1      -1.995   0.313  26.283  0.00  0.00    -0.232 NA
ATOM     12  C   UNL     1      -0.842   0.693  25.779  0.00  0.00    +0.113 A 
ATOM     14  C   UNL     1      -1.268  -1.228  24.769  0.00  0.00    +0.066 A 
ATOM     15  C   UNL     1      -2.277  -0.884  25.665  0.00  0.00    +0.089 A 
ATOM     19  C   UNL     1      -1.290  -2.392  23.999  0.00  0.00    +0.028 A 
ATOM     20  C   UNL     1      -3.381  -1.741  25.815  0.00  0.00    +0.030 A 
ATOM     23  C   UNL     1      -2.396  -3.233  24.163  0.00  0.00    +0.002 A 
ATOM     24  C   UNL     1      -3.424  -2.916  25.054  0.00  0.00    +0.002 A 
ATOM     28  H   UNL     1       0.502  -0.124  24.347  0.00  0.00    +0.167 HD
ENDBRANCH   8  12
BRANCH   4   1
ATOM      1  S   UNL     1      -2.535   4.823  25.157  0.00  0.00    +0.063 S 
ATOM      2  O   UNL     1      -2.538   5.405  23.826  0.00  0.00    -0.153 OA
ATOM      3  O   UNL     1      -2.858   5.642  26.313  0.00  0.00    -0.153 OA
BRANCH   1  13
ATOM      7  N   UNL     1      -2.473   2.495  23.296  0.00  0.00    -0.253 NA
ATOM     13  C   UNL     1      -3.616   3.440  25.149  0.00  0.00    +0.131 A 
ATOM     16  C   UNL     1      -3.459   2.424  24.210  0.00  0.00    +0.097 A 
ATOM     17  C   UNL     1      -4.627   3.398  26.112  0.00  0.00    +0.031 A 
ATOM     18  C   UNL     1      -4.358   1.337  24.253  0.00  0.00    +0.002 A 
ATOM     21  C   UNL     1      -5.510   2.325  26.147  0.00  0.00    +0.003 A 
ATOM     22  C   UNL     1      -5.376   1.296  25.220  0.00  0.00    +0.010 A 
ATOM     25  C   UNL     1      -4.202   0.314  23.307  0.00  0.00    +0.011 A 
ATOM     26  C   UNL     1      -2.356   1.487  22.402  0.00  0.00    +0.111 A 
ATOM     27  C   UNL     1      -3.186   0.385  22.365  0.00  0.00    +0.020 A 
ENDBRANCH   1  13
ENDBRANCH   4   1
TORSDOF 3
ENDMDL
MODEL 5
REMARK VINA RESULT:      -1.9      2.959      4.813
REMARK  Name = 45784031
REMARK  3 active torsions:
REMARK  status: ('A' for Active; 'I' for Inactive)
REMARK    1  A    between atoms: S_1  and  N_4
REMARK    2  A    between atoms: S_1  and  C_13
REMARK    3  A    between atoms: C_8  and  C_12
REMARK                            x       y       z     vdW  Elec       q    Type
REMARK                         _______ _______ _______ _____ _____    ______ ____
ROOT
ATOM      4  N   UNL     1      -1.120   1.255  24.513  0.00  0.00    -0.176 NA
ATOM      8  C   UNL     1       0.117  -0.209  23.037  0.00  0.00    +0.072 C 
ATOM      9  C   UNL     1      -0.604   1.147  23.116  0.00  0.00    +0.120 C 
ATOM     10  C   UNL     1      -0.533  -1.009  24.170  0.00  0.00    +0.029 C 
ATOM     11  C   UNL     1      -0.758   0.027  25.261  0.00  0.00    +0.110 C 
ENDROOT
BRANCH   8  12
ATOM      5  N   UNL     1       2.320  -1.284  23.602  0.00  0.00    -0.342 N 
ATOM      6  N   UNL     1       2.430   0.812  22.871  0.00  0.00    -0.232 NA
ATOM     12  C   UNL     1       1.630  -0.191  23.158  0.00  0.00    +0.113 A 
ATOM     14  C   UNL     1       3.654  -0.967  23.601  0.00  0.00    +0.066 A 
ATOM     15  C   UNL     1       3.696   0.347  23.142  0.00  0.00    +0.089 A 
ATOM     19  C   UNL     1       4.793  -1.692  23.955  0.00  0.00    +0.028 A 
ATOM     20  C   UNL     1       4.940   0.990  23.020  0.00  0.00    +0.030 A 
ATOM     23  C   UNL     1       6.021  -1.037  23.826  0.00  0.00    +0.002 A 
ATOM     24  C   UNL     1       6.097   0.281  23.367  0.00  0.00    +0.002 A 
ATOM     28  H   UNL     1       1.922  -2.171  23.880  0.00  0.00    +0.167 HD
ENDBRANCH   8  12
BRANCH   4   1
ATOM      1  S   UNL     1      -1.025   2.747  25.309  0.00  0.00    +0.063 S 
ATOM      2  O   UNL     1      -0.369   3.709  24.439  0.00  0.00    -0.153 OA
ATOM      3  O   UNL     1      -0.535   2.532  26.660  0.00  0.00    -0.153 OA
BRANCH   1  13
ATOM      7  N   UNL     1      -3.363   0.957  24.843  0.00  0.00    -0.253 NA
ATOM     13  C   UNL     1      -2.725   3.173  25.405  0.00  0.00    +0.131 A 
ATOM     16  C   UNL     1      -3.709   2.219  25.159  0.00  0.00    +0.097 A 
ATOM     17  C   UNL     1      -3.049   4.490  25.736  0.00  0.00    +0.031 A 
ATOM     18  C   UNL     1      -5.059   2.619  25.251  0.00  0.00    +0.002 A 
ATOM     21  C   UNL     1      -4.381   4.878  25.825  0.00  0.00    +0.003 A 
ATOM     22  C   UNL     1      -5.385   3.945  25.583  0.00  0.00    +0.010 A 
ATOM     25  C   UNL     1      -6.050   1.660  25.002  0.00  0.00    +0.011 A 
ATOM     26  C   UNL     1      -4.350   0.061  24.611  0.00  0.00    +0.111 A 
ATOM     27  C   UNL     1      -5.696   0.359  24.677  0.00  0.00    +0.020 A 
ENDBRANCH   1  13
ENDBRANCH   4   1
TORSDOF 3
ENDMDL
MODEL 6
REMARK VINA RESULT:      -1.6      1.401      4.043
REMARK  Name = 45784031
REMARK  3 active torsions:
REMARK  status: ('A' for Active; 'I' for Inactive)
REMARK    1  A    between atoms: S_1  and  N_4
REMARK    2  A    between atoms: S_1  and  C_13
REMARK    3  A    between atoms: C_8  and  C_12
REMARK                            x       y       z     vdW  Elec       q    Type
REMARK                         _______ _______ _______ _____ _____    ______ ____
ROOT
ATOM      4  N   UNL     1      -5.273   3.490  25.328  0.00  0.00    -0.176 NA
ATOM      8  C   UNL     1      -6.032   1.207  25.088  0.00  0.00    +0.072 C 
ATOM      9  C   UNL     1      -5.808   2.523  24.325  0.00  0.00    +0.120 C 
ATOM     10  C   UNL     1      -6.172   1.671  26.539  0.00  0.00    +0.029 C 
ATOM     11  C   UNL     1      -5.183   2.822  26.649  0.00  0.00    +0.110 C 
ENDROOT
BRANCH   8  12
ATOM      5  N   UNL     1      -3.711   0.309  25.462  0.00  0.00    -0.342 N 
ATOM      6  N   UNL     1      -5.088  -1.020  24.331  0.00  0.00    -0.232 NA
ATOM     12  C   UNL     1      -4.963   0.138  24.940  0.00  0.00    +0.113 A 
ATOM     14  C   UNL     1      -2.979  -0.813  25.171  0.00  0.00    +0.066 A 
ATOM     15  C   UNL     1      -3.860  -1.627  24.465  0.00  0.00    +0.089 A 
ATOM     19  C   UNL     1      -1.661  -1.175  25.455  0.00  0.00    +0.028 A 
ATOM     20  C   UNL     1      -3.418  -2.881  24.007  0.00  0.00    +0.030 A 
ATOM     23  C   UNL     1      -1.239  -2.425  24.993  0.00  0.00    +0.002 A 
ATOM     24  C   UNL     1      -2.099  -3.265  24.282  0.00  0.00    +0.002 A 
ATOM     28  H   UNL     1      -3.381   1.117  25.974  0.00  0.00    +0.167 HD
ENDBRANCH   8  12
BRANCH   4   1
ATOM      1  S   UNL     1      -4.030   4.546  24.868  0.00  0.00    +0.063 S 
ATOM      2  O   UNL     1      -3.356   5.034  26.060  0.00  0.00    -0.153 OA
ATOM      3  O   UNL     1      -4.546   5.483  23.885  0.00  0.00    -0.153 OA
BRANCH   1  13
ATOM      7  N   UNL     1      -1.473   3.419  25.908  0.00  0.00    -0.253 NA
ATOM     13  C   UNL     1      -2.947   3.435  24.048  0.00  0.00    +0.131 A 
ATOM     16  C   UNL     1      -1.781   2.994  24.668  0.00  0.00    +0.097 A 
ATOM     17  C   UNL     1      -3.297   3.015  22.762  0.00  0.00    +0.031 A 
ATOM     18  C   UNL     1      -0.949   2.102  23.959  0.00  0.00    +0.002 A 
ATOM     21  C   UNL     1      -2.472   2.136  22.070  0.00  0.00    +0.003 A 
ATOM     22  C   UNL     1      -1.300   1.679  22.666  0.00  0.00    +0.010 A 
ATOM     25  C   UNL     1       0.225   1.658  24.583  0.00  0.00    +0.011 A 
ATOM     26  C   UNL     1      -0.332   2.967  26.474  0.00  0.00    +0.111 A 
ATOM     27  C   UNL     1       0.544   2.094  25.861  0.00  0.00    +0.020 A 
ENDBRANCH   1  13
ENDBRANCH   4   1
TORSDOF 3
ENDMDL
MODEL 7
REMARK VINA RESULT:      -1.5      2.109      3.990
REMARK  Name = 45784031
REMARK  3 active torsions:
REMARK  status: ('A' for Active; 'I' for Inactive)
REMARK    1  A    between atoms: S_1  and  N_4
REMARK    2  A    between atoms: S_1  and  C_13
REMARK    3  A    between atoms: C_8  and  C_12
REMARK                            x       y       z     vdW  Elec       q    Type
REMARK                         _______ _______ _______ _____ _____    ______ ____
ROOT
ATOM      4  N   UNL     1      -3.911   4.000  26.015  0.00  0.00    -0.176 NA
ATOM      8  C   UNL     1      -1.514   3.792  26.264  0.00  0.00    +0.072 C 
ATOM      9  C   UNL     1      -2.861   3.445  26.920  0.00  0.00    +0.120 C 
ATOM     10  C   UNL     1      -1.862   4.993  25.381  0.00  0.00    +0.029 C 
ATOM     11  C   UNL     1      -3.258   4.671  24.866  0.00  0.00    +0.110 C 
ENDROOT
BRANCH   8  12
ATOM      5  N   UNL     1      -1.091   1.371  25.723  0.00  0.00    -0.342 N 
ATOM      6  N   UNL     1       0.040   2.844  24.501  0.00  0.00    -0.232 NA
ATOM     12  C   UNL     1      -0.833   2.690  25.471  0.00  0.00    +0.113 A 
ATOM     14  C   UNL     1      -0.335   0.624  24.857  0.00  0.00    +0.066 A 
ATOM     15  C   UNL     1       0.362   1.566  24.105  0.00  0.00    +0.089 A 
ATOM     19  C   UNL     1      -0.204  -0.753  24.673  0.00  0.00    +0.028 A 
ATOM     20  C   UNL     1       1.246   1.125  23.105  0.00  0.00    +0.030 A 
ATOM     23  C   UNL     1       0.680  -1.173  23.674  0.00  0.00    +0.002 A 
ATOM     24  C   UNL     1       1.393  -0.253  22.902  0.00  0.00    +0.002 A 
ATOM     28  H   UNL     1      -1.727   1.009  26.421  0.00  0.00    +0.167 HD
ENDBRANCH   8  12
BRANCH   4   1
ATOM      1  S   UNL     1      -5.313   3.092  25.734  0.00  0.00    +0.063 S 
ATOM      2  O   UNL     1      -6.112   3.755  24.716  0.00  0.00    -0.153 OA
ATOM      3  O   UNL     1      -5.908   2.733  27.010  0.00  0.00    -0.153 OA
BRANCH   1  13
ATOM      7  N   UNL     1      -3.711   2.892  23.227  0.00  0.00    -0.253 NA
ATOM     13  C   UNL     1      -4.625   1.641  25.025  0.00  0.00    +0.131 A 
ATOM     16  C   UNL     1      -3.895   1.708  23.841  0.00  0.00    +0.097 A 
ATOM     17  C   UNL     1      -4.835   0.430  25.688  0.00  0.00    +0.031 A 
ATOM     18  C   UNL     1      -3.366   0.509  23.319  0.00  0.00    +0.002 A 
ATOM     21  C   UNL     1      -4.311  -0.748  25.168  0.00  0.00    +0.003 A 
ATOM     22  C   UNL     1      -3.578  -0.709  23.986  0.00  0.00    +0.010 A 
ATOM     25  C   UNL     1      -2.632   0.576  22.127  0.00  0.00    +0.011 A 
ATOM     26  C   UNL     1      -2.997   2.913  22.079  0.00  0.00    +0.111 A 
ATOM     27  C   UNL     1      -2.441   1.794  21.492  0.00  0.00    +0.020 A 
ENDBRANCH   1  13
ENDBRANCH   4   1
TORSDOF 3
ENDMDL
MODEL 8
REMARK VINA RESULT:      -1.1      2.441      5.204
REMARK  Name = 45784031
REMARK  3 active torsions:
REMARK  status: ('A' for Active; 'I' for Inactive)
REMARK    1  A    between atoms: S_1  and  N_4
REMARK    2  A    between atoms: S_1  and  C_13
REMARK    3  A    between atoms: C_8  and  C_12
REMARK                            x       y       z     vdW  Elec       q    Type
REMARK                         _______ _______ _______ _____ _____    ______ ____
ROOT
ATOM      4  N   UNL     1       0.503   1.732  24.346  0.00  0.00    -0.176 NA
ATOM      8  C   UNL     1      -0.726   3.559  25.346  0.00  0.00    +0.072 C 
ATOM      9  C   UNL     1      -0.030   3.096  24.055  0.00  0.00    +0.120 C 
ATOM     10  C   UNL     1      -0.045   2.713  26.425  0.00  0.00    +0.029 C 
ATOM     11  C   UNL     1       0.175   1.369  25.746  0.00  0.00    +0.110 C 
ENDROOT
BRANCH   8  12
ATOM      5  N   UNL     1      -2.851   2.219  25.209  0.00  0.00    -0.342 N 
ATOM      6  N   UNL     1      -3.105   4.389  25.616  0.00  0.00    -0.232 NA
ATOM     12  C   UNL     1      -2.238   3.426  25.398  0.00  0.00    +0.113 A 
ATOM     14  C   UNL     1      -4.203   2.415  25.313  0.00  0.00    +0.066 A 
ATOM     15  C   UNL     1      -4.336   3.778  25.567  0.00  0.00    +0.089 A 
ATOM     19  C   UNL     1      -5.290   1.546  25.207  0.00  0.00    +0.028 A 
ATOM     20  C   UNL     1      -5.622   4.322  25.729  0.00  0.00    +0.030 A 
ATOM     23  C   UNL     1      -6.561   2.104  25.373  0.00  0.00    +0.002 A 
ATOM     24  C   UNL     1      -6.727   3.467  25.629  0.00  0.00    +0.002 A 
ATOM     28  H   UNL     1      -2.391   1.336  25.027  0.00  0.00    +0.167 HD
ENDBRANCH   8  12
BRANCH   4   1
ATOM      1  S   UNL     1       0.391   0.536  23.151  0.00  0.00    +0.063 S 
ATOM      2  O   UNL     1       1.730   0.157  22.731  0.00  0.00    -0.153 OA
ATOM      3  O   UNL     1      -0.596   0.943  22.166  0.00  0.00    -0.153 OA
BRANCH   1  13
ATOM      7  N   UNL     1      -2.476  -0.258  23.352  0.00  0.00    -0.253 NA
ATOM     13  C   UNL     1      -0.282  -0.792  24.082  0.00  0.00    +0.131 A 
ATOM     16  C   UNL     1      -1.653  -1.038  24.075  0.00  0.00    +0.097 A 
ATOM     17  C   UNL     1       0.601  -1.582  24.822  0.00  0.00    +0.031 A 
ATOM     18  C   UNL     1      -2.136  -2.119  24.843  0.00  0.00    +0.002 A 
ATOM     21  C   UNL     1       0.118  -2.644  25.576  0.00  0.00    +0.003 A 
ATOM     22  C   UNL     1      -1.248  -2.914  25.587  0.00  0.00    +0.010 A 
ATOM     25  C   UNL     1      -3.515  -2.368  24.837  0.00  0.00    +0.011 A 
ATOM     26  C   UNL     1      -3.801  -0.532  23.372  0.00  0.00    +0.111 A 
ATOM     27  C   UNL     1      -4.366  -1.565  24.092  0.00  0.00    +0.020 A 
ENDBRANCH   1  13
ENDBRANCH   4   1
TORSDOF 3
ENDMDL
MODEL 9
REMARK VINA RESULT:      -1.1      2.048      3.618
REMARK  Name = 45784031
REMARK  3 active torsions:
REMARK  status: ('A' for Active; 'I' for Inactive)
REMARK    1  A    between atoms: S_1  and  N_4
REMARK    2  A    between atoms: S_1  and  C_13
REMARK    3  A    between atoms: C_8  and  C_12
REMARK                            x       y       z     vdW  Elec       q    Type
REMARK                         _______ _______ _______ _____ _____    ______ ____
ROOT
ATOM      4  N   UNL     1      -3.200   4.178  25.785  0.00  0.00    -0.176 NA
ATOM      8  C   UNL     1      -0.842   3.772  26.136  0.00  0.00    +0.072 C 
ATOM      9  C   UNL     1      -2.246   3.449  26.673  0.00  0.00    +0.120 C 
ATOM     10  C   UNL     1      -1.056   5.088  25.385  0.00  0.00    +0.029 C 
ATOM     11  C   UNL     1      -2.435   4.928  24.761  0.00  0.00    +0.110 C 
ENDROOT
BRANCH   8  12
ATOM      5  N   UNL     1      -0.697   1.459  25.157  0.00  0.00    -0.342 N 
ATOM      6  N   UNL     1       0.891   2.876  24.518  0.00  0.00    -0.232 NA
ATOM     12  C   UNL     1      -0.185   2.722  25.256  0.00  0.00    +0.113 A 
ATOM     14  C   UNL     1       0.103   0.749  24.299  0.00  0.00    +0.066 A 
ATOM     15  C   UNL     1       1.087   1.656  23.914  0.00  0.00    +0.089 A 
ATOM     19  C   UNL     1       0.053  -0.568  23.841  0.00  0.00    +0.028 A 
ATOM     20  C   UNL     1       2.088   1.241  23.019  0.00  0.00    +0.030 A 
ATOM     23  C   UNL     1       1.056  -0.963  22.950  0.00  0.00    +0.002 A 
ATOM     24  C   UNL     1       2.057  -0.077  22.545  0.00  0.00    +0.002 A 
ATOM     28  H   UNL     1      -1.519   1.107  25.630  0.00  0.00    +0.167 HD
ENDBRANCH   8  12
BRANCH   4   1
ATOM      1  S   UNL     1      -4.639   3.411  25.323  0.00  0.00    +0.063 S 
ATOM      2  O   UNL     1      -5.478   4.364  24.617  0.00  0.00    -0.153 OA
ATOM      3  O   UNL     1      -5.166   2.673  26.457  0.00  0.00    -0.153 OA
BRANCH   1  13
ATOM      7  N   UNL     1      -4.339   0.467  25.685  0.00  0.00    -0.253 NA
ATOM     13  C   UNL     1      -4.028   2.253  24.153  0.00  0.00    +0.131 A 
ATOM     16  C   UNL     1      -3.948   0.900  24.472  0.00  0.00    +0.097 A 
ATOM     17  C   UNL     1      -3.631   2.736  22.904  0.00  0.00    +0.031 A 
ATOM     18  C   UNL     1      -3.449   0.016  23.491  0.00  0.00    +0.002 A 
ATOM     21  C   UNL     1      -3.141   1.860  21.944  0.00  0.00    +0.003 A 
ATOM     22  C   UNL     1      -3.049   0.502  22.236  0.00  0.00    +0.010 A 
ATOM     25  C   UNL     1      -3.367  -1.346  23.812  0.00  0.00    +0.011 A 
ATOM     26  C   UNL     1      -4.244  -0.855  25.954  0.00  0.00    +0.111 A 
ATOM     27  C   UNL     1      -3.770  -1.795  25.061  0.00  0.00    +0.020 A 
ENDBRANCH   1  13
ENDBRANCH   4   1
TORSDOF 3
ENDMDL
MODEL 10
REMARK VINA RESULT:      -1.0      1.562      4.149
REMARK  Name = 45784031
REMARK  3 active torsions:
REMARK  status: ('A' for Active; 'I' for Inactive)
REMARK    1  A    between atoms: S_1  and  N_4
REMARK    2  A    between atoms: S_1  and  C_13
REMARK    3  A    between atoms: C_8  and  C_12
REMARK                            x       y       z     vdW  Elec       q    Type
REMARK                         _______ _______ _______ _____ _____    ______ ____
ROOT
ATOM      4  N   UNL     1      -4.784   3.728  25.341  0.00  0.00    -0.176 NA
ATOM      8  C   UNL     1      -5.694   1.517  24.981  0.00  0.00    +0.072 C 
ATOM      9  C   UNL     1      -5.310   2.827  24.274  0.00  0.00    +0.120 C 
ATOM     10  C   UNL     1      -5.914   1.961  26.430  0.00  0.00    +0.029 C 
ATOM     11  C   UNL     1      -4.851   3.028  26.646  0.00  0.00    +0.110 C 
ENDROOT
BRANCH   8  12
ATOM      5  N   UNL     1      -3.590   0.329  25.683  0.00  0.00    -0.342 N 
ATOM      6  N   UNL     1      -4.773  -0.668  24.087  0.00  0.00    -0.232 NA
ATOM     12  C   UNL     1      -4.702   0.371  24.889  0.00  0.00    +0.113 A 
ATOM     14  C   UNL     1      -2.897  -0.813  25.373  0.00  0.00    +0.066 A 
ATOM     15  C   UNL     1      -3.656  -1.418  24.374  0.00  0.00    +0.089 A 
ATOM     19  C   UNL     1      -1.707  -1.352  25.863  0.00  0.00    +0.028 A 
ATOM     20  C   UNL     1      -3.216  -2.633  23.822  0.00  0.00    +0.030 A 
ATOM     23  C   UNL     1      -1.286  -2.562  25.303  0.00  0.00    +0.002 A 
ATOM     24  C   UNL     1      -2.025  -3.193  24.300  0.00  0.00    +0.002 A 
ATOM     28  H   UNL     1      -3.324   1.015  26.377  0.00  0.00    +0.167 HD
ENDBRANCH   8  12
BRANCH   4   1
ATOM      1  S   UNL     1      -3.432   4.693  25.007  0.00  0.00    +0.063 S 
ATOM      2  O   UNL     1      -3.249   5.646  26.089  0.00  0.00    -0.153 OA
ATOM      3  O   UNL     1      -3.508   5.155  23.632  0.00  0.00    -0.153 OA
BRANCH   1  13
ATOM      7  N   UNL     1      -2.718   2.627  22.980  0.00  0.00    -0.253 NA
ATOM     13  C   UNL     1      -2.148   3.500  25.112  0.00  0.00    +0.131 A 
ATOM     16  C   UNL     1      -1.936   2.595  24.075  0.00  0.00    +0.097 A 
ATOM     17  C   UNL     1      -1.356   3.494  26.262  0.00  0.00    +0.031 A 
ATOM     18  C   UNL     1      -0.889   1.658  24.216  0.00  0.00    +0.002 A 
ATOM     21  C   UNL     1      -0.327   2.570  26.394  0.00  0.00    +0.003 A 
ATOM     22  C   UNL     1      -0.093   1.653  25.373  0.00  0.00    +0.010 A 
ATOM     25  C   UNL     1      -0.676   0.746  23.173  0.00  0.00    +0.011 A 
ATOM     26  C   UNL     1      -2.478   1.730  21.996  0.00  0.00    +0.111 A 
ATOM     27  C   UNL     1      -1.479   0.778  22.043  0.00  0.00    +0.020 A 
ENDBRANCH   1  13
ENDBRANCH   4   1
TORSDOF 3
ENDMDL
