MODEL 1
REMARK VINA RESULT:       6.5      0.000      0.000
REMARK  Name = 44716947
REMARK  14 active torsions:
REMARK  status: ('A' for Active; 'I' for Inactive)
REMARK    1  A    between atoms: O_1  and  C_16
REMARK    2  A    between atoms: O_1  and  C_25
REMARK    3  A    between atoms: O_2  and  C_17
REMARK    4  A    between atoms: O_3  and  C_21
REMARK    5  A    between atoms: O_6  and  C_33
REMARK    6  A    between atoms: O_6  and  C_36
REMARK    7  A    between atoms: O_7  and  C_34
REMARK    8  A    between atoms: O_7  and  C_37
REMARK    9  A    between atoms: N_9  and  C_30
REMARK   10  A    between atoms: C_10  and  C_20
REMARK   11  A    between atoms: C_12  and  C_21
REMARK   12  A    between atoms: C_12  and  C_23
REMARK   13  A    between atoms: C_13  and  C_22
REMARK   14  A    between atoms: C_22  and  C_24
REMARK                            x       y       z     vdW  Elec       q    Type
REMARK                         _______ _______ _______ _____ _____    ______ ____
ROOT
ATOM     10  C   UNL     1      -4.021   1.587  24.867  0.00  0.00    -0.023 C 
ATOM     11  C   UNL     1      -3.974   2.791  25.885  0.00  0.00    +0.007 C 
ATOM     12  C   UNL     1      -2.687   3.701  25.847  0.00  0.00    +0.031 C 
ATOM     13  C   UNL     1      -5.225   0.654  25.308  0.00  0.00    +0.032 C 
ATOM     14  C   UNL     1      -2.693   0.793  24.983  0.00  0.00    +0.011 C 
ATOM     15  C   UNL     1      -5.311   3.566  25.885  0.00  0.00    +0.007 C 
ATOM     16  C   UNL     1      -1.424   2.788  25.887  0.00  0.00    +0.186 C 
ATOM     17  C   UNL     1      -6.575   1.401  25.411  0.00  0.00    +0.119 C 
ATOM     18  C   UNL     1      -1.445   1.661  24.860  0.00  0.00    +0.046 C 
ATOM     19  C   UNL     1      -6.479   2.657  26.273  0.00  0.00    +0.032 C 
ATOM     20  C   UNL     1      -4.188   2.028  23.392  0.00  0.00    +0.012 C 
ATOM     23  C   UNL     1      -2.656   4.594  27.120  0.00  0.00    +0.017 C 
ENDROOT
BRANCH  17   2
ATOM      2  O   UNL     1      -7.069   1.740  24.119  0.00  0.00    -0.391 OA
ATOM     38  H   UNL     1      -8.000   1.462  24.077  0.00  0.00    +0.210 HD
ENDBRANCH  17   2
BRANCH  16   1
ATOM      1  O   UNL     1      -0.225   3.531  25.668  0.00  0.00    -0.446 OA
BRANCH   1  25
ATOM      5  O   UNL     1       0.613   4.004  23.594  0.00  0.00    -0.226 OA
ATOM      9  N   UNL     1       0.976   1.942  24.643  0.00  0.00    -0.251 N 
ATOM     25  C   UNL     1       0.478   3.227  24.530  0.00  0.00    +0.405 C 
ATOM     40  H   UNL     1       0.756   1.448  25.503  0.00  0.00    +0.158 HD
BRANCH   9  30
ATOM     30  C   UNL     1       1.755   1.227  23.705  0.00  0.00    +0.043 A 
ATOM     31  C   UNL     1       1.131   0.483  22.704  0.00  0.00    +0.069 A 
ATOM     32  C   UNL     1       3.148   1.265  23.781  0.00  0.00    +0.069 A 
ATOM     33  C   UNL     1       3.916   0.559  22.855  0.00  0.00    +0.125 A 
ATOM     34  C   UNL     1       1.899  -0.223  21.778  0.00  0.00    +0.125 A 
ATOM     35  C   UNL     1       3.291  -0.185  21.854  0.00  0.00    +0.091 A 
BRANCH  33   6
ATOM      6  O   UNL     1       5.275   0.596  22.929  0.00  0.00    -0.495 OA
ATOM     36  C   UNL     1       5.895  -0.241  23.904  0.00  0.00    +0.277 C 
ENDBRANCH  33   6
BRANCH  34   7
ATOM      7  O   UNL     1       1.291  -0.950  20.801  0.00  0.00    -0.495 OA
ATOM     37  C   UNL     1      -0.015  -0.536  20.403  0.00  0.00    +0.277 C 
ENDBRANCH  34   7
ENDBRANCH   9  30
ENDBRANCH   1  25
ENDBRANCH  16   1
BRANCH  12  21
ATOM     21  C   UNL     1      -2.639   4.674  24.651  0.00  0.00    +0.166 C 
BRANCH  21   3
ATOM      3  O   UNL     1      -1.696   5.680  24.948  0.00  0.00    -0.394 OA
ATOM     39  H   UNL     1      -1.128   5.785  24.166  0.00  0.00    +0.209 HD
ENDBRANCH  21   3
ENDBRANCH  12  21
BRANCH  13  22
ATOM     22  C   UNL     1      -5.397  -0.621  24.467  0.00  0.00    +0.102 C 
BRANCH  22  24
ATOM      4  O   UNL     1      -3.889  -0.490  22.628  0.00  0.00    -0.276 OA
ATOM      8  N   UNL     1      -3.228  -1.751  24.449  0.00  0.00    -0.301 N 
ATOM     24  C   UNL     1      -4.106  -0.939  23.755  0.00  0.00    +0.216 C 
ATOM     26  C   UNL     1      -3.423  -2.310  25.782  0.00  0.00    +0.108 C 
ATOM     27  C   UNL     1      -1.943  -2.155  23.896  0.00  0.00    +0.108 C 
ATOM     28  C   UNL     1      -2.303  -3.329  25.934  0.00  0.00    +0.020 C 
ATOM     29  C   UNL     1      -1.188  -2.741  25.079  0.00  0.00    +0.020 C 
ENDBRANCH  22  24
ENDBRANCH  13  22
TORSDOF 10
ENDMDL
MODEL 2
REMARK VINA RESULT:       6.6      0.034      2.104
REMARK  Name = 44716947
REMARK  14 active torsions:
REMARK  status: ('A' for Active; 'I' for Inactive)
REMARK    1  A    between atoms: O_1  and  C_16
REMARK    2  A    between atoms: O_1  and  C_25
REMARK    3  A    between atoms: O_2  and  C_17
REMARK    4  A    between atoms: O_3  and  C_21
REMARK    5  A    between atoms: O_6  and  C_33
REMARK    6  A    between atoms: O_6  and  C_36
REMARK    7  A    between atoms: O_7  and  C_34
REMARK    8  A    between atoms: O_7  and  C_37
REMARK    9  A    between atoms: N_9  and  C_30
REMARK   10  A    between atoms: C_10  and  C_20
REMARK   11  A    between atoms: C_12  and  C_21
REMARK   12  A    between atoms: C_12  and  C_23
REMARK   13  A    between atoms: C_13  and  C_22
REMARK   14  A    between atoms: C_22  and  C_24
REMARK                            x       y       z     vdW  Elec       q    Type
REMARK                         _______ _______ _______ _____ _____    ______ ____
ROOT
ATOM     10  C   UNL     1      -4.018   1.592  24.869  0.00  0.00    -0.023 C 
ATOM     11  C   UNL     1      -3.973   2.808  25.873  0.00  0.00    +0.007 C 
ATOM     12  C   UNL     1      -2.679   3.709  25.837  0.00  0.00    +0.031 C 
ATOM     13  C   UNL     1      -5.232   0.673  25.309  0.00  0.00    +0.032 C 
ATOM     14  C   UNL     1      -2.696   0.791  25.007  0.00  0.00    +0.011 C 
ATOM     15  C   UNL     1      -5.304   3.592  25.850  0.00  0.00    +0.007 C 
ATOM     16  C   UNL     1      -1.422   2.789  25.900  0.00  0.00    +0.186 C 
ATOM     17  C   UNL     1      -6.578   1.430  25.390  0.00  0.00    +0.119 C 
ATOM     18  C   UNL     1      -1.441   1.649  24.887  0.00  0.00    +0.046 C 
ATOM     19  C   UNL     1      -6.482   2.695  26.237  0.00  0.00    +0.032 C 
ATOM     20  C   UNL     1      -4.167   2.017  23.387  0.00  0.00    +0.012 C 
ATOM     23  C   UNL     1      -2.655   4.617  27.099  0.00  0.00    +0.017 C 
ENDROOT
BRANCH  17   2
ATOM      2  O   UNL     1      -7.057   1.757  24.089  0.00  0.00    -0.391 OA
ATOM     38  H   UNL     1      -8.028   1.732  24.117  0.00  0.00    +0.210 HD
ENDBRANCH  17   2
BRANCH  16   1
ATOM      1  O   UNL     1      -0.217   3.521  25.685  0.00  0.00    -0.446 OA
BRANCH   1  25
ATOM      5  O   UNL     1       0.609   4.008  23.609  0.00  0.00    -0.226 OA
ATOM      9  N   UNL     1       0.970   1.936  24.637  0.00  0.00    -0.251 N 
ATOM     25  C   UNL     1       0.477   3.223  24.539  0.00  0.00    +0.405 C 
ATOM     40  H   UNL     1       0.754   1.435  25.495  0.00  0.00    +0.158 HD
BRANCH   9  30
ATOM     30  C   UNL     1       1.740   1.225  23.688  0.00  0.00    +0.043 A 
ATOM     31  C   UNL     1       3.133   1.254  23.759  0.00  0.00    +0.069 A 
ATOM     32  C   UNL     1       1.107   0.496  22.681  0.00  0.00    +0.069 A 
ATOM     33  C   UNL     1       1.868  -0.206  21.745  0.00  0.00    +0.125 A 
ATOM     34  C   UNL     1       3.893   0.552  22.823  0.00  0.00    +0.125 A 
ATOM     35  C   UNL     1       3.261  -0.177  21.817  0.00  0.00    +0.091 A 
BRANCH  33   6
ATOM      6  O   UNL     1       1.251  -0.918  20.763  0.00  0.00    -0.495 OA
ATOM     36  C   UNL     1      -0.047  -0.481  20.362  0.00  0.00    +0.277 C 
ENDBRANCH  33   6
BRANCH  34   7
ATOM      7  O   UNL     1       5.252   0.580  22.891  0.00  0.00    -0.495 OA
ATOM     37  C   UNL     1       5.867  -0.214  23.904  0.00  0.00    +0.277 C 
ENDBRANCH  34   7
ENDBRANCH   9  30
ENDBRANCH   1  25
ENDBRANCH  16   1
BRANCH  12  21
ATOM     21  C   UNL     1      -2.613   4.668  24.630  0.00  0.00    +0.166 C 
BRANCH  21   3
ATOM      3  O   UNL     1      -1.671   5.674  24.928  0.00  0.00    -0.394 OA
ATOM     39  H   UNL     1      -1.492   6.157  24.103  0.00  0.00    +0.209 HD
ENDBRANCH  21   3
ENDBRANCH  12  21
BRANCH  13  22
ATOM     22  C   UNL     1      -5.404  -0.611  24.482  0.00  0.00    +0.102 C 
BRANCH  22  24
ATOM      4  O   UNL     1      -3.908  -0.490  22.632  0.00  0.00    -0.276 OA
ATOM      8  N   UNL     1      -3.232  -1.734  24.459  0.00  0.00    -0.301 N 
ATOM     24  C   UNL     1      -4.117  -0.930  23.764  0.00  0.00    +0.216 C 
ATOM     26  C   UNL     1      -3.417  -2.283  25.798  0.00  0.00    +0.108 C 
ATOM     27  C   UNL     1      -1.949  -2.138  23.901  0.00  0.00    +0.108 C 
ATOM     28  C   UNL     1      -2.292  -3.297  25.952  0.00  0.00    +0.020 C 
ATOM     29  C   UNL     1      -1.185  -2.713  25.085  0.00  0.00    +0.020 C 
ENDBRANCH  22  24
ENDBRANCH  13  22
TORSDOF 10
ENDMDL
MODEL 3
REMARK VINA RESULT:       7.9      2.018      4.640
REMARK  Name = 44716947
REMARK  14 active torsions:
REMARK  status: ('A' for Active; 'I' for Inactive)
REMARK    1  A    between atoms: O_1  and  C_16
REMARK    2  A    between atoms: O_1  and  C_25
REMARK    3  A    between atoms: O_2  and  C_17
REMARK    4  A    between atoms: O_3  and  C_21
REMARK    5  A    between atoms: O_6  and  C_33
REMARK    6  A    between atoms: O_6  and  C_36
REMARK    7  A    between atoms: O_7  and  C_34
REMARK    8  A    between atoms: O_7  and  C_37
REMARK    9  A    between atoms: N_9  and  C_30
REMARK   10  A    between atoms: C_10  and  C_20
REMARK   11  A    between atoms: C_12  and  C_21
REMARK   12  A    between atoms: C_12  and  C_23
REMARK   13  A    between atoms: C_13  and  C_22
REMARK   14  A    between atoms: C_22  and  C_24
REMARK                            x       y       z     vdW  Elec       q    Type
REMARK                         _______ _______ _______ _____ _____    ______ ____
ROOT
ATOM     10  C   UNL     1      -3.773   1.629  24.637  0.00  0.00    -0.023 C 
ATOM     11  C   UNL     1      -4.590   0.305  24.378  0.00  0.00    +0.007 C 
ATOM     12  C   UNL     1      -3.799  -1.053  24.509  0.00  0.00    +0.031 C 
ATOM     13  C   UNL     1      -4.675   2.834  24.140  0.00  0.00    +0.032 C 
ATOM     14  C   UNL     1      -2.475   1.580  23.788  0.00  0.00    +0.011 C 
ATOM     15  C   UNL     1      -5.943   0.336  25.125  0.00  0.00    +0.007 C 
ATOM     16  C   UNL     1      -2.482  -0.950  23.681  0.00  0.00    +0.186 C 
ATOM     17  C   UNL     1      -6.078   2.862  24.792  0.00  0.00    +0.119 C 
ATOM     18  C   UNL     1      -1.665   0.303  23.978  0.00  0.00    +0.046 C 
ATOM     19  C   UNL     1      -6.798   1.522  24.674  0.00  0.00    +0.032 C 
ATOM     20  C   UNL     1      -3.369   1.828  26.119  0.00  0.00    +0.012 C 
ATOM     23  C   UNL     1      -4.649  -2.200  23.891  0.00  0.00    +0.017 C 
ENDROOT
BRANCH  17   2
ATOM      2  O   UNL     1      -5.995   3.246  26.161  0.00  0.00    -0.391 OA
ATOM     38  H   UNL     1      -5.484   2.564  26.628  0.00  0.00    +0.210 HD
ENDBRANCH  17   2
BRANCH  16   1
ATOM      1  O   UNL     1      -1.627  -2.070  23.902  0.00  0.00    -0.446 OA
BRANCH   1  25
ATOM      5  O   UNL     1       0.108  -2.133  25.390  0.00  0.00    -0.226 OA
ATOM      9  N   UNL     1       0.289  -1.072  23.311  0.00  0.00    -0.251 N 
ATOM     25  C   UNL     1      -0.348  -1.786  24.308  0.00  0.00    +0.405 C 
ATOM     40  H   UNL     1      -0.258  -0.877  22.477  0.00  0.00    +0.158 HD
BRANCH   9  30
ATOM     30  C   UNL     1       1.613  -0.576  23.308  0.00  0.00    +0.043 A 
ATOM     31  C   UNL     1       1.851   0.771  23.030  0.00  0.00    +0.069 A 
ATOM     32  C   UNL     1       2.680  -1.431  23.582  0.00  0.00    +0.069 A 
ATOM     33  C   UNL     1       3.986  -0.940  23.578  0.00  0.00    +0.125 A 
ATOM     34  C   UNL     1       3.157   1.262  23.028  0.00  0.00    +0.125 A 
ATOM     35  C   UNL     1       4.224   0.406  23.301  0.00  0.00    +0.091 A 
BRANCH  33   6
ATOM      6  O   UNL     1       5.028  -1.774  23.846  0.00  0.00    -0.495 OA
ATOM     36  C   UNL     1       6.262  -1.169  24.231  0.00  0.00    +0.277 C 
ENDBRANCH  33   6
BRANCH  34   7
ATOM      7  O   UNL     1       3.390   2.575  22.757  0.00  0.00    -0.495 OA
ATOM     37  C   UNL     1       4.215   2.868  21.630  0.00  0.00    +0.277 C 
ENDBRANCH  34   7
ENDBRANCH   9  30
ENDBRANCH   1  25
ENDBRANCH  16   1
BRANCH  12  21
ATOM     21  C   UNL     1      -3.516  -1.479  25.964  0.00  0.00    +0.166 C 
BRANCH  21   3
ATOM      3  O   UNL     1      -3.264  -2.867  25.968  0.00  0.00    -0.394 OA
ATOM     39  H   UNL     1      -2.587  -3.040  25.292  0.00  0.00    +0.209 HD
ENDBRANCH  21   3
ENDBRANCH  12  21
BRANCH  13  22
ATOM     22  C   UNL     1      -4.021   4.221  24.252  0.00  0.00    +0.102 C 
BRANCH  22  24
ATOM      4  O   UNL     1      -3.481   4.478  26.557  0.00  0.00    -0.276 OA
ATOM      8  N   UNL     1      -1.745   3.988  25.114  0.00  0.00    -0.301 N 
ATOM     24  C   UNL     1      -3.068   4.241  25.421  0.00  0.00    +0.216 C 
ATOM     26  C   UNL     1      -1.193   3.698  23.794  0.00  0.00    +0.108 C 
ATOM     27  C   UNL     1      -0.701   3.979  26.130  0.00  0.00    +0.108 C 
ATOM     28  C   UNL     1       0.315   3.780  23.986  0.00  0.00    +0.020 C 
ATOM     29  C   UNL     1       0.498   3.351  25.436  0.00  0.00    +0.020 C 
ENDBRANCH  22  24
ENDBRANCH  13  22
TORSDOF 10
ENDMDL
MODEL 4
REMARK VINA RESULT:       7.9      2.022      4.773
REMARK  Name = 44716947
REMARK  14 active torsions:
REMARK  status: ('A' for Active; 'I' for Inactive)
REMARK    1  A    between atoms: O_1  and  C_16
REMARK    2  A    between atoms: O_1  and  C_25
REMARK    3  A    between atoms: O_2  and  C_17
REMARK    4  A    between atoms: O_3  and  C_21
REMARK    5  A    between atoms: O_6  and  C_33
REMARK    6  A    between atoms: O_6  and  C_36
REMARK    7  A    between atoms: O_7  and  C_34
REMARK    8  A    between atoms: O_7  and  C_37
REMARK    9  A    between atoms: N_9  and  C_30
REMARK   10  A    between atoms: C_10  and  C_20
REMARK   11  A    between atoms: C_12  and  C_21
REMARK   12  A    between atoms: C_12  and  C_23
REMARK   13  A    between atoms: C_13  and  C_22
REMARK   14  A    between atoms: C_22  and  C_24
REMARK                            x       y       z     vdW  Elec       q    Type
REMARK                         _______ _______ _______ _____ _____    ______ ____
ROOT
ATOM     10  C   UNL     1      -3.772   1.619  24.641  0.00  0.00    -0.023 C 
ATOM     11  C   UNL     1      -4.586   0.290  24.391  0.00  0.00    +0.007 C 
ATOM     12  C   UNL     1      -3.792  -1.064  24.536  0.00  0.00    +0.031 C 
ATOM     13  C   UNL     1      -4.675   2.818  24.131  0.00  0.00    +0.032 C 
ATOM     14  C   UNL     1      -2.471   1.565  23.797  0.00  0.00    +0.011 C 
ATOM     15  C   UNL     1      -5.941   0.326  25.133  0.00  0.00    +0.007 C 
ATOM     16  C   UNL     1      -2.472  -0.965  23.712  0.00  0.00    +0.186 C 
ATOM     17  C   UNL     1      -6.079   2.848  24.777  0.00  0.00    +0.119 C 
ATOM     18  C   UNL     1      -1.658   0.291  24.001  0.00  0.00    +0.046 C 
ATOM     19  C   UNL     1      -6.796   1.506  24.669  0.00  0.00    +0.032 C 
ATOM     20  C   UNL     1      -3.373   1.831  26.122  0.00  0.00    +0.012 C 
ATOM     23  C   UNL     1      -4.637  -2.218  23.925  0.00  0.00    +0.017 C 
ENDROOT
BRANCH  17   2
ATOM      2  O   UNL     1      -6.002   3.244  26.143  0.00  0.00    -0.391 OA
ATOM     38  H   UNL     1      -5.124   3.634  26.289  0.00  0.00    +0.210 HD
ENDBRANCH  17   2
BRANCH  16   1
ATOM      1  O   UNL     1      -1.616  -2.083  23.945  0.00  0.00    -0.446 OA
BRANCH   1  25
ATOM      5  O   UNL     1       0.129  -2.139  25.421  0.00  0.00    -0.226 OA
ATOM      9  N   UNL     1       0.290  -1.073  23.343  0.00  0.00    -0.251 N 
ATOM     25  C   UNL     1      -0.336  -1.792  24.343  0.00  0.00    +0.405 C 
ATOM     40  H   UNL     1      -0.263  -0.879  22.514  0.00  0.00    +0.158 HD
BRANCH   9  30
ATOM     30  C   UNL     1       1.612  -0.569  23.332  0.00  0.00    +0.043 A 
ATOM     31  C   UNL     1       2.683  -1.417  23.611  0.00  0.00    +0.069 A 
ATOM     32  C   UNL     1       1.843   0.776  23.041  0.00  0.00    +0.069 A 
ATOM     33  C   UNL     1       3.147   1.272  23.029  0.00  0.00    +0.125 A 
ATOM     34  C   UNL     1       3.987  -0.921  23.598  0.00  0.00    +0.125 A 
ATOM     35  C   UNL     1       4.219   0.423  23.309  0.00  0.00    +0.091 A 
BRANCH  33   6
ATOM      6  O   UNL     1       3.374   2.584  22.746  0.00  0.00    -0.495 OA
ATOM     36  C   UNL     1       4.229   2.870  21.639  0.00  0.00    +0.277 C 
ENDBRANCH  33   6
BRANCH  34   7
ATOM      7  O   UNL     1       5.033  -1.748  23.871  0.00  0.00    -0.495 OA
ATOM     37  C   UNL     1       6.259  -1.135  24.266  0.00  0.00    +0.277 C 
ENDBRANCH  34   7
ENDBRANCH   9  30
ENDBRANCH   1  25
ENDBRANCH  16   1
BRANCH  12  21
ATOM     21  C   UNL     1      -3.513  -1.478  25.996  0.00  0.00    +0.166 C 
BRANCH  21   3
ATOM      3  O   UNL     1      -3.256  -2.865  26.011  0.00  0.00    -0.394 OA
ATOM     39  H   UNL     1      -2.523  -3.031  25.394  0.00  0.00    +0.209 HD
ENDBRANCH  21   3
ENDBRANCH  12  21
BRANCH  13  22
ATOM     22  C   UNL     1      -4.023   4.206  24.233  0.00  0.00    +0.102 C 
BRANCH  22  24
ATOM      4  O   UNL     1      -3.490   4.484  26.537  0.00  0.00    -0.276 OA
ATOM      8  N   UNL     1      -1.749   3.985  25.103  0.00  0.00    -0.301 N 
ATOM     24  C   UNL     1      -3.074   4.238  25.404  0.00  0.00    +0.216 C 
ATOM     26  C   UNL     1      -1.194   3.685  23.787  0.00  0.00    +0.108 C 
ATOM     27  C   UNL     1      -0.707   3.986  26.121  0.00  0.00    +0.108 C 
ATOM     28  C   UNL     1       0.314   3.772  23.981  0.00  0.00    +0.020 C 
ATOM     29  C   UNL     1       0.495   3.355  25.435  0.00  0.00    +0.020 C 
ENDBRANCH  22  24
ENDBRANCH  13  22
TORSDOF 10
ENDMDL
