MODEL 1
REMARK VINA RESULT:       1.7      0.000      0.000
REMARK  Name = 11882059
REMARK  10 active torsions:
REMARK  status: ('A' for Active; 'I' for Inactive)
REMARK    1  A    between atoms: S_1  and  C_21
REMARK    2  A    between atoms: S_1  and  C_28
REMARK    3  A    between atoms: N_10  and  C_14
REMARK    4  A    between atoms: N_11  and  C_20
REMARK    5  A    between atoms: N_12  and  C_26
REMARK    6  A    between atoms: C_15  and  C_18
REMARK    7  A    between atoms: C_19  and  C_21
REMARK    8  A    between atoms: C_20  and  C_23
REMARK    9  A    between atoms: C_20  and  C_24
REMARK   10  A    between atoms: C_23  and  C_25
REMARK                            x       y       z     vdW  Elec       q    Type
REMARK                         _______ _______ _______ _____ _____    ______ ____
ROOT
ATOM      6  O   UNL     1      17.269 -10.021  28.702  0.00  0.00    -0.275 OA
ATOM      9  N   UNL     1      15.796  -8.454  27.847  0.00  0.00    -0.287 N 
ATOM     14  C   UNL     1      15.562  -6.110  28.125  0.00  0.00    +0.105 C 
ATOM     15  C   UNL     1      16.166  -7.368  28.749  0.00  0.00    +0.182 C 
ATOM     16  C   UNL     1      14.355  -6.645  27.347  0.00  0.00    +0.043 C 
ATOM     17  C   UNL     1      14.811  -8.014  26.863  0.00  0.00    +0.110 C 
ATOM     19  C   UNL     1      16.441  -9.681  27.856  0.00  0.00    +0.226 C 
ENDROOT
BRANCH  14  10
ATOM      7  O   UNL     1      14.950  -4.451  25.872  0.00  0.00    -0.252 OA
ATOM     10  N   UNL     1      16.508  -5.463  27.247  0.00  0.00    -0.294 N 
ATOM     12  N   UNL     1      17.251  -4.175  25.499  0.00  0.00    -0.267 N 
ATOM     22  C   UNL     1      16.124  -4.666  26.165  0.00  0.00    +0.304 C 
ATOM     36  H   UNL     1      17.497  -5.537  27.463  0.00  0.00    +0.151 HD
ATOM     38  H   UNL     1      18.158  -4.449  25.869  0.00  0.00    +0.156 HD
BRANCH  12  26
ATOM      3  F   UNL     1      17.343  -5.223  22.919  0.00  0.00    -0.203 F 
ATOM      4  F   UNL     1      17.404  -0.880  21.043  0.00  0.00    -0.205 F 
ATOM     26  C   UNL     1      17.291  -3.336  24.361  0.00  0.00    +0.070 A 
ATOM     29  C   UNL     1      17.336  -3.893  23.082  0.00  0.00    +0.147 A 
ATOM     30  C   UNL     1      17.284  -1.951  24.519  0.00  0.00    +0.029 A 
ATOM     33  C   UNL     1      17.374  -3.062  21.962  0.00  0.00    +0.078 A 
ATOM     34  C   UNL     1      17.323  -1.120  23.398  0.00  0.00    +0.040 A 
ATOM     35  C   UNL     1      17.368  -1.677  22.120  0.00  0.00    +0.126 A 
ENDBRANCH  12  26
ENDBRANCH  14  10
BRANCH  15  18
ATOM      5  O   UNL     1      16.118  -8.345  30.928  0.00  0.00    -0.274 OA
ATOM     11  N   UNL     1      14.257  -7.162  30.182  0.00  0.00    -0.302 N 
ATOM     18  C   UNL     1      15.536  -7.682  30.073  0.00  0.00    +0.236 C 
ATOM     37  H   UNL     1      13.847  -6.698  29.377  0.00  0.00    +0.150 HD
BRANCH  11  20
ATOM     20  C   UNL     1      13.427  -7.343  31.350  0.00  0.00    +0.163 C 
BRANCH  20  24
ATOM      8  O   UNL     1      15.108  -6.419  32.842  0.00  0.00    -0.274 OA
ATOM     13  N   UNL     1      13.009  -5.486  32.840  0.00  0.00    -0.328 N 
ATOM     24  C   UNL     1      13.954  -6.400  32.423  0.00  0.00    +0.231 C 
ATOM     39  H   UNL     1      13.236  -4.788  33.541  0.00  0.00    +0.145 HD
ATOM     40  H   UNL     1      12.059  -5.479  32.483  0.00  0.00    +0.145 HD
ENDBRANCH  20  24
BRANCH  20  23
ATOM     23  C   UNL     1      13.443  -8.791  31.857  0.00  0.00    +0.074 C 
BRANCH  23  25
ATOM      2  S   UNL     1      10.719  -8.256  32.088  0.00  0.00    -0.102 S 
ATOM     25  C   UNL     1      12.053  -9.329  32.101  0.00  0.00    -0.008 A 
ATOM     27  C   UNL     1      11.669 -10.629  32.349  0.00  0.00    +0.011 A 
ATOM     31  C   UNL     1      10.260 -10.745  32.531  0.00  0.00    +0.008 A 
ATOM     32  C   UNL     1       9.622  -9.530  32.415  0.00  0.00    +0.045 A 
ENDBRANCH  23  25
ENDBRANCH  20  23
ENDBRANCH  11  20
ENDBRANCH  15  18
BRANCH  19  21
ATOM     21  C   UNL     1      16.060 -10.625  26.742  0.00  0.00    +0.164 C 
BRANCH  21   1
ATOM      1  S   UNL     1      16.837 -10.031  25.234  0.00  0.00    -0.155 S 
ATOM     28  C   UNL     1      15.692 -10.746  24.029  0.00  0.00    +0.085 C 
ENDBRANCH  21   1
ENDBRANCH  19  21
TORSDOF 9
ENDMDL
MODEL 2
REMARK VINA RESULT:       2.0     17.668     19.363
REMARK  Name = 11882059
REMARK  10 active torsions:
REMARK  status: ('A' for Active; 'I' for Inactive)
REMARK    1  A    between atoms: S_1  and  C_21
REMARK    2  A    between atoms: S_1  and  C_28
REMARK    3  A    between atoms: N_10  and  C_14
REMARK    4  A    between atoms: N_11  and  C_20
REMARK    5  A    between atoms: N_12  and  C_26
REMARK    6  A    between atoms: C_15  and  C_18
REMARK    7  A    between atoms: C_19  and  C_21
REMARK    8  A    between atoms: C_20  and  C_23
REMARK    9  A    between atoms: C_20  and  C_24
REMARK   10  A    between atoms: C_23  and  C_25
REMARK                            x       y       z     vdW  Elec       q    Type
REMARK                         _______ _______ _______ _____ _____    ______ ____
ROOT
ATOM      6  O   UNL     1      -3.258  -1.317  26.161  0.00  0.00    -0.275 OA
ATOM      9  N   UNL     1      -3.048  -0.111  24.197  0.00  0.00    -0.287 N 
ATOM     14  C   UNL     1      -1.490   1.507  23.433  0.00  0.00    +0.105 C 
ATOM     15  C   UNL     1      -2.045   0.830  24.687  0.00  0.00    +0.182 C 
ATOM     16  C   UNL     1      -2.654   1.427  22.442  0.00  0.00    +0.043 C 
ATOM     17  C   UNL     1      -3.333   0.108  22.782  0.00  0.00    +0.110 C 
ATOM     19  C   UNL     1      -3.520  -1.162  24.967  0.00  0.00    +0.226 C 
ENDROOT
BRANCH  14  10
ATOM      7  O   UNL     1       1.144   1.547  24.558  0.00  0.00    -0.252 OA
ATOM     10  N   UNL     1      -0.329   0.805  22.938  0.00  0.00    -0.294 N 
ATOM     12  N   UNL     1       1.853   0.100  22.851  0.00  0.00    -0.267 N 
ATOM     22  C   UNL     1       0.927   0.880  23.549  0.00  0.00    +0.304 C 
ATOM     36  H   UNL     1      -0.442   0.179  22.147  0.00  0.00    +0.151 HD
ATOM     38  H   UNL     1       1.512  -0.393  22.030  0.00  0.00    +0.156 HD
BRANCH  12  26
ATOM      3  F   UNL     1       3.716   2.143  22.501  0.00  0.00    -0.203 F 
ATOM      4  F   UNL     1       7.223  -0.654  24.004  0.00  0.00    -0.205 F 
ATOM     26  C   UNL     1       3.224  -0.090  23.144  0.00  0.00    +0.070 A 
ATOM     29  C   UNL     1       4.132   0.953  22.958  0.00  0.00    +0.147 A 
ATOM     30  C   UNL     1       3.668  -1.324  23.619  0.00  0.00    +0.029 A 
ATOM     33  C   UNL     1       5.482   0.762  23.249  0.00  0.00    +0.078 A 
ATOM     34  C   UNL     1       5.019  -1.515  23.909  0.00  0.00    +0.040 A 
ATOM     35  C   UNL     1       5.925  -0.472  23.724  0.00  0.00    +0.126 A 
ENDBRANCH  12  26
ENDBRANCH  14  10
BRANCH  15  18
ATOM      5  O   UNL     1      -2.188   2.458  26.429  0.00  0.00    -0.274 OA
ATOM     11  N   UNL     1      -4.126   1.853  25.289  0.00  0.00    -0.302 N 
ATOM     18  C   UNL     1      -2.769   1.807  25.564  0.00  0.00    +0.236 C 
ATOM     37  H   UNL     1      -4.509   1.208  24.604  0.00  0.00    +0.150 HD
BRANCH  11  20
ATOM     20  C   UNL     1      -5.050   2.698  26.009  0.00  0.00    +0.163 C 
BRANCH  20  24
ATOM      8  O   UNL     1      -6.956   1.783  24.811  0.00  0.00    -0.274 OA
ATOM     13  N   UNL     1      -7.000   1.784  27.107  0.00  0.00    -0.328 N 
ATOM     24  C   UNL     1      -6.428   2.062  25.884  0.00  0.00    +0.231 C 
ATOM     39  H   UNL     1      -7.912   1.343  27.167  0.00  0.00    +0.145 HD
ATOM     40  H   UNL     1      -6.550   2.017  27.987  0.00  0.00    +0.145 HD
ENDBRANCH  20  24
BRANCH  20  23
ATOM     23  C   UNL     1      -5.072   4.132  25.465  0.00  0.00    +0.074 C 
BRANCH  23  25
ATOM      2  S   UNL     1      -3.238   4.690  23.444  0.00  0.00    -0.102 S 
ATOM     25  C   UNL     1      -3.694   4.626  25.093  0.00  0.00    -0.008 A 
ATOM     27  C   UNL     1      -2.686   5.060  25.926  0.00  0.00    +0.011 A 
ATOM     31  C   UNL     1      -1.523   5.450  25.200  0.00  0.00    +0.008 A 
ATOM     32  C   UNL     1      -1.688   5.299  23.841  0.00  0.00    +0.045 A 
ENDBRANCH  23  25
ENDBRANCH  20  23
ENDBRANCH  11  20
ENDBRANCH  15  18
BRANCH  19  21
ATOM     21  C   UNL     1      -4.414  -2.143  24.250  0.00  0.00    +0.164 C 
BRANCH  21   1
ATOM      1  S   UNL     1      -3.439  -3.610  23.893  0.00  0.00    -0.155 S 
ATOM     28  C   UNL     1      -1.788  -2.925  24.180  0.00  0.00    +0.085 C 
ENDBRANCH  21   1
ENDBRANCH  19  21
TORSDOF 9
ENDMDL
MODEL 3
REMARK VINA RESULT:       3.2     17.103     18.938
REMARK  Name = 11882059
REMARK  10 active torsions:
REMARK  status: ('A' for Active; 'I' for Inactive)
REMARK    1  A    between atoms: S_1  and  C_21
REMARK    2  A    between atoms: S_1  and  C_28
REMARK    3  A    between atoms: N_10  and  C_14
REMARK    4  A    between atoms: N_11  and  C_20
REMARK    5  A    between atoms: N_12  and  C_26
REMARK    6  A    between atoms: C_15  and  C_18
REMARK    7  A    between atoms: C_19  and  C_21
REMARK    8  A    between atoms: C_20  and  C_23
REMARK    9  A    between atoms: C_20  and  C_24
REMARK   10  A    between atoms: C_23  and  C_25
REMARK                            x       y       z     vdW  Elec       q    Type
REMARK                         _______ _______ _______ _____ _____    ______ ____
ROOT
ATOM      6  O   UNL     1      -1.598   4.476  25.331  0.00  0.00    -0.275 OA
ATOM      9  N   UNL     1      -1.476   2.192  24.972  0.00  0.00    -0.287 N 
ATOM     14  C   UNL     1      -1.376   0.850  23.018  0.00  0.00    +0.105 C 
ATOM     15  C   UNL     1      -1.761   2.234  23.541  0.00  0.00    +0.182 C 
ATOM     16  C   UNL     1      -1.569  -0.056  24.238  0.00  0.00    +0.043 C 
ATOM     17  C   UNL     1      -1.188   0.832  25.415  0.00  0.00    +0.110 C 
ATOM     19  C   UNL     1      -1.347   3.340  25.738  0.00  0.00    +0.226 C 
ENDROOT
BRANCH  14  10
ATOM      7  O   UNL     1       0.896  -0.135  24.457  0.00  0.00    -0.252 OA
ATOM     10  N   UNL     1      -0.006   0.833  22.562  0.00  0.00    -0.294 N 
ATOM     12  N   UNL     1       2.255   0.446  22.634  0.00  0.00    -0.267 N 
ATOM     22  C   UNL     1       1.049   0.332  23.331  0.00  0.00    +0.304 C 
ATOM     36  H   UNL     1       0.193   1.140  21.615  0.00  0.00    +0.151 HD
ATOM     38  H   UNL     1       2.211   0.859  21.706  0.00  0.00    +0.156 HD
BRANCH  12  26
ATOM      3  F   UNL     1       4.407   2.216  22.574  0.00  0.00    -0.203 F 
ATOM      4  F   UNL     1       7.309  -1.090  24.316  0.00  0.00    -0.205 F 
ATOM     26  C   UNL     1       3.546   0.056  23.062  0.00  0.00    +0.070 A 
ATOM     29  C   UNL     1       4.602   0.966  23.020  0.00  0.00    +0.147 A 
ATOM     30  C   UNL     1       3.760  -1.241  23.527  0.00  0.00    +0.029 A 
ATOM     33  C   UNL     1       5.873   0.578  23.443  0.00  0.00    +0.078 A 
ATOM     34  C   UNL     1       5.032  -1.629  23.949  0.00  0.00    +0.040 A 
ATOM     35  C   UNL     1       6.088  -0.719  23.908  0.00  0.00    +0.126 A 
ENDBRANCH  12  26
ENDBRANCH  14  10
BRANCH  15  18
ATOM      5  O   UNL     1      -3.697   3.169  22.499  0.00  0.00    -0.274 OA
ATOM     11  N   UNL     1      -3.962   1.874  24.416  0.00  0.00    -0.302 N 
ATOM     18  C   UNL     1      -3.234   2.482  23.407  0.00  0.00    +0.236 C 
ATOM     37  H   UNL     1      -3.463   1.396  25.160  0.00  0.00    +0.150 HD
BRANCH  11  20
ATOM     20  C   UNL     1      -5.399   1.978  24.527  0.00  0.00    +0.163 C 
BRANCH  20  24
ATOM      8  O   UNL     1      -5.482   4.175  25.562  0.00  0.00    -0.274 OA
ATOM     13  N   UNL     1      -6.259   2.371  26.752  0.00  0.00    -0.328 N 
ATOM     24  C   UNL     1      -5.689   2.968  25.647  0.00  0.00    +0.231 C 
ATOM     39  H   UNL     1      -6.518   2.921  27.564  0.00  0.00    +0.145 HD
ATOM     40  H   UNL     1      -6.428   1.371  26.807  0.00  0.00    +0.145 HD
ENDBRANCH  20  24
BRANCH  20  23
ATOM     23  C   UNL     1      -6.058   0.626  24.825  0.00  0.00    +0.074 C 
BRANCH  23  25
ATOM      2  S   UNL     1      -4.126  -0.896  26.134  0.00  0.00    -0.102 S 
ATOM     25  C   UNL     1      -5.076  -0.519  24.760  0.00  0.00    -0.008 A 
ATOM     27  C   UNL     1      -4.808  -1.359  23.701  0.00  0.00    +0.011 A 
ATOM     31  C   UNL     1      -3.810  -2.325  24.023  0.00  0.00    +0.008 A 
ATOM     32  C   UNL     1      -3.354  -2.185  25.315  0.00  0.00    +0.045 A 
ENDBRANCH  23  25
ENDBRANCH  20  23
ENDBRANCH  11  20
ENDBRANCH  15  18
BRANCH  19  21
ATOM     21  C   UNL     1      -0.874   3.127  27.154  0.00  0.00    +0.164 C 
BRANCH  21   1
ATOM      1  S   UNL     1       0.862   2.663  27.086  0.00  0.00    -0.155 S 
ATOM     28  C   UNL     1       1.167   2.461  28.858  0.00  0.00    +0.085 C 
ENDBRANCH  21   1
ENDBRANCH  19  21
TORSDOF 9
ENDMDL
MODEL 4
REMARK VINA RESULT:       4.3     17.516     19.143
REMARK  Name = 11882059
REMARK  10 active torsions:
REMARK  status: ('A' for Active; 'I' for Inactive)
REMARK    1  A    between atoms: S_1  and  C_21
REMARK    2  A    between atoms: S_1  and  C_28
REMARK    3  A    between atoms: N_10  and  C_14
REMARK    4  A    between atoms: N_11  and  C_20
REMARK    5  A    between atoms: N_12  and  C_26
REMARK    6  A    between atoms: C_15  and  C_18
REMARK    7  A    between atoms: C_19  and  C_21
REMARK    8  A    between atoms: C_20  and  C_23
REMARK    9  A    between atoms: C_20  and  C_24
REMARK   10  A    between atoms: C_23  and  C_25
REMARK                            x       y       z     vdW  Elec       q    Type
REMARK                         _______ _______ _______ _____ _____    ______ ____
ROOT
ATOM      6  O   UNL     1      -3.012  -0.403  26.307  0.00  0.00    -0.275 OA
ATOM      9  N   UNL     1      -2.749   0.402  24.153  0.00  0.00    -0.287 N 
ATOM     14  C   UNL     1      -1.097   1.738  23.099  0.00  0.00    +0.105 C 
ATOM     15  C   UNL     1      -1.678   1.345  24.458  0.00  0.00    +0.182 C 
ATOM     16  C   UNL     1      -2.279   1.558  22.142  0.00  0.00    +0.043 C 
ATOM     17  C   UNL     1      -3.041   0.374  22.723  0.00  0.00    +0.110 C 
ATOM     19  C   UNL     1      -3.281  -0.454  25.105  0.00  0.00    +0.226 C 
ENDROOT
BRANCH  14  10
ATOM      7  O   UNL     1       1.528   1.753  24.244  0.00  0.00    -0.252 OA
ATOM     10  N   UNL     1       0.006   0.878  22.741  0.00  0.00    -0.294 N 
ATOM     12  N   UNL     1       2.126   0.000  22.801  0.00  0.00    -0.267 N 
ATOM     22  C   UNL     1       1.262   0.951  23.352  0.00  0.00    +0.304 C 
ATOM     36  H   UNL     1      -0.154   0.144  22.058  0.00  0.00    +0.151 HD
ATOM     38  H   UNL     1       1.749  -0.590  22.064  0.00  0.00    +0.156 HD
BRANCH  12  26
ATOM      3  F   UNL     1       4.093   1.947  22.469  0.00  0.00    -0.203 F 
ATOM      4  F   UNL     1       7.415  -0.976  24.143  0.00  0.00    -0.205 F 
ATOM     26  C   UNL     1       3.477  -0.246  23.142  0.00  0.00    +0.070 A 
ATOM     29  C   UNL     1       4.437   0.749  22.964  0.00  0.00    +0.147 A 
ATOM     30  C   UNL     1       3.846  -1.489  23.657  0.00  0.00    +0.029 A 
ATOM     33  C   UNL     1       5.768   0.502  23.302  0.00  0.00    +0.078 A 
ATOM     34  C   UNL     1       5.177  -1.736  23.994  0.00  0.00    +0.040 A 
ATOM     35  C   UNL     1       6.137  -0.740  23.817  0.00  0.00    +0.126 A 
ENDBRANCH  12  26
ENDBRANCH  14  10
BRANCH  15  18
ATOM      5  O   UNL     1      -2.507   2.536  26.354  0.00  0.00    -0.274 OA
ATOM     11  N   UNL     1      -2.681   3.510  24.246  0.00  0.00    -0.302 N 
ATOM     18  C   UNL     1      -2.321   2.515  25.139  0.00  0.00    +0.236 C 
ATOM     37  H   UNL     1      -2.550   3.347  23.252  0.00  0.00    +0.150 HD
BRANCH  11  20
ATOM     20  C   UNL     1      -3.338   4.732  24.647  0.00  0.00    +0.163 C 
BRANCH  20  24
ATOM      8  O   UNL     1      -2.471   6.837  25.499  0.00  0.00    -0.274 OA
ATOM     13  N   UNL     1      -0.988   5.145  25.036  0.00  0.00    -0.328 N 
ATOM     24  C   UNL     1      -2.250   5.700  25.091  0.00  0.00    +0.231 C 
ATOM     39  H   UNL     1      -0.173   5.678  25.320  0.00  0.00    +0.145 HD
ATOM     40  H   UNL     1      -0.820   4.202  24.700  0.00  0.00    +0.145 HD
ENDBRANCH  20  24
BRANCH  20  23
ATOM     23  C   UNL     1      -4.347   4.506  25.781  0.00  0.00    +0.074 C 
BRANCH  23  25
ATOM      2  S   UNL     1      -5.887   2.473  26.900  0.00  0.00    -0.102 S 
ATOM     25  C   UNL     1      -5.195   3.277  25.557  0.00  0.00    -0.008 A 
ATOM     27  C   UNL     1      -5.519   2.665  24.365  0.00  0.00    +0.011 A 
ATOM     31  C   UNL     1      -6.346   1.521  24.559  0.00  0.00    +0.008 A 
ATOM     32  C   UNL     1      -6.622   1.302  25.891  0.00  0.00    +0.045 A 
ENDBRANCH  23  25
ENDBRANCH  20  23
ENDBRANCH  11  20
ENDBRANCH  15  18
BRANCH  19  21
ATOM     21  C   UNL     1      -4.250  -1.486  24.585  0.00  0.00    +0.164 C 
BRANCH  21   1
ATOM      1  S   UNL     1      -3.459  -3.095  24.721  0.00  0.00    -0.155 S 
ATOM     28  C   UNL     1      -1.761  -2.606  24.328  0.00  0.00    +0.085 C 
ENDBRANCH  21   1
ENDBRANCH  19  21
TORSDOF 9
ENDMDL
MODEL 5
REMARK VINA RESULT:       4.6     17.158     18.992
REMARK  Name = 11882059
REMARK  10 active torsions:
REMARK  status: ('A' for Active; 'I' for Inactive)
REMARK    1  A    between atoms: S_1  and  C_21
REMARK    2  A    between atoms: S_1  and  C_28
REMARK    3  A    between atoms: N_10  and  C_14
REMARK    4  A    between atoms: N_11  and  C_20
REMARK    5  A    between atoms: N_12  and  C_26
REMARK    6  A    between atoms: C_15  and  C_18
REMARK    7  A    between atoms: C_19  and  C_21
REMARK    8  A    between atoms: C_20  and  C_23
REMARK    9  A    between atoms: C_20  and  C_24
REMARK   10  A    between atoms: C_23  and  C_25
REMARK                            x       y       z     vdW  Elec       q    Type
REMARK                         _______ _______ _______ _____ _____    ______ ____
ROOT
ATOM      6  O   UNL     1      -2.769   4.922  23.550  0.00  0.00    -0.275 OA
ATOM      9  N   UNL     1      -1.884   3.145  24.739  0.00  0.00    -0.287 N 
ATOM     14  C   UNL     1      -0.691   1.193  24.111  0.00  0.00    +0.105 C 
ATOM     15  C   UNL     1      -1.616   2.291  23.586  0.00  0.00    +0.182 C 
ATOM     16  C   UNL     1      -1.060   1.098  25.594  0.00  0.00    +0.043 C 
ATOM     17  C   UNL     1      -1.411   2.530  25.975  0.00  0.00    +0.110 C 
ATOM     19  C   UNL     1      -2.378   4.434  24.611  0.00  0.00    +0.226 C 
ENDROOT
BRANCH  14  10
ATOM      7  O   UNL     1       1.488  -0.579  23.551  0.00  0.00    -0.252 OA
ATOM     10  N   UNL     1       0.695   1.558  23.936  0.00  0.00    -0.294 N 
ATOM     12  N   UNL     1       2.938   1.267  23.547  0.00  0.00    -0.267 N 
ATOM     22  C   UNL     1       1.701   0.626  23.664  0.00  0.00    +0.304 C 
ATOM     36  H   UNL     1       0.942   2.543  23.948  0.00  0.00    +0.151 HD
ATOM     38  H   UNL     1       2.945   2.276  23.671  0.00  0.00    +0.156 HD
BRANCH  12  26
ATOM      3  F   UNL     1       3.613   0.367  20.997  0.00  0.00    -0.203 F 
ATOM      4  F   UNL     1       7.877  -1.023  22.503  0.00  0.00    -0.205 F 
ATOM     26  C   UNL     1       4.198   0.682  23.278  0.00  0.00    +0.070 A 
ATOM     29  C   UNL     1       4.505   0.241  21.991  0.00  0.00    +0.147 A 
ATOM     30  C   UNL     1       5.133   0.546  24.304  0.00  0.00    +0.029 A 
ATOM     33  C   UNL     1       5.748  -0.335  21.730  0.00  0.00    +0.078 A 
ATOM     34  C   UNL     1       6.376  -0.031  24.042  0.00  0.00    +0.040 A 
ATOM     35  C   UNL     1       6.683  -0.471  22.755  0.00  0.00    +0.126 A 
ENDBRANCH  12  26
ENDBRANCH  14  10
BRANCH  15  18
ATOM      5  O   UNL     1      -3.334   1.829  21.992  0.00  0.00    -0.274 OA
ATOM     11  N   UNL     1      -3.629   1.145  24.197  0.00  0.00    -0.302 N 
ATOM     18  C   UNL     1      -2.939   1.733  23.151  0.00  0.00    +0.236 C 
ATOM     37  H   UNL     1      -3.238   1.197  25.134  0.00  0.00    +0.150 HD
BRANCH  11  20
ATOM     20  C   UNL     1      -4.939   0.554  24.047  0.00  0.00    +0.163 C 
BRANCH  20  24
ATOM      8  O   UNL     1      -5.552   1.216  26.303  0.00  0.00    -0.274 OA
ATOM     13  N   UNL     1      -6.978   1.738  24.580  0.00  0.00    -0.328 N 
ATOM     24  C   UNL     1      -5.835   1.176  25.109  0.00  0.00    +0.231 C 
ATOM     39  H   UNL     1      -7.654   2.202  25.178  0.00  0.00    +0.145 HD
ATOM     40  H   UNL     1      -7.198   1.701  23.589  0.00  0.00    +0.145 HD
ENDBRANCH  20  24
BRANCH  20  23
ATOM     23  C   UNL     1      -4.909  -0.972  24.201  0.00  0.00    +0.074 C 
BRANCH  23  25
ATOM      2  S   UNL     1      -3.025  -1.446  26.197  0.00  0.00    -0.102 S 
ATOM     25  C   UNL     1      -3.536  -1.486  24.564  0.00  0.00    -0.008 A 
ATOM     27  C   UNL     1      -2.571  -2.013  23.733  0.00  0.00    +0.011 A 
ATOM     31  C   UNL     1      -1.397  -2.390  24.448  0.00  0.00    +0.008 A 
ATOM     32  C   UNL     1      -1.510  -2.135  25.797  0.00  0.00    +0.045 A 
ENDBRANCH  23  25
ENDBRANCH  20  23
ENDBRANCH  11  20
ENDBRANCH  15  18
BRANCH  19  21
ATOM     21  C   UNL     1      -2.426   5.241  25.884  0.00  0.00    +0.164 C 
BRANCH  21   1
ATOM      1  S   UNL     1      -3.694   4.523  26.938  0.00  0.00    -0.155 S 
ATOM     28  C   UNL     1      -5.029   4.397  25.723  0.00  0.00    +0.085 C 
ENDBRANCH  21   1
ENDBRANCH  19  21
TORSDOF 9
ENDMDL
MODEL 6
REMARK VINA RESULT:       5.2     16.136     17.722
REMARK  Name = 11882059
REMARK  10 active torsions:
REMARK  status: ('A' for Active; 'I' for Inactive)
REMARK    1  A    between atoms: S_1  and  C_21
REMARK    2  A    between atoms: S_1  and  C_28
REMARK    3  A    between atoms: N_10  and  C_14
REMARK    4  A    between atoms: N_11  and  C_20
REMARK    5  A    between atoms: N_12  and  C_26
REMARK    6  A    between atoms: C_15  and  C_18
REMARK    7  A    between atoms: C_19  and  C_21
REMARK    8  A    between atoms: C_20  and  C_23
REMARK    9  A    between atoms: C_20  and  C_24
REMARK   10  A    between atoms: C_23  and  C_25
REMARK                            x       y       z     vdW  Elec       q    Type
REMARK                         _______ _______ _______ _____ _____    ______ ____
ROOT
ATOM      6  O   UNL     1      -1.578  -0.202  26.320  0.00  0.00    -0.275 OA
ATOM      9  N   UNL     1      -0.707  -0.673  24.228  0.00  0.00    -0.287 N 
ATOM     14  C   UNL     1       1.033   0.284  22.930  0.00  0.00    +0.105 C 
ATOM     15  C   UNL     1       0.082   0.548  24.097  0.00  0.00    +0.182 C 
ATOM     16  C   UNL     1       0.269  -0.730  22.073  0.00  0.00    +0.043 C 
ATOM     17  C   UNL     1      -0.497  -1.564  23.090  0.00  0.00    +0.110 C 
ATOM     19  C   UNL     1      -1.421  -0.978  25.376  0.00  0.00    +0.226 C 
ENDROOT
BRANCH  14  10
ATOM      7  O   UNL     1       3.658   1.107  22.137  0.00  0.00    -0.252 OA
ATOM     10  N   UNL     1       2.286  -0.261  23.397  0.00  0.00    -0.294 N 
ATOM     12  N   UNL     1       4.560  -0.512  23.579  0.00  0.00    -0.267 N 
ATOM     22  C   UNL     1       3.530   0.201  22.957  0.00  0.00    +0.304 C 
ATOM     36  H   UNL     1       2.265  -0.967  24.126  0.00  0.00    +0.151 HD
ATOM     38  H   UNL     1       4.284  -1.237  24.236  0.00  0.00    +0.156 HD
BRANCH  12  26
ATOM      3  F   UNL     1       5.941   1.602  24.760  0.00  0.00    -0.203 F 
ATOM      4  F   UNL     1      10.026   0.108  22.897  0.00  0.00    -0.205 F 
ATOM     26  C   UNL     1       5.954  -0.351  23.406  0.00  0.00    +0.070 A 
ATOM     29  C   UNL     1       6.617   0.718  24.011  0.00  0.00    +0.147 A 
ATOM     30  C   UNL     1       6.667  -1.264  22.629  0.00  0.00    +0.029 A 
ATOM     33  C   UNL     1       7.992   0.872  23.839  0.00  0.00    +0.078 A 
ATOM     34  C   UNL     1       8.043  -1.108  22.456  0.00  0.00    +0.040 A 
ATOM     35  C   UNL     1       8.705  -0.041  23.061  0.00  0.00    +0.126 A 
ENDBRANCH  12  26
ENDBRANCH  14  10
BRANCH  15  18
ATOM      5  O   UNL     1      -1.425   1.740  22.678  0.00  0.00    -0.274 OA
ATOM     11  N   UNL     1      -1.061   2.518  24.842  0.00  0.00    -0.302 N 
ATOM     18  C   UNL     1      -0.887   1.648  23.779  0.00  0.00    +0.236 C 
ATOM     37  H   UNL     1      -0.500   2.388  25.678  0.00  0.00    +0.150 HD
BRANCH  11  20
ATOM     20  C   UNL     1      -1.925   3.674  24.783  0.00  0.00    +0.163 C 
BRANCH  20  24
ATOM      8  O   UNL     1       0.188   4.867  24.911  0.00  0.00    -0.274 OA
ATOM     13  N   UNL     1      -1.763   6.070  25.068  0.00  0.00    -0.328 N 
ATOM     24  C   UNL     1      -1.039   4.902  24.940  0.00  0.00    +0.231 C 
ATOM     39  H   UNL     1      -1.293   6.965  25.164  0.00  0.00    +0.145 HD
ATOM     40  H   UNL     1      -2.777   6.085  25.087  0.00  0.00    +0.145 HD
ENDBRANCH  20  24
BRANCH  20  23
ATOM     23  C   UNL     1      -3.003   3.651  25.874  0.00  0.00    +0.074 C 
BRANCH  23  25
ATOM      2  S   UNL     1      -5.774   3.403  25.729  0.00  0.00    -0.102 S 
ATOM     25  C   UNL     1      -4.190   2.799  25.491  0.00  0.00    -0.008 A 
ATOM     27  C   UNL     1      -4.195   1.534  24.946  0.00  0.00    +0.011 A 
ATOM     31  C   UNL     1      -5.518   1.054  24.721  0.00  0.00    +0.008 A 
ATOM     32  C   UNL     1      -6.473   1.971  25.103  0.00  0.00    +0.045 A 
ENDBRANCH  23  25
ENDBRANCH  20  23
ENDBRANCH  11  20
ENDBRANCH  15  18
BRANCH  19  21
ATOM     21  C   UNL     1      -2.031  -2.357  25.416  0.00  0.00    +0.164 C 
BRANCH  21   1
ATOM      1  S   UNL     1      -3.818  -2.165  25.382  0.00  0.00    -0.155 S 
ATOM     28  C   UNL     1      -4.094  -2.426  23.612  0.00  0.00    +0.085 C 
ENDBRANCH  21   1
ENDBRANCH  19  21
TORSDOF 9
ENDMDL
