MODEL 1
REMARK VINA RESULT:      -3.6      0.000      0.000
REMARK  Name = 11879672
REMARK  11 active torsions:
REMARK  status: ('A' for Active; 'I' for Inactive)
REMARK    1  A    between atoms: O_3  and  C_19
REMARK    2  A    between atoms: O_3  and  C_23
REMARK    3  A    between atoms: O_5  and  C_24
REMARK    4  A    between atoms: N_7  and  C_15
REMARK    5  A    between atoms: N_8  and  C_16
REMARK    6  A    between atoms: N_12  and  C_27
REMARK    7  A    between atoms: N_12  and  C_30
REMARK    8  A    between atoms: N_12  and  C_31
REMARK    9  A    between atoms: C_20  and  C_21
REMARK   10  A    between atoms: C_21  and  C_22
REMARK   11  A    between atoms: C_22  and  C_24
REMARK                            x       y       z     vdW  Elec       q    Type
REMARK                         _______ _______ _______ _____ _____    ______ ____
ROOT
ATOM      1  O   UNL     1      -1.678   3.482  26.477  0.00  0.00    -0.370 OA
ATOM      2  O   UNL     1      -1.796   3.458  23.334  0.00  0.00    -0.370 OA
ATOM     13  C   UNL     1      -2.480   2.722  24.365  0.00  0.00    +0.176 C 
ATOM     14  C   UNL     1      -1.479   2.472  25.476  0.00  0.00    +0.171 C 
ATOM     15  C   UNL     1      -3.549   3.592  24.997  0.00  0.00    +0.171 C 
ATOM     16  C   UNL     1      -0.131   2.649  24.813  0.00  0.00    +0.130 C 
ATOM     17  C   UNL     1      -2.794   4.306  26.112  0.00  0.00    +0.190 C 
ATOM     18  C   UNL     1      -0.434   3.671  23.733  0.00  0.00    +0.185 C 
ENDROOT
BRANCH  15   7
ATOM      7  N   UNL     1      -4.716   2.821  25.434  0.00  0.00    -0.187 N 
ATOM      9  N   UNL     1      -5.501   3.255  26.430  0.00  0.00    -0.041 NA
ATOM     10  N   UNL     1      -6.254   1.307  25.648  0.00  0.00    -0.071 NA
ATOM     11  N   UNL     1      -6.440   2.325  26.556  0.00  0.00    -0.020 NA
ATOM     19  C   UNL     1      -5.182   1.635  24.964  0.00  0.00    +0.342 A 
BRANCH  19   3
ATOM      3  O   UNL     1      -4.630   0.943  23.984  0.00  0.00    -0.423 OA
BRANCH   3  23
ATOM     23  C   UNL     1      -3.994  -0.272  24.192  0.00  0.00    +0.134 A 
ATOM     25  C   UNL     1      -2.769  -0.314  24.857  0.00  0.00    +0.069 A 
ATOM     26  C   UNL     1      -4.581  -1.452  23.736  0.00  0.00    +0.046 A 
ATOM     27  C   UNL     1      -2.130  -1.537  25.065  0.00  0.00    +0.033 A 
ATOM     28  C   UNL     1      -3.943  -2.676  23.944  0.00  0.00    +0.005 A 
ATOM     29  C   UNL     1      -2.717  -2.717  24.609  0.00  0.00    +0.023 A 
BRANCH  27  12
ATOM     12  N   UNL     1      -0.891  -1.580  25.736  0.00  0.00    -0.336 N 
ATOM     30  C   UNL     1      -0.629  -0.690  26.851  0.00  0.00    +0.129 C 
ATOM     31  C   UNL     1       0.143  -2.504  25.313  0.00  0.00    +0.129 C 
ENDBRANCH  27  12
ENDBRANCH   3  23
ENDBRANCH  19   3
ENDBRANCH  15   7
BRANCH  16   8
ATOM      4  O   UNL     1       2.359   2.199  23.410  0.00  0.00    -0.276 OA
ATOM      8  N   UNL     1       0.337   1.409  24.242  0.00  0.00    -0.308 N 
ATOM     20  C   UNL     1       1.554   1.288  23.583  0.00  0.00    +0.214 C 
ATOM     32  H   UNL     1      -0.279   0.602  24.282  0.00  0.00    +0.149 HD
BRANCH  20  21
ATOM     21  C   UNL     1       1.782  -0.129  23.087  0.00  0.00    +0.107 C 
BRANCH  21  22
ATOM     22  C   UNL     1       3.152  -0.306  22.439  0.00  0.00    +0.129 C 
BRANCH  22  24
ATOM      6  O   UNL     1       4.554  -1.621  23.931  0.00  0.00    -0.251 OA
ATOM     24  C   UNL     1       4.237  -0.535  23.464  0.00  0.00    +0.305 C 
BRANCH  24   5
ATOM      5  O   UNL     1       4.840   0.630  23.818  0.00  0.00    -0.481 OA
ATOM     33  H   UNL     1       5.193   0.596  24.732  0.00  0.00    +0.295 HD
ENDBRANCH  24   5
ENDBRANCH  22  24
ENDBRANCH  21  22
ENDBRANCH  20  21
ENDBRANCH  16   8
TORSDOF 9
ENDMDL
MODEL 2
REMARK VINA RESULT:      -2.1      2.385      5.088
REMARK  Name = 11879672
REMARK  11 active torsions:
REMARK  status: ('A' for Active; 'I' for Inactive)
REMARK    1  A    between atoms: O_3  and  C_19
REMARK    2  A    between atoms: O_3  and  C_23
REMARK    3  A    between atoms: O_5  and  C_24
REMARK    4  A    between atoms: N_7  and  C_15
REMARK    5  A    between atoms: N_8  and  C_16
REMARK    6  A    between atoms: N_12  and  C_27
REMARK    7  A    between atoms: N_12  and  C_30
REMARK    8  A    between atoms: N_12  and  C_31
REMARK    9  A    between atoms: C_20  and  C_21
REMARK   10  A    between atoms: C_21  and  C_22
REMARK   11  A    between atoms: C_22  and  C_24
REMARK                            x       y       z     vdW  Elec       q    Type
REMARK                         _______ _______ _______ _____ _____    ______ ____
ROOT
ATOM      1  O   UNL     1      -4.320   2.848  23.319  0.00  0.00    -0.370 OA
ATOM      2  O   UNL     1      -4.695   2.445  26.416  0.00  0.00    -0.370 OA
ATOM     13  C   UNL     1      -3.548   2.608  25.562  0.00  0.00    +0.176 C 
ATOM     14  C   UNL     1      -3.847   1.879  24.267  0.00  0.00    +0.171 C 
ATOM     15  C   UNL     1      -3.407   4.064  25.161  0.00  0.00    +0.171 C 
ATOM     16  C   UNL     1      -4.954   0.913  24.628  0.00  0.00    +0.130 C 
ATOM     17  C   UNL     1      -4.263   4.157  23.903  0.00  0.00    +0.190 C 
ATOM     18  C   UNL     1      -5.680   1.654  25.736  0.00  0.00    +0.185 C 
ENDROOT
BRANCH  15   7
ATOM      7  N   UNL     1      -2.008   4.467  24.989  0.00  0.00    -0.187 N 
ATOM      9  N   UNL     1      -1.675   5.750  24.792  0.00  0.00    -0.041 NA
ATOM     10  N   UNL     1       0.152   4.472  24.803  0.00  0.00    -0.071 NA
ATOM     11  N   UNL     1      -0.353   5.747  24.678  0.00  0.00    -0.020 NA
ATOM     19  C   UNL     1      -0.890   3.696  24.994  0.00  0.00    +0.342 A 
BRANCH  19   3
ATOM      3  O   UNL     1      -0.877   2.387  25.163  0.00  0.00    -0.423 OA
BRANCH   3  23
ATOM     23  C   UNL     1      -0.325   1.518  24.233  0.00  0.00    +0.134 A 
ATOM     25  C   UNL     1       1.060   1.366  24.156  0.00  0.00    +0.069 A 
ATOM     26  C   UNL     1      -1.154   0.796  23.375  0.00  0.00    +0.046 A 
ATOM     27  C   UNL     1       1.615   0.493  23.221  0.00  0.00    +0.033 A 
ATOM     28  C   UNL     1      -0.600  -0.077  22.439  0.00  0.00    +0.005 A 
ATOM     29  C   UNL     1       0.785  -0.228  22.363  0.00  0.00    +0.023 A 
BRANCH  27  12
ATOM     12  N   UNL     1       3.014   0.340  23.142  0.00  0.00    -0.336 N 
ATOM     30  C   UNL     1       3.846   1.429  22.667  0.00  0.00    +0.129 C 
ATOM     31  C   UNL     1       3.640  -0.912  23.521  0.00  0.00    +0.129 C 
ENDBRANCH  27  12
ENDBRANCH   3  23
ENDBRANCH  19   3
ENDBRANCH  15   7
BRANCH  16   8
ATOM      4  O   UNL     1      -4.031  -1.312  23.025  0.00  0.00    -0.276 OA
ATOM      8  N   UNL     1      -4.421  -0.341  25.101  0.00  0.00    -0.308 N 
ATOM     20  C   UNL     1      -4.000  -1.356  24.252  0.00  0.00    +0.214 C 
ATOM     32  H   UNL     1      -4.402  -0.504  26.103  0.00  0.00    +0.149 HD
BRANCH  20  21
ATOM     21  C   UNL     1      -3.488  -2.558  25.027  0.00  0.00    +0.107 C 
BRANCH  21  22
ATOM     22  C   UNL     1      -1.980  -2.739  24.893  0.00  0.00    +0.129 C 
BRANCH  22  24
ATOM      6  O   UNL     1      -1.712  -0.809  26.353  0.00  0.00    -0.251 OA
ATOM     24  C   UNL     1      -1.213  -1.685  25.658  0.00  0.00    +0.305 C 
BRANCH  24   5
ATOM      5  O   UNL     1       0.127  -1.823  25.486  0.00  0.00    -0.481 OA
ATOM     33  H   UNL     1       0.622  -1.639  26.313  0.00  0.00    +0.295 HD
ENDBRANCH  24   5
ENDBRANCH  22  24
ENDBRANCH  21  22
ENDBRANCH  20  21
ENDBRANCH  16   8
TORSDOF 9
ENDMDL
MODEL 3
REMARK VINA RESULT:      -1.4      1.935      3.988
REMARK  Name = 11879672
REMARK  11 active torsions:
REMARK  status: ('A' for Active; 'I' for Inactive)
REMARK    1  A    between atoms: O_3  and  C_19
REMARK    2  A    between atoms: O_3  and  C_23
REMARK    3  A    between atoms: O_5  and  C_24
REMARK    4  A    between atoms: N_7  and  C_15
REMARK    5  A    between atoms: N_8  and  C_16
REMARK    6  A    between atoms: N_12  and  C_27
REMARK    7  A    between atoms: N_12  and  C_30
REMARK    8  A    between atoms: N_12  and  C_31
REMARK    9  A    between atoms: C_20  and  C_21
REMARK   10  A    between atoms: C_21  and  C_22
REMARK   11  A    between atoms: C_22  and  C_24
REMARK                            x       y       z     vdW  Elec       q    Type
REMARK                         _______ _______ _______ _____ _____    ______ ____
ROOT
ATOM      1  O   UNL     1      -0.519   0.865  26.059  0.00  0.00    -0.370 OA
ATOM      2  O   UNL     1      -1.061   2.230  23.277  0.00  0.00    -0.370 OA
ATOM     13  C   UNL     1      -1.085   0.868  23.743  0.00  0.00    +0.176 C 
ATOM     14  C   UNL     1       0.043   0.718  24.745  0.00  0.00    +0.171 C 
ATOM     15  C   UNL     1      -2.349   0.619  24.543  0.00  0.00    +0.171 C 
ATOM     16  C   UNL     1       0.972   1.872  24.439  0.00  0.00    +0.130 C 
ATOM     17  C   UNL     1      -1.942   1.017  25.958  0.00  0.00    +0.190 C 
ATOM     18  C   UNL     1       0.014   2.929  23.920  0.00  0.00    +0.185 C 
ENDROOT
BRANCH  15   7
ATOM      7  N   UNL     1      -2.841  -0.755  24.403  0.00  0.00    -0.187 N 
ATOM      9  N   UNL     1      -2.007  -1.802  24.475  0.00  0.00    -0.041 NA
ATOM     10  N   UNL     1      -4.096  -2.502  24.131  0.00  0.00    -0.071 NA
ATOM     11  N   UNL     1      -2.779  -2.868  24.307  0.00  0.00    -0.020 NA
ATOM     19  C   UNL     1      -4.110  -1.191  24.193  0.00  0.00    +0.342 A 
BRANCH  19   3
ATOM      3  O   UNL     1      -5.166  -0.407  24.074  0.00  0.00    -0.423 OA
BRANCH   3  23
ATOM     23  C   UNL     1      -5.257   0.826  24.703  0.00  0.00    +0.134 A 
ATOM     25  C   UNL     1      -4.423   1.873  24.310  0.00  0.00    +0.069 A 
ATOM     26  C   UNL     1      -6.182   1.018  25.728  0.00  0.00    +0.046 A 
ATOM     27  C   UNL     1      -4.515   3.113  24.943  0.00  0.00    +0.033 A 
ATOM     28  C   UNL     1      -6.275   2.258  26.362  0.00  0.00    +0.005 A 
ATOM     29  C   UNL     1      -5.441   3.305  25.969  0.00  0.00    +0.023 A 
BRANCH  27  12
ATOM     12  N   UNL     1      -3.672   4.171  24.548  0.00  0.00    -0.336 N 
ATOM     30  C   UNL     1      -3.856   4.814  23.261  0.00  0.00    +0.129 C 
ATOM     31  C   UNL     1      -2.603   4.623  25.416  0.00  0.00    +0.129 C 
ENDBRANCH  27  12
ENDBRANCH   3  23
ENDBRANCH  19   3
ENDBRANCH  15   7
BRANCH  16   8
ATOM      4  O   UNL     1       1.358  -0.731  23.235  0.00  0.00    -0.276 OA
ATOM      8  N   UNL     1       1.943   1.509  23.436  0.00  0.00    -0.308 N 
ATOM     20  C   UNL     1       2.055   0.228  22.914  0.00  0.00    +0.214 C 
ATOM     32  H   UNL     1       2.608   2.217  23.138  0.00  0.00    +0.149 HD
BRANCH  20  21
ATOM     21  C   UNL     1       3.162   0.139  21.879  0.00  0.00    +0.107 C 
BRANCH  21  22
ATOM     22  C   UNL     1       4.525   0.519  22.449  0.00  0.00    +0.129 C 
BRANCH  22  24
ATOM      6  O   UNL     1       4.834  -1.496  23.778  0.00  0.00    -0.251 OA
ATOM     24  C   UNL     1       4.861  -0.276  23.689  0.00  0.00    +0.305 C 
BRANCH  24   5
ATOM      5  O   UNL     1       5.207   0.536  24.722  0.00  0.00    -0.481 OA
ATOM     33  H   UNL     1       5.976   0.186  25.219  0.00  0.00    +0.295 HD
ENDBRANCH  24   5
ENDBRANCH  22  24
ENDBRANCH  21  22
ENDBRANCH  20  21
ENDBRANCH  16   8
TORSDOF 9
ENDMDL
MODEL 4
REMARK VINA RESULT:      -1.4      2.197      3.682
REMARK  Name = 11879672
REMARK  11 active torsions:
REMARK  status: ('A' for Active; 'I' for Inactive)
REMARK    1  A    between atoms: O_3  and  C_19
REMARK    2  A    between atoms: O_3  and  C_23
REMARK    3  A    between atoms: O_5  and  C_24
REMARK    4  A    between atoms: N_7  and  C_15
REMARK    5  A    between atoms: N_8  and  C_16
REMARK    6  A    between atoms: N_12  and  C_27
REMARK    7  A    between atoms: N_12  and  C_30
REMARK    8  A    between atoms: N_12  and  C_31
REMARK    9  A    between atoms: C_20  and  C_21
REMARK   10  A    between atoms: C_21  and  C_22
REMARK   11  A    between atoms: C_22  and  C_24
REMARK                            x       y       z     vdW  Elec       q    Type
REMARK                         _______ _______ _______ _____ _____    ______ ____
ROOT
ATOM      1  O   UNL     1      -1.112   1.749  22.566  0.00  0.00    -0.370 OA
ATOM      2  O   UNL     1      -0.067   0.482  25.249  0.00  0.00    -0.370 OA
ATOM     13  C   UNL     1      -0.213   1.833  24.772  0.00  0.00    +0.176 C 
ATOM     14  C   UNL     1       0.124   1.825  23.295  0.00  0.00    +0.171 C 
ATOM     15  C   UNL     1      -1.671   2.246  24.834  0.00  0.00    +0.171 C 
ATOM     16  C   UNL     1       0.927   0.558  23.100  0.00  0.00    +0.130 C 
ATOM     17  C   UNL     1      -2.213   1.791  23.484  0.00  0.00    +0.190 C 
ATOM     18  C   UNL     1       0.347  -0.358  24.162  0.00  0.00    +0.185 C 
ENDROOT
BRANCH  15   7
ATOM      7  N   UNL     1      -1.839   3.674  25.120  0.00  0.00    -0.187 N 
ATOM      9  N   UNL     1      -0.973   4.582  24.648  0.00  0.00    -0.041 NA
ATOM     10  N   UNL     1      -2.568   5.584  25.842  0.00  0.00    -0.071 NA
ATOM     11  N   UNL     1      -1.424   5.748  25.094  0.00  0.00    -0.020 NA
ATOM     19  C   UNL     1      -2.806   4.292  25.845  0.00  0.00    +0.342 A 
BRANCH  19   3
ATOM      3  O   UNL     1      -3.808   3.677  26.446  0.00  0.00    -0.423 OA
BRANCH   3  23
ATOM     23  C   UNL     1      -4.524   2.652  25.845  0.00  0.00    +0.134 A 
ATOM     25  C   UNL     1      -3.956   1.383  25.720  0.00  0.00    +0.069 A 
ATOM     26  C   UNL     1      -5.811   2.890  25.364  0.00  0.00    +0.046 A 
ATOM     27  C   UNL     1      -4.676   0.353  25.115  0.00  0.00    +0.033 A 
ATOM     28  C   UNL     1      -6.532   1.860  24.759  0.00  0.00    +0.005 A 
ATOM     29  C   UNL     1      -5.964   0.592  24.635  0.00  0.00    +0.023 A 
BRANCH  27  12
ATOM     12  N   UNL     1      -4.103  -0.928  24.988  0.00  0.00    -0.336 N 
ATOM     30  C   UNL     1      -4.373  -1.740  23.817  0.00  0.00    +0.129 C 
ATOM     31  C   UNL     1      -3.247  -1.458  26.032  0.00  0.00    +0.129 C 
ENDBRANCH  27  12
ENDBRANCH   3  23
ENDBRANCH  19   3
ENDBRANCH  15   7
BRANCH  16   8
ATOM      4  O   UNL     1       3.095   0.080  21.245  0.00  0.00    -0.276 OA
ATOM      8  N   UNL     1       2.333   0.791  23.322  0.00  0.00    -0.308 N 
ATOM     20  C   UNL     1       3.307   0.531  22.367  0.00  0.00    +0.214 C 
ATOM     32  H   UNL     1       2.624   1.113  24.241  0.00  0.00    +0.149 HD
BRANCH  20  21
ATOM     21  C   UNL     1       4.696   0.869  22.878  0.00  0.00    +0.107 C 
BRANCH  21  22
ATOM     22  C   UNL     1       5.052   0.106  24.150  0.00  0.00    +0.129 C 
BRANCH  22  24
ATOM      6  O   UNL     1       5.848  -2.177  23.872  0.00  0.00    -0.251 OA
ATOM     24  C   UNL     1       4.918  -1.387  23.970  0.00  0.00    +0.305 C 
BRANCH  24   5
ATOM      5  O   UNL     1       3.614  -1.768  23.929  0.00  0.00    -0.481 OA
ATOM     33  H   UNL     1       3.024  -1.091  24.323  0.00  0.00    +0.295 HD
ENDBRANCH  24   5
ENDBRANCH  22  24
ENDBRANCH  21  22
ENDBRANCH  20  21
ENDBRANCH  16   8
TORSDOF 9
ENDMDL
MODEL 5
REMARK VINA RESULT:      -0.8      2.440      5.434
REMARK  Name = 11879672
REMARK  11 active torsions:
REMARK  status: ('A' for Active; 'I' for Inactive)
REMARK    1  A    between atoms: O_3  and  C_19
REMARK    2  A    between atoms: O_3  and  C_23
REMARK    3  A    between atoms: O_5  and  C_24
REMARK    4  A    between atoms: N_7  and  C_15
REMARK    5  A    between atoms: N_8  and  C_16
REMARK    6  A    between atoms: N_12  and  C_27
REMARK    7  A    between atoms: N_12  and  C_30
REMARK    8  A    between atoms: N_12  and  C_31
REMARK    9  A    between atoms: C_20  and  C_21
REMARK   10  A    between atoms: C_21  and  C_22
REMARK   11  A    between atoms: C_22  and  C_24
REMARK                            x       y       z     vdW  Elec       q    Type
REMARK                         _______ _______ _______ _____ _____    ______ ____
ROOT
ATOM      1  O   UNL     1      -4.808   0.936  25.208  0.00  0.00    -0.370 OA
ATOM      2  O   UNL     1      -3.425   1.638  22.472  0.00  0.00    -0.370 OA
ATOM     13  C   UNL     1      -2.977   1.004  23.684  0.00  0.00    +0.176 C 
ATOM     14  C   UNL     1      -3.658   1.712  24.838  0.00  0.00    +0.171 C 
ATOM     15  C   UNL     1      -3.496  -0.420  23.744  0.00  0.00    +0.171 C 
ATOM     16  C   UNL     1      -4.086   3.043  24.260  0.00  0.00    +0.130 C 
ATOM     17  C   UNL     1      -4.854  -0.260  24.419  0.00  0.00    +0.190 C 
ATOM     18  C   UNL     1      -4.333   2.697  22.803  0.00  0.00    +0.185 C 
ENDROOT
BRANCH  15   7
ATOM      7  N   UNL     1      -2.569  -1.328  24.425  0.00  0.00    -0.187 N 
ATOM      9  N   UNL     1      -2.985  -2.505  24.916  0.00  0.00    -0.041 NA
ATOM     10  N   UNL     1      -0.807  -2.233  25.307  0.00  0.00    -0.071 NA
ATOM     11  N   UNL     1      -1.903  -3.053  25.454  0.00  0.00    -0.020 NA
ATOM     19  C   UNL     1      -1.242  -1.172  24.668  0.00  0.00    +0.342 A 
BRANCH  19   3
ATOM      3  O   UNL     1      -0.530  -0.118  24.313  0.00  0.00    -0.423 OA
BRANCH   3  23
ATOM     23  C   UNL     1       0.509  -0.192  23.397  0.00  0.00    +0.134 A 
ATOM     25  C   UNL     1       1.832  -0.167  23.838  0.00  0.00    +0.069 A 
ATOM     26  C   UNL     1       0.231  -0.292  22.034  0.00  0.00    +0.046 A 
ATOM     27  C   UNL     1       2.877  -0.242  22.917  0.00  0.00    +0.033 A 
ATOM     28  C   UNL     1       1.275  -0.367  21.111  0.00  0.00    +0.005 A 
ATOM     29  C   UNL     1       2.598  -0.342  21.554  0.00  0.00    +0.023 A 
BRANCH  27  12
ATOM     12  N   UNL     1       4.214  -0.215  23.363  0.00  0.00    -0.336 N 
ATOM     30  C   UNL     1       4.827  -1.408  23.914  0.00  0.00    +0.129 C 
ATOM     31  C   UNL     1       4.990   1.007  23.289  0.00  0.00    +0.129 C 
ENDBRANCH  27  12
ENDBRANCH   3  23
ENDBRANCH  19   3
ENDBRANCH  15   7
BRANCH  16   8
ATOM      4  O   UNL     1      -3.101   4.229  26.709  0.00  0.00    -0.276 OA
ATOM      8  N   UNL     1      -3.043   4.031  24.394  0.00  0.00    -0.308 N 
ATOM     20  C   UNL     1      -2.635   4.544  25.617  0.00  0.00    +0.214 C 
ATOM     32  H   UNL     1      -2.627   4.403  23.545  0.00  0.00    +0.149 HD
BRANCH  20  21
ATOM     21  C   UNL     1      -1.524   5.566  25.452  0.00  0.00    +0.107 C 
BRANCH  21  22
ATOM     22  C   UNL     1      -0.285   4.979  24.784  0.00  0.00    +0.129 C 
BRANCH  22  24
ATOM      6  O   UNL     1       0.028   2.926  26.052  0.00  0.00    -0.251 OA
ATOM     24  C   UNL     1      -0.188   3.485  24.985  0.00  0.00    +0.305 C 
BRANCH  24   5
ATOM      5  O   UNL     1      -0.375   2.813  23.820  0.00  0.00    -0.481 OA
ATOM     33  H   UNL     1      -0.302   1.843  23.942  0.00  0.00    +0.295 HD
ENDBRANCH  24   5
ENDBRANCH  22  24
ENDBRANCH  21  22
ENDBRANCH  20  21
ENDBRANCH  16   8
TORSDOF 9
ENDMDL
MODEL 6
REMARK VINA RESULT:      -0.5      1.659      4.019
REMARK  Name = 11879672
REMARK  11 active torsions:
REMARK  status: ('A' for Active; 'I' for Inactive)
REMARK    1  A    between atoms: O_3  and  C_19
REMARK    2  A    between atoms: O_3  and  C_23
REMARK    3  A    between atoms: O_5  and  C_24
REMARK    4  A    between atoms: N_7  and  C_15
REMARK    5  A    between atoms: N_8  and  C_16
REMARK    6  A    between atoms: N_12  and  C_27
REMARK    7  A    between atoms: N_12  and  C_30
REMARK    8  A    between atoms: N_12  and  C_31
REMARK    9  A    between atoms: C_20  and  C_21
REMARK   10  A    between atoms: C_21  and  C_22
REMARK   11  A    between atoms: C_22  and  C_24
REMARK                            x       y       z     vdW  Elec       q    Type
REMARK                         _______ _______ _______ _____ _____    ______ ____
ROOT
ATOM      1  O   UNL     1      -3.487  -0.651  23.152  0.00  0.00    -0.370 OA
ATOM      2  O   UNL     1      -2.131  -1.172  25.942  0.00  0.00    -0.370 OA
ATOM     13  C   UNL     1      -2.753  -0.026  25.332  0.00  0.00    +0.176 C 
ATOM     14  C   UNL     1      -2.392  -0.050  23.860  0.00  0.00    +0.171 C 
ATOM     15  C   UNL     1      -4.261  -0.182  25.362  0.00  0.00    +0.171 C 
ATOM     16  C   UNL     1      -1.170  -0.939  23.789  0.00  0.00    +0.130 C 
ATOM     17  C   UNL     1      -4.553  -0.934  24.068  0.00  0.00    +0.190 C 
ATOM     18  C   UNL     1      -1.401  -1.898  24.943  0.00  0.00    +0.185 C 
ENDROOT
BRANCH  15   7
ATOM      7  N   UNL     1      -4.956   1.101  25.503  0.00  0.00    -0.187 N 
ATOM      9  N   UNL     1      -6.064   1.211  26.251  0.00  0.00    -0.041 NA
ATOM     10  N   UNL     1      -5.542   3.183  25.349  0.00  0.00    -0.071 NA
ATOM     11  N   UNL     1      -6.418   2.487  26.152  0.00  0.00    -0.020 NA
ATOM     19  C   UNL     1      -4.647   2.305  24.959  0.00  0.00    +0.342 A 
BRANCH  19   3
ATOM      3  O   UNL     1      -3.612   2.532  24.169  0.00  0.00    -0.423 OA
BRANCH   3  23
ATOM     23  C   UNL     1      -2.452   3.148  24.616  0.00  0.00    +0.134 A 
ATOM     25  C   UNL     1      -1.641   2.512  25.555  0.00  0.00    +0.069 A 
ATOM     26  C   UNL     1      -2.097   4.404  24.125  0.00  0.00    +0.046 A 
ATOM     27  C   UNL     1      -0.475   3.131  26.004  0.00  0.00    +0.033 A 
ATOM     28  C   UNL     1      -0.931   5.025  24.573  0.00  0.00    +0.005 A 
ATOM     29  C   UNL     1      -0.120   4.388  25.513  0.00  0.00    +0.023 A 
BRANCH  27  12
ATOM     12  N   UNL     1       0.345   2.489  26.954  0.00  0.00    -0.336 N 
ATOM     30  C   UNL     1       0.025   1.152  27.415  0.00  0.00    +0.129 C 
ATOM     31  C   UNL     1       1.511   3.161  27.493  0.00  0.00    +0.129 C 
ENDBRANCH  27  12
ENDBRANCH   3  23
ENDBRANCH  19   3
ENDBRANCH  15   7
BRANCH  16   8
ATOM      4  O   UNL     1       0.933  -0.490  21.853  0.00  0.00    -0.276 OA
ATOM      8  N   UNL     1       0.042  -0.179  23.977  0.00  0.00    -0.308 N 
ATOM     20  C   UNL     1       0.999  -0.016  22.984  0.00  0.00    +0.214 C 
ATOM     32  H   UNL     1       0.222   0.212  24.897  0.00  0.00    +0.149 HD
BRANCH  20  21
ATOM     21  C   UNL     1       2.166   0.828  23.464  0.00  0.00    +0.107 C 
BRANCH  21  22
ATOM     22  C   UNL     1       3.436   0.581  22.656  0.00  0.00    +0.129 C 
BRANCH  22  24
ATOM      6  O   UNL     1       5.568   0.607  23.829  0.00  0.00    -0.251 OA
ATOM     24  C   UNL     1       4.546   0.014  23.508  0.00  0.00    +0.305 C 
BRANCH  24   5
ATOM      5  O   UNL     1       4.278  -1.261  23.891  0.00  0.00    -0.481 OA
ATOM     33  H   UNL     1       3.408  -1.568  23.557  0.00  0.00    +0.295 HD
ENDBRANCH  24   5
ENDBRANCH  22  24
ENDBRANCH  21  22
ENDBRANCH  20  21
ENDBRANCH  16   8
TORSDOF 9
ENDMDL
MODEL 7
REMARK VINA RESULT:       0.2      2.508      7.298
REMARK  Name = 11879672
REMARK  11 active torsions:
REMARK  status: ('A' for Active; 'I' for Inactive)
REMARK    1  A    between atoms: O_3  and  C_19
REMARK    2  A    between atoms: O_3  and  C_23
REMARK    3  A    between atoms: O_5  and  C_24
REMARK    4  A    between atoms: N_7  and  C_15
REMARK    5  A    between atoms: N_8  and  C_16
REMARK    6  A    between atoms: N_12  and  C_27
REMARK    7  A    between atoms: N_12  and  C_30
REMARK    8  A    between atoms: N_12  and  C_31
REMARK    9  A    between atoms: C_20  and  C_21
REMARK   10  A    between atoms: C_21  and  C_22
REMARK   11  A    between atoms: C_22  and  C_24
REMARK                            x       y       z     vdW  Elec       q    Type
REMARK                         _______ _______ _______ _____ _____    ______ ____
ROOT
ATOM      1  O   UNL     1      -1.066  -1.003  26.291  0.00  0.00    -0.370 OA
ATOM      2  O   UNL     1      -2.147  -2.530  23.762  0.00  0.00    -0.370 OA
ATOM     13  C   UNL     1      -1.440  -1.291  23.954  0.00  0.00    +0.176 C 
ATOM     14  C   UNL     1      -1.971  -0.664  25.228  0.00  0.00    +0.171 C 
ATOM     15  C   UNL     1       0.023  -1.571  24.242  0.00  0.00    +0.171 C 
ATOM     16  C   UNL     1      -3.309  -1.335  25.446  0.00  0.00    +0.130 C 
ATOM     17  C   UNL     1       0.047  -1.733  25.759  0.00  0.00    +0.190 C 
ATOM     18  C   UNL     1      -3.087  -2.705  24.831  0.00  0.00    +0.185 C 
ENDROOT
BRANCH  15   7
ATOM      7  N   UNL     1       0.909  -0.530  23.716  0.00  0.00    -0.187 N 
ATOM      9  N   UNL     1       1.710  -0.765  22.667  0.00  0.00    -0.041 NA
ATOM     10  N   UNL     1       1.975   1.329  23.384  0.00  0.00    -0.071 NA
ATOM     11  N   UNL     1       2.359   0.375  22.469  0.00  0.00    -0.020 NA
ATOM     19  C   UNL     1       1.077   0.747  24.146  0.00  0.00    +0.342 A 
BRANCH  19   3
ATOM      3  O   UNL     1       0.435   1.291  25.164  0.00  0.00    -0.423 OA
BRANCH   3  23
ATOM     23  C   UNL     1      -0.561   2.242  24.997  0.00  0.00    +0.134 A 
ATOM     25  C   UNL     1      -1.372   2.212  23.863  0.00  0.00    +0.069 A 
ATOM     26  C   UNL     1      -0.750   3.229  25.964  0.00  0.00    +0.046 A 
ATOM     27  C   UNL     1      -2.373   3.169  23.695  0.00  0.00    +0.033 A 
ATOM     28  C   UNL     1      -1.751   4.187  25.797  0.00  0.00    +0.005 A 
ATOM     29  C   UNL     1      -2.562   4.156  24.663  0.00  0.00    +0.023 A 
BRANCH  27  12
ATOM     12  N   UNL     1      -3.193   3.140  22.549  0.00  0.00    -0.336 N 
ATOM     30  C   UNL     1      -2.855   2.287  21.427  0.00  0.00    +0.129 C 
ATOM     31  C   UNL     1      -4.377   3.972  22.471  0.00  0.00    +0.129 C 
ENDBRANCH  27  12
ENDBRANCH   3  23
ENDBRANCH  19   3
ENDBRANCH  15   7
BRANCH  16   8
ATOM      4  O   UNL     1      -4.000   1.461  25.727  0.00  0.00    -0.276 OA
ATOM      8  N   UNL     1      -4.366  -0.624  24.768  0.00  0.00    -0.308 N 
ATOM     20  C   UNL     1      -4.624   0.725  24.967  0.00  0.00    +0.214 C 
ATOM     32  H   UNL     1      -4.981  -1.153  24.155  0.00  0.00    +0.149 HD
BRANCH  20  21
ATOM     21  C   UNL     1      -5.793   1.203  24.124  0.00  0.00    +0.107 C 
BRANCH  21  22
ATOM     22  C   UNL     1      -6.857   1.915  24.953  0.00  0.00    +0.129 C 
BRANCH  22  24
ATOM      6  O   UNL     1      -5.812   4.006  25.633  0.00  0.00    -0.251 OA
ATOM     24  C   UNL     1      -6.251   2.901  25.924  0.00  0.00    +0.305 C 
BRANCH  24   5
ATOM      5  O   UNL     1      -6.250   2.413  27.192  0.00  0.00    -0.481 OA
ATOM     33  H   UNL     1      -7.140   2.108  27.467  0.00  0.00    +0.295 HD
ENDBRANCH  24   5
ENDBRANCH  22  24
ENDBRANCH  21  22
ENDBRANCH  20  21
ENDBRANCH  16   8
TORSDOF 9
ENDMDL
MODEL 8
REMARK VINA RESULT:       0.3      2.564      5.627
REMARK  Name = 11879672
REMARK  11 active torsions:
REMARK  status: ('A' for Active; 'I' for Inactive)
REMARK    1  A    between atoms: O_3  and  C_19
REMARK    2  A    between atoms: O_3  and  C_23
REMARK    3  A    between atoms: O_5  and  C_24
REMARK    4  A    between atoms: N_7  and  C_15
REMARK    5  A    between atoms: N_8  and  C_16
REMARK    6  A    between atoms: N_12  and  C_27
REMARK    7  A    between atoms: N_12  and  C_30
REMARK    8  A    between atoms: N_12  and  C_31
REMARK    9  A    between atoms: C_20  and  C_21
REMARK   10  A    between atoms: C_21  and  C_22
REMARK   11  A    between atoms: C_22  and  C_24
REMARK                            x       y       z     vdW  Elec       q    Type
REMARK                         _______ _______ _______ _____ _____    ______ ____
ROOT
ATOM      1  O   UNL     1       0.511  -0.481  23.575  0.00  0.00    -0.370 OA
ATOM      2  O   UNL     1      -0.453   0.898  26.233  0.00  0.00    -0.370 OA
ATOM     13  C   UNL     1      -1.128   0.222  25.157  0.00  0.00    +0.176 C 
ATOM     14  C   UNL     1      -0.404   0.585  23.875  0.00  0.00    +0.171 C 
ATOM     15  C   UNL     1      -0.945  -1.277  25.293  0.00  0.00    +0.171 C 
ATOM     16  C   UNL     1       0.355   1.847  24.219  0.00  0.00    +0.130 C 
ATOM     17  C   UNL     1       0.355  -1.533  24.538  0.00  0.00    +0.190 C 
ATOM     18  C   UNL     1       0.637   1.661  25.699  0.00  0.00    +0.185 C 
ENDROOT
BRANCH  15   7
ATOM      7  N   UNL     1      -2.103  -2.032  24.806  0.00  0.00    -0.187 N 
ATOM      9  N   UNL     1      -1.955  -3.059  23.957  0.00  0.00    -0.041 NA
ATOM     10  N   UNL     1      -4.112  -2.757  24.433  0.00  0.00    -0.071 NA
ATOM     11  N   UNL     1      -3.187  -3.498  23.732  0.00  0.00    -0.020 NA
ATOM     19  C   UNL     1      -3.419  -1.856  25.090  0.00  0.00    +0.342 A 
BRANCH  19   3
ATOM      3  O   UNL     1      -3.899  -0.925  25.894  0.00  0.00    -0.423 OA
BRANCH   3  23
ATOM     23  C   UNL     1      -4.439   0.264  25.424  0.00  0.00    +0.134 A 
ATOM     25  C   UNL     1      -3.825   0.940  24.369  0.00  0.00    +0.069 A 
ATOM     26  C   UNL     1      -5.595   0.782  26.006  0.00  0.00    +0.046 A 
ATOM     27  C   UNL     1      -4.368   2.135  23.896  0.00  0.00    +0.033 A 
ATOM     28  C   UNL     1      -6.139   1.977  25.534  0.00  0.00    +0.005 A 
ATOM     29  C   UNL     1      -5.525   2.653  24.480  0.00  0.00    +0.023 A 
BRANCH  27  12
ATOM     12  N   UNL     1      -3.749   2.819  22.831  0.00  0.00    -0.336 N 
ATOM     30  C   UNL     1      -4.093   4.199  22.547  0.00  0.00    +0.129 C 
ATOM     31  C   UNL     1      -2.770   2.150  21.997  0.00  0.00    +0.129 C 
ENDBRANCH  27  12
ENDBRANCH   3  23
ENDBRANCH  19   3
ENDBRANCH  15   7
BRANCH  16   8
ATOM      4  O   UNL     1       0.378   4.316  25.729  0.00  0.00    -0.276 OA
ATOM      8  N   UNL     1      -0.449   3.021  23.985  0.00  0.00    -0.308 N 
ATOM     20  C   UNL     1      -0.369   4.167  24.765  0.00  0.00    +0.214 C 
ATOM     32  H   UNL     1      -1.143   2.985  23.243  0.00  0.00    +0.149 HD
BRANCH  20  21
ATOM     21  C   UNL     1      -1.331   5.239  24.288  0.00  0.00    +0.107 C 
BRANCH  21  22
ATOM     22  C   UNL     1      -2.277   5.707  25.390  0.00  0.00    +0.129 C 
BRANCH  22  24
ATOM      6  O   UNL     1      -4.132   4.558  26.467  0.00  0.00    -0.251 OA
ATOM     24  C   UNL     1      -2.977   4.550  26.063  0.00  0.00    +0.305 C 
BRANCH  24   5
ATOM      5  O   UNL     1      -2.160   3.470  26.173  0.00  0.00    -0.481 OA
ATOM     33  H   UNL     1      -1.275   3.641  25.785  0.00  0.00    +0.295 HD
ENDBRANCH  24   5
ENDBRANCH  22  24
ENDBRANCH  21  22
ENDBRANCH  20  21
ENDBRANCH  16   8
TORSDOF 9
ENDMDL
