MODEL 1
REMARK VINA RESULT:      10.0      0.000      0.000
REMARK  Name = 7674055
REMARK  7 active torsions:
REMARK  status: ('A' for Active; 'I' for Inactive)
REMARK    1  A    between atoms: S_1  and  N_9
REMARK    2  A    between atoms: S_1  and  C_23
REMARK    3  A    between atoms: N_11  and  C_19
REMARK    4  A    between atoms: N_13  and  C_28
REMARK    5  A    between atoms: C_14  and  C_18
REMARK    6  A    between atoms: C_36  and  C_37
REMARK    7  A    between atoms: C_37  and  C_38
REMARK                            x       y       z     vdW  Elec       q    Type
REMARK                         _______ _______ _______ _____ _____    ______ ____
ROOT
ATOM      6  O   UNL     1       1.818  -0.357  21.756  0.00  0.00    -0.252 OA
ATOM      9  N   UNL     1      -2.284  -0.753  24.563  0.00  0.00    -0.162 NA
ATOM     10  N   UNL     1       0.345  -0.979  23.430  0.00  0.00    -0.282 N 
ATOM     13  N   UNL     1       2.657  -0.834  23.875  0.00  0.00    -0.269 N 
ATOM     14  C   UNL     1      -2.034  -0.276  23.174  0.00  0.00    +0.183 C 
ATOM     15  C   UNL     1      -0.808  -0.918  22.529  0.00  0.00    +0.139 C 
ATOM     16  C   UNL     1      -1.373  -1.834  25.019  0.00  0.00    +0.129 C 
ATOM     17  C   UNL     1       0.068  -1.389  24.812  0.00  0.00    +0.126 C 
ATOM     22  C   UNL     1       1.638  -0.698  22.927  0.00  0.00    +0.307 C 
ATOM     41  H   UNL     1       2.403  -1.096  24.822  0.00  0.00    +0.156 HD
ENDROOT
BRANCH  13  28
ATOM     28  C   UNL     1       4.047  -0.626  23.692  0.00  0.00    +0.035 A 
ATOM     32  C   UNL     1       4.943  -1.670  23.917  0.00  0.00    +0.024 A 
ATOM     33  C   UNL     1       4.517   0.624  23.289  0.00  0.00    +0.024 A 
ATOM     34  C   UNL     1       6.312  -1.464  23.737  0.00  0.00    +0.013 A 
ATOM     35  C   UNL     1       5.886   0.829  23.110  0.00  0.00    +0.013 A 
ATOM     36  C   UNL     1       6.783  -0.216  23.335  0.00  0.00    +0.017 A 
BRANCH  36  37
ATOM      8  O   UNL     1       8.883  -0.734  22.394  0.00  0.00    -0.292 OA
ATOM     37  C   UNL     1       8.209  -0.003  23.147  0.00  0.00    +0.160 C 
ATOM     38  C   UNL     1       8.919   1.132  23.877  0.00  0.00    +0.091 C 
ENDBRANCH  36  37
ENDBRANCH  13  28
BRANCH  14  18
ATOM      5  O   UNL     1      -2.669   2.000  22.855  0.00  0.00    -0.274 OA
ATOM     11  N   UNL     1      -0.693   1.527  23.992  0.00  0.00    -0.303 N 
ATOM     18  C   UNL     1      -1.858   1.202  23.317  0.00  0.00    +0.234 C 
ATOM     39  H   UNL     1      -0.110   0.781  24.359  0.00  0.00    +0.149 HD
BRANCH  11  19
ATOM      7  O   UNL     1      -0.274   2.293  26.582  0.00  0.00    -0.274 OA
ATOM     12  N   UNL     1      -0.731   4.473  26.075  0.00  0.00    -0.314 N 
ATOM     19  C   UNL     1      -0.281   2.884  24.242  0.00  0.00    +0.159 C 
ATOM     20  C   UNL     1      -1.020   3.852  23.328  0.00  0.00    +0.033 C 
ATOM     21  C   UNL     1      -0.698   5.282  23.732  0.00  0.00    +0.021 C 
ATOM     24  C   UNL     1      -0.462   3.164  25.730  0.00  0.00    +0.233 C 
ATOM     25  C   UNL     1      -1.164   5.512  25.158  0.00  0.00    +0.104 C 
ATOM     40  H   UNL     1      -0.796   4.682  27.066  0.00  0.00    +0.149 HD
ENDBRANCH  11  19
ENDBRANCH  14  18
BRANCH   9   1
ATOM      1  S   UNL     1      -3.918  -0.890  25.046  0.00  0.00    +0.062 S 
ATOM      3  O   UNL     1      -3.974  -1.462  26.375  0.00  0.00    -0.153 OA
ATOM      4  O   UNL     1      -4.684  -1.459  23.958  0.00  0.00    -0.153 OA
BRANCH   1  23
ATOM      2  F   UNL     1      -5.349   4.811  25.481  0.00  0.00    -0.205 F 
ATOM     23  C   UNL     1      -4.347   0.818  25.177  0.00  0.00    +0.106 A 
ATOM     26  C   UNL     1      -5.561   1.273  24.661  0.00  0.00    +0.031 A 
ATOM     27  C   UNL     1      -3.472   1.711  25.795  0.00  0.00    +0.031 A 
ATOM     29  C   UNL     1      -5.899   2.622  24.765  0.00  0.00    +0.040 A 
ATOM     30  C   UNL     1      -3.810   3.060  25.898  0.00  0.00    +0.040 A 
ATOM     31  C   UNL     1      -5.024   3.516  25.383  0.00  0.00    +0.124 A 
ENDBRANCH   1  23
ENDBRANCH   9   1
TORSDOF 6
ENDMDL
MODEL 2
REMARK VINA RESULT:      13.3      1.559      2.108
REMARK  Name = 7674055
REMARK  7 active torsions:
REMARK  status: ('A' for Active; 'I' for Inactive)
REMARK    1  A    between atoms: S_1  and  N_9
REMARK    2  A    between atoms: S_1  and  C_23
REMARK    3  A    between atoms: N_11  and  C_19
REMARK    4  A    between atoms: N_13  and  C_28
REMARK    5  A    between atoms: C_14  and  C_18
REMARK    6  A    between atoms: C_36  and  C_37
REMARK    7  A    between atoms: C_37  and  C_38
REMARK                            x       y       z     vdW  Elec       q    Type
REMARK                         _______ _______ _______ _____ _____    ______ ____
ROOT
ATOM      6  O   UNL     1       1.833   1.128  22.462  0.00  0.00    -0.252 OA
ATOM      9  N   UNL     1      -2.282  -0.443  24.798  0.00  0.00    -0.162 NA
ATOM     10  N   UNL     1       0.282  -0.223  23.523  0.00  0.00    -0.282 N 
ATOM     13  N   UNL     1       2.588  -0.667  23.739  0.00  0.00    -0.269 N 
ATOM     14  C   UNL     1      -1.961   0.765  23.987  0.00  0.00    +0.183 C 
ATOM     15  C   UNL     1      -0.848   0.527  22.969  0.00  0.00    +0.139 C 
ATOM     16  C   UNL     1      -1.548  -1.670  24.398  0.00  0.00    +0.129 C 
ATOM     17  C   UNL     1      -0.055  -1.371  24.374  0.00  0.00    +0.126 C 
ATOM     22  C   UNL     1       1.603   0.154  23.182  0.00  0.00    +0.307 C 
ATOM     41  H   UNL     1       2.297  -1.431  24.340  0.00  0.00    +0.156 HD
ENDROOT
BRANCH  13  28
ATOM     28  C   UNL     1       3.994  -0.558  23.593  0.00  0.00    +0.035 A 
ATOM     32  C   UNL     1       4.808  -1.663  23.841  0.00  0.00    +0.024 A 
ATOM     33  C   UNL     1       4.562   0.654  23.201  0.00  0.00    +0.024 A 
ATOM     34  C   UNL     1       6.191  -1.556  23.697  0.00  0.00    +0.013 A 
ATOM     35  C   UNL     1       5.946   0.760  23.058  0.00  0.00    +0.013 A 
ATOM     36  C   UNL     1       6.761  -0.345  23.306  0.00  0.00    +0.017 A 
BRANCH  36  37
ATOM      8  O   UNL     1       8.830  -0.952  22.350  0.00  0.00    -0.292 OA
ATOM     37  C   UNL     1       8.202  -0.235  23.156  0.00  0.00    +0.160 C 
ATOM     38  C   UNL     1       8.987   0.771  23.990  0.00  0.00    +0.091 C 
ENDBRANCH  36  37
ENDBRANCH  13  28
BRANCH  14  18
ATOM      5  O   UNL     1      -1.870   2.975  24.876  0.00  0.00    -0.274 OA
ATOM     11  N   UNL     1      -0.806   1.251  26.023  0.00  0.00    -0.303 N 
ATOM     18  C   UNL     1      -1.560   1.793  24.996  0.00  0.00    +0.234 C 
ATOM     39  H   UNL     1      -0.637   0.249  26.037  0.00  0.00    +0.149 HD
BRANCH  11  19
ATOM      7  O   UNL     1       0.839   3.349  25.421  0.00  0.00    -0.274 OA
ATOM     12  N   UNL     1       1.864   3.207  27.458  0.00  0.00    -0.314 N 
ATOM     19  C   UNL     1      -0.278   2.035  27.110  0.00  0.00    +0.159 C 
ATOM     20  C   UNL     1       0.109   1.145  28.283  0.00  0.00    +0.033 C 
ATOM     21  C   UNL     1       0.823   1.973  29.339  0.00  0.00    +0.021 C 
ATOM     24  C   UNL     1       0.863   2.886  26.563  0.00  0.00    +0.233 C 
ATOM     25  C   UNL     1       2.087   2.561  28.738  0.00  0.00    +0.104 C 
ATOM     40  H   UNL     1       2.600   3.821  27.121  0.00  0.00    +0.149 HD
ENDBRANCH  11  19
ENDBRANCH  14  18
BRANCH   9   1
ATOM      1  S   UNL     1      -3.918  -0.655  25.247  0.00  0.00    +0.062 S 
ATOM      3  O   UNL     1      -3.979  -1.091  26.626  0.00  0.00    -0.153 OA
ATOM      4  O   UNL     1      -4.601  -1.389  24.202  0.00  0.00    -0.153 OA
BRANCH   1  23
ATOM      2  F   UNL     1      -5.777   4.935  25.043  0.00  0.00    -0.205 F 
ATOM     23  C   UNL     1      -4.475   1.019  25.186  0.00  0.00    +0.106 A 
ATOM     26  C   UNL     1      -4.346   1.755  24.007  0.00  0.00    +0.031 A 
ATOM     27  C   UNL     1      -5.044   1.607  26.316  0.00  0.00    +0.031 A 
ATOM     29  C   UNL     1      -4.786   3.077  23.959  0.00  0.00    +0.040 A 
ATOM     30  C   UNL     1      -5.484   2.929  26.268  0.00  0.00    +0.040 A 
ATOM     31  C   UNL     1      -5.355   3.665  25.090  0.00  0.00    +0.124 A 
ENDBRANCH   1  23
ENDBRANCH   9   1
TORSDOF 6
ENDMDL
MODEL 3
REMARK VINA RESULT:      13.5      2.207      4.303
REMARK  Name = 7674055
REMARK  7 active torsions:
REMARK  status: ('A' for Active; 'I' for Inactive)
REMARK    1  A    between atoms: S_1  and  N_9
REMARK    2  A    between atoms: S_1  and  C_23
REMARK    3  A    between atoms: N_11  and  C_19
REMARK    4  A    between atoms: N_13  and  C_28
REMARK    5  A    between atoms: C_14  and  C_18
REMARK    6  A    between atoms: C_36  and  C_37
REMARK    7  A    between atoms: C_37  and  C_38
REMARK                            x       y       z     vdW  Elec       q    Type
REMARK                         _______ _______ _______ _____ _____    ______ ____
ROOT
ATOM      6  O   UNL     1       1.504   1.056  25.492  0.00  0.00    -0.252 OA
ATOM      9  N   UNL     1      -2.552   3.334  23.697  0.00  0.00    -0.162 NA
ATOM     10  N   UNL     1       0.123   2.478  24.296  0.00  0.00    -0.282 N 
ATOM     13  N   UNL     1       2.170   1.756  23.373  0.00  0.00    -0.269 N 
ATOM     14  C   UNL     1      -2.299   2.482  24.893  0.00  0.00    +0.183 C 
ATOM     15  C   UNL     1      -0.854   2.550  25.384  0.00  0.00    +0.139 C 
ATOM     16  C   UNL     1      -1.398   4.167  23.275  0.00  0.00    +0.129 C 
ATOM     17  C   UNL     1      -0.177   3.273  23.099  0.00  0.00    +0.126 C 
ATOM     22  C   UNL     1       1.299   1.708  24.466  0.00  0.00    +0.307 C 
ATOM     41  H   UNL     1       1.898   2.303  22.563  0.00  0.00    +0.156 HD
ENDROOT
BRANCH  13  28
ATOM     28  C   UNL     1       3.419   1.102  23.228  0.00  0.00    +0.035 A 
ATOM     32  C   UNL     1       4.333   1.105  24.282  0.00  0.00    +0.024 A 
ATOM     33  C   UNL     1       3.734   0.458  22.032  0.00  0.00    +0.024 A 
ATOM     34  C   UNL     1       5.563   0.461  24.139  0.00  0.00    +0.013 A 
ATOM     35  C   UNL     1       4.964  -0.185  21.889  0.00  0.00    +0.013 A 
ATOM     36  C   UNL     1       5.879  -0.183  22.943  0.00  0.00    +0.017 A 
BRANCH  36  37
ATOM      8  O   UNL     1       7.242  -2.005  22.321  0.00  0.00    -0.292 OA
ATOM     37  C   UNL     1       7.160  -0.854  22.796  0.00  0.00    +0.160 C 
ATOM     38  C   UNL     1       8.446  -0.156  23.223  0.00  0.00    +0.091 C 
ENDBRANCH  36  37
ENDBRANCH  13  28
BRANCH  14  18
ATOM      5  O   UNL     1      -2.891   0.841  23.269  0.00  0.00    -0.274 OA
ATOM     11  N   UNL     1      -2.694   0.203  25.499  0.00  0.00    -0.303 N 
ATOM     18  C   UNL     1      -2.653   1.101  24.445  0.00  0.00    +0.234 C 
ATOM     39  H   UNL     1      -2.447   0.523  26.431  0.00  0.00    +0.149 HD
BRANCH  11  19
ATOM      7  O   UNL     1      -0.663  -1.626  25.479  0.00  0.00    -0.274 OA
ATOM     12  N   UNL     1      -1.903  -3.078  24.225  0.00  0.00    -0.314 N 
ATOM     19  C   UNL     1      -3.033  -1.187  25.336  0.00  0.00    +0.159 C 
ATOM     20  C   UNL     1      -4.149  -1.357  24.315  0.00  0.00    +0.033 C 
ATOM     21  C   UNL     1      -4.363  -2.836  24.034  0.00  0.00    +0.021 C 
ATOM     24  C   UNL     1      -1.753  -1.945  24.999  0.00  0.00    +0.233 C 
ATOM     25  C   UNL     1      -3.087  -3.421  23.457  0.00  0.00    +0.104 C 
ATOM     40  H   UNL     1      -1.066  -3.623  24.042  0.00  0.00    +0.149 HD
ENDBRANCH  11  19
ENDBRANCH  14  18
BRANCH   9   1
ATOM      1  S   UNL     1      -4.092   4.069  23.589  0.00  0.00    +0.062 S 
ATOM      3  O   UNL     1      -4.661   3.787  22.288  0.00  0.00    -0.153 OA
ATOM      4  O   UNL     1      -4.002   5.426  24.085  0.00  0.00    -0.153 OA
BRANCH   1  23
ATOM      2  F   UNL     1      -7.042   0.878  27.571  0.00  0.00    -0.205 F 
ATOM     23  C   UNL     1      -4.975   3.113  24.782  0.00  0.00    +0.106 A 
ATOM     26  C   UNL     1      -5.712   2.000  24.376  0.00  0.00    +0.031 A 
ATOM     27  C   UNL     1      -4.937   3.471  26.130  0.00  0.00    +0.031 A 
ATOM     29  C   UNL     1      -6.410   1.245  25.319  0.00  0.00    +0.040 A 
ATOM     30  C   UNL     1      -5.635   2.716  27.072  0.00  0.00    +0.040 A 
ATOM     31  C   UNL     1      -6.371   1.602  26.667  0.00  0.00    +0.124 A 
ENDBRANCH   1  23
ENDBRANCH   9   1
TORSDOF 6
ENDMDL
