MODEL 1
REMARK VINA RESULT:      -4.6      0.000      0.000
REMARK  Name = 11883361
REMARK  6 active torsions:
REMARK  status: ('A' for Active; 'I' for Inactive)
REMARK    1  A    between atoms: S_1  and  N_8
REMARK    2  A    between atoms: S_1  and  C_23
REMARK    3  A    between atoms: O_4  and  C_13
REMARK    4  A    between atoms: O_4  and  C_22
REMARK    5  A    between atoms: N_8  and  C_12
REMARK    6  A    between atoms: N_9  and  C_16
REMARK                            x       y       z     vdW  Elec       q    Type
REMARK                         _______ _______ _______ _____ _____    ______ ____
ROOT
ATOM      2  O   UNL     1      -1.925   2.196  25.456  0.00  0.00    -0.369 OA
ATOM      3  O   UNL     1      -1.534   5.152  24.704  0.00  0.00    -0.368 OA
ATOM     10  C   UNL     1      -2.435   4.144  24.201  0.00  0.00    +0.171 C 
ATOM     11  C   UNL     1      -1.671   2.834  24.195  0.00  0.00    +0.191 C 
ATOM     12  C   UNL     1      -3.548   3.910  25.192  0.00  0.00    +0.133 C 
ATOM     13  C   UNL     1      -0.237   3.292  24.078  0.00  0.00    +0.235 C 
ATOM     14  C   UNL     1      -2.929   2.933  26.172  0.00  0.00    +0.183 C 
ATOM     15  C   UNL     1      -0.240   4.562  24.898  0.00  0.00    +0.207 C 
ENDROOT
BRANCH  12   8
ATOM      8  N   UNL     1      -4.705   3.277  24.515  0.00  0.00    -0.182 NA
ATOM     33  H   UNL     1      -5.086   3.744  23.683  0.00  0.00    +0.148 HD
BRANCH   8   1
ATOM      1  S   UNL     1      -5.600   2.077  25.316  0.00  0.00    +0.059 S 
ATOM      5  O   UNL     1      -6.890   1.925  24.671  0.00  0.00    -0.153 OA
ATOM      6  O   UNL     1      -5.522   2.313  26.745  0.00  0.00    -0.153 OA
BRANCH   1  23
ATOM     23  C   UNL     1      -4.649   0.626  24.981  0.00  0.00    +0.106 A 
ATOM     24  C   UNL     1      -3.401   0.486  25.564  0.00  0.00    +0.037 A 
ATOM     25  C   UNL     1      -5.168  -0.341  24.141  0.00  0.00    +0.029 A 
ATOM     26  C   UNL     1      -2.633  -0.661  25.308  0.00  0.00    -0.016 A 
ATOM     27  C   UNL     1      -4.417  -1.487  23.875  0.00  0.00    +0.010 A 
ATOM     28  C   UNL     1      -3.148  -1.662  24.450  0.00  0.00    -0.018 A 
ATOM     29  C   UNL     1      -1.363  -0.837  25.882  0.00  0.00    +0.008 A 
ATOM     30  C   UNL     1      -2.379  -2.809  24.193  0.00  0.00    +0.008 A 
ATOM     31  C   UNL     1      -0.613  -1.982  25.616  0.00  0.00    +0.001 A 
ATOM     32  C   UNL     1      -1.120  -2.967  24.772  0.00  0.00    +0.001 A 
ENDBRANCH   1  23
ENDBRANCH   8   1
ENDBRANCH  12   8
BRANCH  13   4
ATOM      4  O   UNL     1       0.695   2.351  24.561  0.00  0.00    -0.442 OA
BRANCH   4  22
ATOM      7  O   UNL     1       0.329   0.472  23.290  0.00  0.00    -0.226 OA
ATOM      9  N   UNL     1       2.404   1.510  23.335  0.00  0.00    -0.278 N 
ATOM     22  C   UNL     1       1.079   1.358  23.688  0.00  0.00    +0.401 C 
ATOM     34  H   UNL     1       2.920   2.265  23.777  0.00  0.00    +0.152 HD
BRANCH   9  16
ATOM     16  C   UNL     1       3.102   0.623  22.432  0.00  0.00    +0.076 C 
ATOM     17  C   UNL     1       4.600   0.940  22.397  0.00  0.00    +0.022 C 
ATOM     18  C   UNL     1       2.852  -0.844  22.797  0.00  0.00    +0.022 C 
ATOM     19  C   UNL     1       5.316   0.523  23.682  0.00  0.00    +0.002 C 
ATOM     20  C   UNL     1       3.571  -1.257  24.081  0.00  0.00    +0.002 C 
ATOM     21  C   UNL     1       5.062  -0.943  24.018  0.00  0.00    +0.000 C 
ENDBRANCH   9  16
ENDBRANCH   4  22
ENDBRANCH  13   4
TORSDOF 6
ENDMDL
MODEL 2
REMARK VINA RESULT:      -4.2      1.234      1.393
REMARK  Name = 11883361
REMARK  6 active torsions:
REMARK  status: ('A' for Active; 'I' for Inactive)
REMARK    1  A    between atoms: S_1  and  N_8
REMARK    2  A    between atoms: S_1  and  C_23
REMARK    3  A    between atoms: O_4  and  C_13
REMARK    4  A    between atoms: O_4  and  C_22
REMARK    5  A    between atoms: N_8  and  C_12
REMARK    6  A    between atoms: N_9  and  C_16
REMARK                            x       y       z     vdW  Elec       q    Type
REMARK                         _______ _______ _______ _____ _____    ______ ____
ROOT
ATOM      2  O   UNL     1      -1.289   2.593  26.487  0.00  0.00    -0.369 OA
ATOM      3  O   UNL     1      -1.234   5.115  24.729  0.00  0.00    -0.368 OA
ATOM     10  C   UNL     1      -2.266   4.137  24.974  0.00  0.00    +0.171 C 
ATOM     11  C   UNL     1      -1.577   2.792  25.094  0.00  0.00    +0.191 C 
ATOM     12  C   UNL     1      -2.870   4.359  26.338  0.00  0.00    +0.133 C 
ATOM     13  C   UNL     1      -0.319   2.994  24.285  0.00  0.00    +0.235 C 
ATOM     14  C   UNL     1      -1.905   3.637  27.257  0.00  0.00    +0.183 C 
ATOM     15  C   UNL     1       0.022   4.437  24.582  0.00  0.00    +0.207 C 
ENDROOT
BRANCH  12   8
ATOM      8  N   UNL     1      -4.206   3.719  26.412  0.00  0.00    -0.182 NA
ATOM     33  H   UNL     1      -4.493   3.316  27.312  0.00  0.00    +0.148 HD
BRANCH   8   1
ATOM      1  S   UNL     1      -5.029   3.315  24.984  0.00  0.00    +0.059 S 
ATOM      5  O   UNL     1      -4.666   4.250  23.936  0.00  0.00    -0.153 OA
ATOM      6  O   UNL     1      -6.424   3.078  25.300  0.00  0.00    -0.153 OA
BRANCH   1  23
ATOM     23  C   UNL     1      -4.318   1.747  24.584  0.00  0.00    +0.106 A 
ATOM     24  C   UNL     1      -4.313   0.744  25.538  0.00  0.00    +0.037 A 
ATOM     25  C   UNL     1      -3.780   1.552  23.326  0.00  0.00    +0.029 A 
ATOM     26  C   UNL     1      -3.752  -0.507  25.236  0.00  0.00    -0.016 A 
ATOM     27  C   UNL     1      -3.219   0.315  23.010  0.00  0.00    +0.010 A 
ATOM     28  C   UNL     1      -3.196  -0.725  23.953  0.00  0.00    -0.018 A 
ATOM     29  C   UNL     1      -3.729  -1.547  26.180  0.00  0.00    +0.008 A 
ATOM     30  C   UNL     1      -2.634  -1.977  23.651  0.00  0.00    +0.008 A 
ATOM     31  C   UNL     1      -3.167  -2.784  25.863  0.00  0.00    +0.001 A 
ATOM     32  C   UNL     1      -2.620  -2.999  24.601  0.00  0.00    +0.001 A 
ENDBRANCH   1  23
ENDBRANCH   8   1
ENDBRANCH  12   8
BRANCH  13   4
ATOM      4  O   UNL     1       0.727   2.118  24.642  0.00  0.00    -0.442 OA
BRANCH   4  22
ATOM      7  O   UNL     1       0.370   0.399  23.160  0.00  0.00    -0.226 OA
ATOM      9  N   UNL     1       2.470   1.351  23.418  0.00  0.00    -0.278 N 
ATOM     22  C   UNL     1       1.125   1.211  23.687  0.00  0.00    +0.401 C 
ATOM     34  H   UNL     1       2.986   2.036  23.962  0.00  0.00    +0.152 HD
BRANCH   9  16
ATOM     16  C   UNL     1       3.187   0.540  22.459  0.00  0.00    +0.076 C 
ATOM     17  C   UNL     1       4.668   0.929  22.406  0.00  0.00    +0.022 C 
ATOM     18  C   UNL     1       3.014  -0.952  22.760  0.00  0.00    +0.022 C 
ATOM     19  C   UNL     1       5.433   0.488  23.655  0.00  0.00    +0.002 C 
ATOM     20  C   UNL     1       3.782  -1.389  24.008  0.00  0.00    +0.002 C 
ATOM     21  C   UNL     1       5.255  -1.002  23.927  0.00  0.00    +0.000 C 
ENDBRANCH   9  16
ENDBRANCH   4  22
ENDBRANCH  13   4
TORSDOF 6
ENDMDL
MODEL 3
REMARK VINA RESULT:      -2.0      1.887      4.214
REMARK  Name = 11883361
REMARK  6 active torsions:
REMARK  status: ('A' for Active; 'I' for Inactive)
REMARK    1  A    between atoms: S_1  and  N_8
REMARK    2  A    between atoms: S_1  and  C_23
REMARK    3  A    between atoms: O_4  and  C_13
REMARK    4  A    between atoms: O_4  and  C_22
REMARK    5  A    between atoms: N_8  and  C_12
REMARK    6  A    between atoms: N_9  and  C_16
REMARK                            x       y       z     vdW  Elec       q    Type
REMARK                         _______ _______ _______ _____ _____    ______ ____
ROOT
ATOM      2  O   UNL     1      -2.446  -1.660  23.825  0.00  0.00    -0.369 OA
ATOM      3  O   UNL     1      -1.972  -0.520  26.642  0.00  0.00    -0.368 OA
ATOM     10  C   UNL     1      -2.729  -0.022  25.519  0.00  0.00    +0.171 C 
ATOM     11  C   UNL     1      -1.952  -0.386  24.269  0.00  0.00    +0.191 C 
ATOM     12  C   UNL     1      -4.017  -0.797  25.385  0.00  0.00    +0.133 C 
ATOM     13  C   UNL     1      -0.535  -0.482  24.780  0.00  0.00    +0.235 C 
ATOM     14  C   UNL     1      -3.591  -2.028  24.610  0.00  0.00    +0.183 C 
ATOM     15  C   UNL     1      -0.734  -1.063  26.162  0.00  0.00    +0.207 C 
ENDROOT
BRANCH  12   8
ATOM      8  N   UNL     1      -4.996  -0.017  24.589  0.00  0.00    -0.182 NA
ATOM     33  H   UNL     1      -4.999  -0.152  23.571  0.00  0.00    +0.148 HD
BRANCH   8   1
ATOM      1  S   UNL     1      -5.776   1.320  25.285  0.00  0.00    +0.059 S 
ATOM      5  O   UNL     1      -6.103   1.024  26.667  0.00  0.00    -0.153 OA
ATOM      6  O   UNL     1      -6.806   1.785  24.375  0.00  0.00    -0.153 OA
BRANCH   1  23
ATOM     23  C   UNL     1      -4.494   2.536  25.277  0.00  0.00    +0.106 A 
ATOM     24  C   UNL     1      -3.361   2.319  24.512  0.00  0.00    +0.037 A 
ATOM     25  C   UNL     1      -4.647   3.680  26.036  0.00  0.00    +0.029 A 
ATOM     26  C   UNL     1      -2.333   3.275  24.495  0.00  0.00    -0.016 A 
ATOM     27  C   UNL     1      -3.634   4.641  26.031  0.00  0.00    +0.010 A 
ATOM     28  C   UNL     1      -2.471   4.454  25.266  0.00  0.00    -0.018 A 
ATOM     29  C   UNL     1      -1.170   3.088  23.731  0.00  0.00    +0.008 A 
ATOM     30  C   UNL     1      -1.443   5.411  25.250  0.00  0.00    +0.008 A 
ATOM     31  C   UNL     1      -0.158   4.048  23.726  0.00  0.00    +0.001 A 
ATOM     32  C   UNL     1      -0.294   5.208  24.485  0.00  0.00    +0.001 A 
ENDBRANCH   1  23
ENDBRANCH   8   1
ENDBRANCH  12   8
BRANCH  13   4
ATOM      4  O   UNL     1       0.298  -1.291  23.980  0.00  0.00    -0.442 OA
BRANCH   4  22
ATOM      7  O   UNL     1       0.598   0.025  22.121  0.00  0.00    -0.226 OA
ATOM      9  N   UNL     1       2.406  -0.858  23.276  0.00  0.00    -0.278 N 
ATOM     22  C   UNL     1       1.065  -0.644  23.037  0.00  0.00    +0.401 C 
ATOM     34  H   UNL     1       2.651  -1.472  24.046  0.00  0.00    +0.152 HD
BRANCH   9  16
ATOM     16  C   UNL     1       3.465  -0.310  22.457  0.00  0.00    +0.076 C 
ATOM     17  C   UNL     1       3.727   1.158  22.806  0.00  0.00    +0.022 C 
ATOM     18  C   UNL     1       4.743  -1.146  22.576  0.00  0.00    +0.022 C 
ATOM     19  C   UNL     1       4.414   1.324  24.162  0.00  0.00    +0.002 C 
ATOM     20  C   UNL     1       5.428  -0.977  23.933  0.00  0.00    +0.002 C 
ATOM     21  C   UNL     1       5.689   0.491  24.253  0.00  0.00    +0.000 C 
ENDBRANCH   9  16
ENDBRANCH   4  22
ENDBRANCH  13   4
TORSDOF 6
ENDMDL
