MODEL 1
REMARK VINA RESULT:      -5.0      0.000      0.000
REMARK  Name = 75367798
REMARK  7 active torsions:
REMARK  status: ('A' for Active; 'I' for Inactive)
REMARK    1  A    between atoms: O_2  and  C_6
REMARK    2  A    between atoms: O_2  and  C_12
REMARK    3  A    between atoms: O_3  and  C_18
REMARK    4  A    between atoms: O_3  and  C_24
REMARK    5  A    between atoms: N_4  and  C_9
REMARK    6  A    between atoms: C_9  and  C_11
REMARK    7  A    between atoms: C_12  and  C_15
REMARK                            x       y       z     vdW  Elec       q    Type
REMARK                         _______ _______ _______ _____ _____    ______ ____
ROOT
ATOM      1  O   UNL     1      -1.807  -9.900  13.283  0.00  0.00    -0.376 OA
ATOM      4  N   UNL     1      -3.587 -10.738  10.862  0.00  0.00    -0.293 NA
ATOM      5  C   UNL     1      -4.619 -10.711  11.905  0.00  0.00    +0.118 C 
ATOM      6  C   UNL     1      -4.198 -10.276  13.318  0.00  0.00    +0.158 C 
ATOM      7  C   UNL     1      -2.605  -9.656  10.956  0.00  0.00    +0.113 C 
ATOM      8  C   UNL     1      -2.827 -10.778  13.748  0.00  0.00    +0.192 C 
ATOM     10  C   UNL     1      -1.478 -10.057  11.909  0.00  0.00    +0.175 C 
ENDROOT
BRANCH   6   2
ATOM      2  O   UNL     1      -5.163 -10.781  14.243  0.00  0.00    -0.368 OA
BRANCH   2  12
ATOM     12  C   UNL     1      -5.963  -9.737  14.774  0.00  0.00    +0.195 C 
BRANCH  12  15
ATOM     15  C   UNL     1      -6.182  -9.983  16.238  0.00  0.00    -0.022 A 
ATOM     19  C   UNL     1      -5.113 -10.360  17.050  0.00  0.00    +0.006 A 
ATOM     20  C   UNL     1      -7.456  -9.833  16.787  0.00  0.00    +0.006 A 
ATOM     21  C   UNL     1      -5.317 -10.588  18.411  0.00  0.00    +0.000 A 
ATOM     22  C   UNL     1      -7.660 -10.061  18.147  0.00  0.00    +0.000 A 
ATOM     23  C   UNL     1      -6.590 -10.438  18.960  0.00  0.00    +0.000 A 
ENDBRANCH  12  15
ENDBRANCH   2  12
ENDBRANCH   6   2
BRANCH   4   9
ATOM      9  C   UNL     1      -4.210 -10.781   9.539  0.00  0.00    +0.119 C 
BRANCH   9  11
ATOM     11  C   UNL     1      -5.514 -10.030   9.510  0.00  0.00    -0.033 A 
ATOM     13  C   UNL     1      -6.720 -10.720   9.642  0.00  0.00    +0.008 A 
ATOM     14  C   UNL     1      -5.518  -8.644   9.348  0.00  0.00    +0.008 A 
ATOM     16  C   UNL     1      -7.929 -10.024   9.614  0.00  0.00    +0.046 A 
ATOM     17  C   UNL     1      -6.727  -7.949   9.320  0.00  0.00    +0.046 A 
ATOM     18  C   UNL     1      -7.933  -8.639   9.453  0.00  0.00    +0.120 A 
BRANCH  18   3
ATOM      3  O   UNL     1      -9.111  -7.960   9.425  0.00  0.00    -0.495 OA
ATOM     24  C   UNL     1      -9.786  -7.885   8.170  0.00  0.00    +0.277 C 
ENDBRANCH  18   3
ENDBRANCH   9  11
ENDBRANCH   4   9
TORSDOF 6
ENDMDL
MODEL 2
REMARK VINA RESULT:      -4.8     25.741     27.025
REMARK  Name = 75367798
REMARK  7 active torsions:
REMARK  status: ('A' for Active; 'I' for Inactive)
REMARK    1  A    between atoms: O_2  and  C_6
REMARK    2  A    between atoms: O_2  and  C_12
REMARK    3  A    between atoms: O_3  and  C_18
REMARK    4  A    between atoms: O_3  and  C_24
REMARK    5  A    between atoms: N_4  and  C_9
REMARK    6  A    between atoms: C_9  and  C_11
REMARK    7  A    between atoms: C_12  and  C_15
REMARK                            x       y       z     vdW  Elec       q    Type
REMARK                         _______ _______ _______ _____ _____    ______ ____
ROOT
ATOM      1  O   UNL     1      16.058  -9.157  25.350  0.00  0.00    -0.376 OA
ATOM      4  N   UNL     1      16.714  -7.836  28.098  0.00  0.00    -0.293 NA
ATOM      5  C   UNL     1      16.834  -6.651  27.241  0.00  0.00    +0.118 C 
ATOM      6  C   UNL     1      16.529  -6.816  25.743  0.00  0.00    +0.158 C 
ATOM      7  C   UNL     1      15.610  -8.729  27.742  0.00  0.00    +0.113 C 
ATOM      8  C   UNL     1      17.018  -8.126  25.143  0.00  0.00    +0.192 C 
ATOM     10  C   UNL     1      16.061  -9.710  26.659  0.00  0.00    +0.175 C 
ENDROOT
BRANCH   6   2
ATOM      2  O   UNL     1      17.163  -5.745  25.041  0.00  0.00    -0.368 OA
BRANCH   2  12
ATOM     12  C   UNL     1      17.197  -4.564  25.825  0.00  0.00    +0.195 C 
BRANCH  12  15
ATOM     15  C   UNL     1      17.214  -3.371  24.915  0.00  0.00    -0.022 A 
ATOM     19  C   UNL     1      17.390  -3.543  23.543  0.00  0.00    +0.006 A 
ATOM     20  C   UNL     1      17.051  -2.090  25.442  0.00  0.00    +0.006 A 
ATOM     21  C   UNL     1      17.405  -2.434  22.697  0.00  0.00    +0.000 A 
ATOM     22  C   UNL     1      17.066  -0.981  24.597  0.00  0.00    +0.000 A 
ATOM     23  C   UNL     1      17.242  -1.153  23.223  0.00  0.00    +0.000 A 
ENDBRANCH  12  15
ENDBRANCH   2  12
ENDBRANCH   6   2
BRANCH   4   9
ATOM      9  C   UNL     1      16.646  -7.435  29.503  0.00  0.00    +0.119 C 
BRANCH   9  11
ATOM     11  C   UNL     1      15.232  -7.438  30.019  0.00  0.00    -0.033 A 
ATOM     13  C   UNL     1      14.438  -6.299  29.881  0.00  0.00    +0.008 A 
ATOM     14  C   UNL     1      14.716  -8.578  30.636  0.00  0.00    +0.008 A 
ATOM     16  C   UNL     1      13.127  -6.300  30.360  0.00  0.00    +0.046 A 
ATOM     17  C   UNL     1      13.405  -8.578  31.114  0.00  0.00    +0.046 A 
ATOM     18  C   UNL     1      12.611  -7.440  30.976  0.00  0.00    +0.120 A 
BRANCH  18   3
ATOM      3  O   UNL     1      11.333  -7.442  31.443  0.00  0.00    -0.495 OA
ATOM     24  C   UNL     1      11.078  -6.701  32.636  0.00  0.00    +0.277 C 
ENDBRANCH  18   3
ENDBRANCH   9  11
ENDBRANCH   4   9
TORSDOF 6
ENDMDL
MODEL 3
REMARK VINA RESULT:      -4.6     14.290     16.972
REMARK  Name = 75367798
REMARK  7 active torsions:
REMARK  status: ('A' for Active; 'I' for Inactive)
REMARK    1  A    between atoms: O_2  and  C_6
REMARK    2  A    between atoms: O_2  and  C_12
REMARK    3  A    between atoms: O_3  and  C_18
REMARK    4  A    between atoms: O_3  and  C_24
REMARK    5  A    between atoms: N_4  and  C_9
REMARK    6  A    between atoms: C_9  and  C_11
REMARK    7  A    between atoms: C_12  and  C_15
REMARK                            x       y       z     vdW  Elec       q    Type
REMARK                         _______ _______ _______ _____ _____    ______ ____
ROOT
ATOM      1  O   UNL     1       1.549  -0.804  23.214  0.00  0.00    -0.376 OA
ATOM      4  N   UNL     1      -0.081   1.747  23.969  0.00  0.00    -0.293 NA
ATOM      5  C   UNL     1      -0.439   0.901  25.113  0.00  0.00    +0.118 C 
ATOM      6  C   UNL     1       0.202  -0.494  25.202  0.00  0.00    +0.158 C 
ATOM      7  C   UNL     1       1.317   1.634  23.550  0.00  0.00    +0.113 C 
ATOM      8  C   UNL     1       0.347  -1.205  23.864  0.00  0.00    +0.192 C 
ATOM     10  C   UNL     1       1.477   0.464  22.577  0.00  0.00    +0.175 C 
ENDROOT
BRANCH   6   2
ATOM      2  O   UNL     1      -0.616  -1.305  26.047  0.00  0.00    -0.368 OA
BRANCH   2  12
ATOM     12  C   UNL     1      -1.869  -0.689  26.296  0.00  0.00    +0.195 C 
BRANCH  12  15
ATOM     15  C   UNL     1      -2.886  -1.244  25.342  0.00  0.00    -0.022 A 
ATOM     19  C   UNL     1      -3.870  -0.412  24.809  0.00  0.00    +0.006 A 
ATOM     20  C   UNL     1      -2.846  -2.592  24.987  0.00  0.00    +0.006 A 
ATOM     21  C   UNL     1      -4.814  -0.928  23.921  0.00  0.00    +0.000 A 
ATOM     22  C   UNL     1      -3.789  -3.108  24.100  0.00  0.00    +0.000 A 
ATOM     23  C   UNL     1      -4.774  -2.276  23.566  0.00  0.00    +0.000 A 
ENDBRANCH  12  15
ENDBRANCH   2  12
ENDBRANCH   6   2
BRANCH   4   9
ATOM      9  C   UNL     1      -0.448   3.137  24.238  0.00  0.00    +0.119 C 
BRANCH   9  11
ATOM     11  C   UNL     1      -1.888   3.265  24.657  0.00  0.00    -0.033 A 
ATOM     13  C   UNL     1      -2.208   3.843  25.886  0.00  0.00    +0.008 A 
ATOM     14  C   UNL     1      -2.903   2.805  23.817  0.00  0.00    +0.008 A 
ATOM     16  C   UNL     1      -3.543   3.960  26.276  0.00  0.00    +0.046 A 
ATOM     17  C   UNL     1      -4.238   2.923  24.207  0.00  0.00    +0.046 A 
ATOM     18  C   UNL     1      -4.558   3.501  25.436  0.00  0.00    +0.120 A 
BRANCH  18   3
ATOM      3  O   UNL     1      -5.859   3.616  25.814  0.00  0.00    -0.495 OA
ATOM     24  C   UNL     1      -6.549   2.409  26.137  0.00  0.00    +0.277 C 
ENDBRANCH  18   3
ENDBRANCH   9  11
ENDBRANCH   4   9
TORSDOF 6
ENDMDL
MODEL 4
REMARK VINA RESULT:      -4.5     14.532     17.466
REMARK  Name = 75367798
REMARK  7 active torsions:
REMARK  status: ('A' for Active; 'I' for Inactive)
REMARK    1  A    between atoms: O_2  and  C_6
REMARK    2  A    between atoms: O_2  and  C_12
REMARK    3  A    between atoms: O_3  and  C_18
REMARK    4  A    between atoms: O_3  and  C_24
REMARK    5  A    between atoms: N_4  and  C_9
REMARK    6  A    between atoms: C_9  and  C_11
REMARK    7  A    between atoms: C_12  and  C_15
REMARK                            x       y       z     vdW  Elec       q    Type
REMARK                         _______ _______ _______ _____ _____    ______ ____
ROOT
ATOM      1  O   UNL     1      -3.439  -3.335  24.268  0.00  0.00    -0.376 OA
ATOM      4  N   UNL     1      -1.254  -1.121  24.497  0.00  0.00    -0.293 NA
ATOM      5  C   UNL     1      -2.311  -0.479  25.286  0.00  0.00    +0.118 C 
ATOM      6  C   UNL     1      -3.617  -1.261  25.504  0.00  0.00    +0.158 C 
ATOM      7  C   UNL     1      -1.133  -2.564  24.711  0.00  0.00    +0.113 C 
ATOM      8  C   UNL     1      -4.079  -2.063  24.296  0.00  0.00    +0.192 C 
ATOM     10  C   UNL     1      -2.101  -3.310  23.791  0.00  0.00    +0.175 C 
ENDROOT
BRANCH   6   2
ATOM      2  O   UNL     1      -4.645  -0.324  25.831  0.00  0.00    -0.368 OA
BRANCH   2  12
ATOM     12  C   UNL     1      -5.198   0.263  24.664  0.00  0.00    +0.195 C 
BRANCH  12  15
ATOM     15  C   UNL     1      -5.006   1.749  24.725  0.00  0.00    -0.022 A 
ATOM     19  C   UNL     1      -4.145   2.380  23.827  0.00  0.00    +0.006 A 
ATOM     20  C   UNL     1      -5.690   2.502  25.679  0.00  0.00    +0.006 A 
ATOM     21  C   UNL     1      -3.968   3.762  23.883  0.00  0.00    +0.000 A 
ATOM     22  C   UNL     1      -5.514   3.884  25.735  0.00  0.00    +0.000 A 
ATOM     23  C   UNL     1      -4.652   4.515  24.837  0.00  0.00    +0.000 A 
ENDBRANCH  12  15
ENDBRANCH   2  12
ENDBRANCH   6   2
BRANCH   4   9
ATOM      9  C   UNL     1       0.022  -0.439  24.718  0.00  0.00    +0.119 C 
BRANCH   9  11
ATOM     11  C   UNL     1      -0.141   1.057  24.749  0.00  0.00    -0.033 A 
ATOM     13  C   UNL     1      -0.181   1.778  23.555  0.00  0.00    +0.008 A 
ATOM     14  C   UNL     1      -0.249   1.723  25.970  0.00  0.00    +0.008 A 
ATOM     16  C   UNL     1      -0.331   3.165  23.582  0.00  0.00    +0.046 A 
ATOM     17  C   UNL     1      -0.399   3.109  25.997  0.00  0.00    +0.046 A 
ATOM     18  C   UNL     1      -0.440   3.831  24.803  0.00  0.00    +0.120 A 
BRANCH  18   3
ATOM      3  O   UNL     1      -0.586   5.183  24.831  0.00  0.00    -0.495 OA
ATOM     24  C   UNL     1      -1.837   5.691  25.295  0.00  0.00    +0.277 C 
ENDBRANCH  18   3
ENDBRANCH   9  11
ENDBRANCH   4   9
TORSDOF 6
ENDMDL
MODEL 5
REMARK VINA RESULT:      -4.2     14.919     17.703
REMARK  Name = 75367798
REMARK  7 active torsions:
REMARK  status: ('A' for Active; 'I' for Inactive)
REMARK    1  A    between atoms: O_2  and  C_6
REMARK    2  A    between atoms: O_2  and  C_12
REMARK    3  A    between atoms: O_3  and  C_18
REMARK    4  A    between atoms: O_3  and  C_24
REMARK    5  A    between atoms: N_4  and  C_9
REMARK    6  A    between atoms: C_9  and  C_11
REMARK    7  A    between atoms: C_12  and  C_15
REMARK                            x       y       z     vdW  Elec       q    Type
REMARK                         _______ _______ _______ _____ _____    ______ ____
ROOT
ATOM      1  O   UNL     1      -0.307  -2.291  25.029  0.00  0.00    -0.376 OA
ATOM      4  N   UNL     1      -3.012  -0.821  24.525  0.00  0.00    -0.293 NA
ATOM      5  C   UNL     1      -2.097   0.200  24.001  0.00  0.00    +0.118 C 
ATOM      6  C   UNL     1      -0.594  -0.123  23.991  0.00  0.00    +0.158 C 
ATOM      7  C   UNL     1      -2.632  -2.196  24.197  0.00  0.00    +0.113 C 
ATOM      8  C   UNL     1      -0.108  -0.893  25.211  0.00  0.00    +0.192 C 
ATOM     10  C   UNL     1      -1.644  -2.727  25.237  0.00  0.00    +0.175 C 
ENDROOT
BRANCH   6   2
ATOM      2  O   UNL     1       0.124   1.111  23.933  0.00  0.00    -0.368 OA
BRANCH   2  12
ATOM     12  C   UNL     1       0.253   1.693  25.220  0.00  0.00    +0.195 C 
BRANCH  12  15
ATOM     15  C   UNL     1      -0.543   2.964  25.267  0.00  0.00    -0.022 A 
ATOM     19  C   UNL     1      -1.648   3.065  26.111  0.00  0.00    +0.006 A 
ATOM     20  C   UNL     1      -0.176   4.045  24.466  0.00  0.00    +0.006 A 
ATOM     21  C   UNL     1      -2.388   4.247  26.154  0.00  0.00    +0.000 A 
ATOM     22  C   UNL     1      -0.914   5.227  24.509  0.00  0.00    +0.000 A 
ATOM     23  C   UNL     1      -2.021   5.328  25.353  0.00  0.00    +0.000 A 
ENDBRANCH  12  15
ENDBRANCH   2  12
ENDBRANCH   6   2
BRANCH   4   9
ATOM      9  C   UNL     1      -4.383  -0.530  24.105  0.00  0.00    +0.119 C 
BRANCH   9  11
ATOM     11  C   UNL     1      -4.857   0.801  24.625  0.00  0.00    -0.033 A 
ATOM     13  C   UNL     1      -4.529   1.973  23.943  0.00  0.00    +0.008 A 
ATOM     14  C   UNL     1      -5.623   0.863  25.790  0.00  0.00    +0.008 A 
ATOM     16  C   UNL     1      -4.967   3.207  24.425  0.00  0.00    +0.046 A 
ATOM     17  C   UNL     1      -6.061   2.097  26.271  0.00  0.00    +0.046 A 
ATOM     18  C   UNL     1      -5.734   3.269  25.589  0.00  0.00    +0.120 A 
BRANCH  18   3
ATOM      3  O   UNL     1      -6.161   4.471  26.060  0.00  0.00    -0.495 OA
ATOM     24  C   UNL     1      -6.094   5.580  25.163  0.00  0.00    +0.277 C 
ENDBRANCH  18   3
ENDBRANCH   9  11
ENDBRANCH   4   9
TORSDOF 6
ENDMDL
MODEL 6
REMARK VINA RESULT:      -4.1      1.660      2.565
REMARK  Name = 75367798
REMARK  7 active torsions:
REMARK  status: ('A' for Active; 'I' for Inactive)
REMARK    1  A    between atoms: O_2  and  C_6
REMARK    2  A    between atoms: O_2  and  C_12
REMARK    3  A    between atoms: O_3  and  C_18
REMARK    4  A    between atoms: O_3  and  C_24
REMARK    5  A    between atoms: N_4  and  C_9
REMARK    6  A    between atoms: C_9  and  C_11
REMARK    7  A    between atoms: C_12  and  C_15
REMARK                            x       y       z     vdW  Elec       q    Type
REMARK                         _______ _______ _______ _____ _____    ______ ____
ROOT
ATOM      1  O   UNL     1      -1.704  -9.900  15.984  0.00  0.00    -0.376 OA
ATOM      4  N   UNL     1      -2.420 -10.737  13.066  0.00  0.00    -0.293 NA
ATOM      5  C   UNL     1      -3.773 -10.710  13.634  0.00  0.00    +0.118 C 
ATOM      6  C   UNL     1      -3.926 -10.276  15.101  0.00  0.00    +0.158 C 
ATOM      7  C   UNL     1      -1.550  -9.655  13.530  0.00  0.00    +0.113 C 
ATOM      8  C   UNL     1      -2.824 -10.778  16.023  0.00  0.00    +0.192 C 
ATOM     10  C   UNL     1      -0.873 -10.056  14.842  0.00  0.00    +0.175 C 
ENDROOT
BRANCH   6   2
ATOM      2  O   UNL     1      -5.171 -10.781  15.585  0.00  0.00    -0.368 OA
BRANCH   2  12
ATOM     12  C   UNL     1      -6.252 -10.354  14.772  0.00  0.00    +0.195 C 
BRANCH  12  15
ATOM     15  C   UNL     1      -7.361  -9.856  15.651  0.00  0.00    -0.022 A 
ATOM     19  C   UNL     1      -7.144  -9.683  17.018  0.00  0.00    +0.006 A 
ATOM     20  C   UNL     1      -8.608  -9.563  15.101  0.00  0.00    +0.006 A 
ATOM     21  C   UNL     1      -8.175  -9.219  17.835  0.00  0.00    +0.000 A 
ATOM     22  C   UNL     1      -9.639  -9.099  15.918  0.00  0.00    +0.000 A 
ATOM     23  C   UNL     1      -9.422  -8.927  17.286  0.00  0.00    +0.000 A 
ENDBRANCH  12  15
ENDBRANCH   2  12
ENDBRANCH   6   2
BRANCH   4   9
ATOM      9  C   UNL     1      -2.489 -10.779  11.605  0.00  0.00    +0.119 C 
BRANCH   9  11
ATOM     11  C   UNL     1      -3.717 -10.083  11.082  0.00  0.00    -0.033 A 
ATOM     13  C   UNL     1      -3.602  -8.839  10.461  0.00  0.00    +0.008 A 
ATOM     14  C   UNL     1      -4.970 -10.681  11.220  0.00  0.00    +0.008 A 
ATOM     16  C   UNL     1      -4.740  -8.193   9.977  0.00  0.00    +0.046 A 
ATOM     17  C   UNL     1      -6.108 -10.035  10.735  0.00  0.00    +0.046 A 
ATOM     18  C   UNL     1      -5.993  -8.791  10.113  0.00  0.00    +0.120 A 
BRANCH  18   3
ATOM      3  O   UNL     1      -7.103  -8.162   9.641  0.00  0.00    -0.495 OA
ATOM     24  C   UNL     1      -7.427  -8.363   8.266  0.00  0.00    +0.277 C 
ENDBRANCH  18   3
ENDBRANCH   9  11
ENDBRANCH   4   9
TORSDOF 6
ENDMDL
MODEL 7
REMARK VINA RESULT:      -4.0     14.714     17.081
REMARK  Name = 75367798
REMARK  7 active torsions:
REMARK  status: ('A' for Active; 'I' for Inactive)
REMARK    1  A    between atoms: O_2  and  C_6
REMARK    2  A    between atoms: O_2  and  C_12
REMARK    3  A    between atoms: O_3  and  C_18
REMARK    4  A    between atoms: O_3  and  C_24
REMARK    5  A    between atoms: N_4  and  C_9
REMARK    6  A    between atoms: C_9  and  C_11
REMARK    7  A    between atoms: C_12  and  C_15
REMARK                            x       y       z     vdW  Elec       q    Type
REMARK                         _______ _______ _______ _____ _____    ______ ____
ROOT
ATOM      1  O   UNL     1       0.851   2.651  25.150  0.00  0.00    -0.376 OA
ATOM      4  N   UNL     1      -1.687   2.561  23.339  0.00  0.00    -0.293 NA
ATOM      5  C   UNL     1      -1.327   1.140  23.297  0.00  0.00    +0.118 C 
ATOM      6  C   UNL     1      -0.118   0.681  24.129  0.00  0.00    +0.158 C 
ATOM      7  C   UNL     1      -1.508   3.191  24.648  0.00  0.00    +0.113 C 
ATOM      8  C   UNL     1       1.044   1.664  24.141  0.00  0.00    +0.192 C 
ATOM     10  C   UNL     1      -0.066   3.678  24.799  0.00  0.00    +0.175 C 
ENDROOT
BRANCH   6   2
ATOM      2  O   UNL     1       0.353  -0.553  23.584  0.00  0.00    -0.368 OA
BRANCH   2  12
ATOM     12  C   UNL     1       0.201  -1.616  24.510  0.00  0.00    +0.195 C 
BRANCH  12  15
ATOM     15  C   UNL     1      -1.253  -1.776  24.839  0.00  0.00    -0.022 A 
ATOM     19  C   UNL     1      -1.801  -1.101  25.930  0.00  0.00    +0.006 A 
ATOM     20  C   UNL     1      -2.059  -2.599  24.054  0.00  0.00    +0.006 A 
ATOM     21  C   UNL     1      -3.154  -1.249  26.235  0.00  0.00    +0.000 A 
ATOM     22  C   UNL     1      -3.412  -2.748  24.358  0.00  0.00    +0.000 A 
ATOM     23  C   UNL     1      -3.960  -2.072  25.450  0.00  0.00    +0.000 A 
ENDBRANCH  12  15
ENDBRANCH   2  12
ENDBRANCH   6   2
BRANCH   4   9
ATOM      9  C   UNL     1      -3.048   2.751  22.836  0.00  0.00    +0.119 C 
BRANCH   9  11
ATOM     11  C   UNL     1      -4.071   2.646  23.935  0.00  0.00    -0.033 A 
ATOM     13  C   UNL     1      -4.586   1.399  24.291  0.00  0.00    +0.008 A 
ATOM     14  C   UNL     1      -4.505   3.795  24.596  0.00  0.00    +0.008 A 
ATOM     16  C   UNL     1      -5.536   1.302  25.309  0.00  0.00    +0.046 A 
ATOM     17  C   UNL     1      -5.453   3.698  25.614  0.00  0.00    +0.046 A 
ATOM     18  C   UNL     1      -5.969   2.451  25.971  0.00  0.00    +0.120 A 
BRANCH  18   3
ATOM      3  O   UNL     1      -6.894   2.357  26.964  0.00  0.00    -0.495 OA
ATOM     24  C   UNL     1      -6.933   1.135  27.701  0.00  0.00    +0.277 C 
ENDBRANCH  18   3
ENDBRANCH   9  11
ENDBRANCH   4   9
TORSDOF 6
ENDMDL
MODEL 8
REMARK VINA RESULT:      -4.0     14.534     17.502
REMARK  Name = 75367798
REMARK  7 active torsions:
REMARK  status: ('A' for Active; 'I' for Inactive)
REMARK    1  A    between atoms: O_2  and  C_6
REMARK    2  A    between atoms: O_2  and  C_12
REMARK    3  A    between atoms: O_3  and  C_18
REMARK    4  A    between atoms: O_3  and  C_24
REMARK    5  A    between atoms: N_4  and  C_9
REMARK    6  A    between atoms: C_9  and  C_11
REMARK    7  A    between atoms: C_12  and  C_15
REMARK                            x       y       z     vdW  Elec       q    Type
REMARK                         _______ _______ _______ _____ _____    ______ ____
ROOT
ATOM      1  O   UNL     1      -1.923  -3.197  24.105  0.00  0.00    -0.376 OA
ATOM      4  N   UNL     1      -3.345  -0.520  24.838  0.00  0.00    -0.293 NA
ATOM      5  C   UNL     1      -2.040   0.018  24.437  0.00  0.00    +0.118 C 
ATOM      6  C   UNL     1      -0.985  -0.974  23.921  0.00  0.00    +0.158 C 
ATOM      7  C   UNL     1      -3.825  -1.623  24.004  0.00  0.00    +0.113 C 
ATOM      8  C   UNL     1      -0.960  -2.305  24.657  0.00  0.00    +0.192 C 
ATOM     10  C   UNL     1      -3.260  -2.949  24.517  0.00  0.00    +0.175 C 
ENDROOT
BRANCH   6   2
ATOM      2  O   UNL     1       0.301  -0.366  24.064  0.00  0.00    -0.368 OA
BRANCH   2  12
ATOM     12  C   UNL     1       0.961  -0.257  22.813  0.00  0.00    +0.195 C 
BRANCH  12  15
ATOM     15  C   UNL     1       2.442  -0.200  23.044  0.00  0.00    -0.022 A 
ATOM     19  C   UNL     1       3.109  -1.302  23.578  0.00  0.00    +0.006 A 
ATOM     20  C   UNL     1       3.154   0.956  22.722  0.00  0.00    +0.006 A 
ATOM     21  C   UNL     1       4.486  -1.249  23.792  0.00  0.00    +0.000 A 
ATOM     22  C   UNL     1       4.530   1.010  22.935  0.00  0.00    +0.000 A 
ATOM     23  C   UNL     1       5.198  -0.093  23.470  0.00  0.00    +0.000 A 
ENDBRANCH  12  15
ENDBRANCH   2  12
ENDBRANCH   6   2
BRANCH   4   9
ATOM      9  C   UNL     1      -4.330   0.558  24.917  0.00  0.00    +0.119 C 
BRANCH   9  11
ATOM     11  C   UNL     1      -3.676   1.914  24.955  0.00  0.00    -0.033 A 
ATOM     13  C   UNL     1      -2.552   2.122  25.755  0.00  0.00    +0.008 A 
ATOM     14  C   UNL     1      -4.194   2.961  24.193  0.00  0.00    +0.008 A 
ATOM     16  C   UNL     1      -1.945   3.378  25.792  0.00  0.00    +0.046 A 
ATOM     17  C   UNL     1      -3.587   4.216  24.229  0.00  0.00    +0.046 A 
ATOM     18  C   UNL     1      -2.462   4.425  25.028  0.00  0.00    +0.120 A 
BRANCH  18   3
ATOM      3  O   UNL     1      -1.872   5.650  25.063  0.00  0.00    -0.495 OA
ATOM     24  C   UNL     1      -0.489   5.713  24.714  0.00  0.00    +0.277 C 
ENDBRANCH  18   3
ENDBRANCH   9  11
ENDBRANCH   4   9
TORSDOF 6
ENDMDL
MODEL 9
REMARK VINA RESULT:      -3.5     25.754     27.193
REMARK  Name = 75367798
REMARK  7 active torsions:
REMARK  status: ('A' for Active; 'I' for Inactive)
REMARK    1  A    between atoms: O_2  and  C_6
REMARK    2  A    between atoms: O_2  and  C_12
REMARK    3  A    between atoms: O_3  and  C_18
REMARK    4  A    between atoms: O_3  and  C_24
REMARK    5  A    between atoms: N_4  and  C_9
REMARK    6  A    between atoms: C_9  and  C_11
REMARK    7  A    between atoms: C_12  and  C_15
REMARK                            x       y       z     vdW  Elec       q    Type
REMARK                         _______ _______ _______ _____ _____    ______ ____
ROOT
ATOM      1  O   UNL     1      16.630  -7.133  25.340  0.00  0.00    -0.376 OA
ATOM      4  N   UNL     1      16.555  -6.156  28.301  0.00  0.00    -0.293 NA
ATOM      5  C   UNL     1      16.957  -7.549  28.531  0.00  0.00    +0.118 C 
ATOM      6  C   UNL     1      17.184  -8.441  27.300  0.00  0.00    +0.158 C 
ATOM      7  C   UNL     1      17.185  -5.531  27.137  0.00  0.00    +0.113 C 
ATOM      8  C   UNL     1      16.196  -8.210  26.165  0.00  0.00    +0.192 C 
ATOM     10  C   UNL     1      16.377  -5.842  25.876  0.00  0.00    +0.175 C 
ENDROOT
BRANCH   6   2
ATOM      2  O   UNL     1      17.069  -9.804  27.713  0.00  0.00    -0.368 OA
BRANCH   2  12
ATOM     12  C   UNL     1      15.738 -10.274  27.574  0.00  0.00    +0.195 C 
BRANCH  12  15
ATOM     15  C   UNL     1      15.127 -10.428  28.936  0.00  0.00    -0.022 A 
ATOM     19  C   UNL     1      15.943 -10.639  30.047  0.00  0.00    +0.006 A 
ATOM     20  C   UNL     1      13.743 -10.357  29.091  0.00  0.00    +0.006 A 
ATOM     21  C   UNL     1      15.375 -10.781  31.313  0.00  0.00    +0.000 A 
ATOM     22  C   UNL     1      13.175 -10.499  30.357  0.00  0.00    +0.000 A 
ATOM     23  C   UNL     1      13.991 -10.711  31.469  0.00  0.00    +0.000 A 
ENDBRANCH  12  15
ENDBRANCH   2  12
ENDBRANCH   6   2
BRANCH   4   9
ATOM      9  C   UNL     1      16.767  -5.366  29.514  0.00  0.00    +0.119 C 
BRANCH   9  11
ATOM     11  C   UNL     1      15.509  -5.247  30.331  0.00  0.00    -0.033 A 
ATOM     13  C   UNL     1      14.468  -6.158  30.146  0.00  0.00    +0.008 A 
ATOM     14  C   UNL     1      15.382  -4.225  31.273  0.00  0.00    +0.008 A 
ATOM     16  C   UNL     1      13.301  -6.047  30.903  0.00  0.00    +0.046 A 
ATOM     17  C   UNL     1      14.215  -4.115  32.030  0.00  0.00    +0.046 A 
ATOM     18  C   UNL     1      13.175  -5.026  31.845  0.00  0.00    +0.120 A 
BRANCH  18   3
ATOM      3  O   UNL     1      12.037  -4.918  32.583  0.00  0.00    -0.495 OA
ATOM     24  C   UNL     1      11.304  -6.118  32.825  0.00  0.00    +0.277 C 
ENDBRANCH  18   3
ENDBRANCH   9  11
ENDBRANCH   4   9
TORSDOF 6
ENDMDL
MODEL 10
REMARK VINA RESULT:      -3.1     14.621     17.516
REMARK  Name = 75367798
REMARK  7 active torsions:
REMARK  status: ('A' for Active; 'I' for Inactive)
REMARK    1  A    between atoms: O_2  and  C_6
REMARK    2  A    between atoms: O_2  and  C_12
REMARK    3  A    between atoms: O_3  and  C_18
REMARK    4  A    between atoms: O_3  and  C_24
REMARK    5  A    between atoms: N_4  and  C_9
REMARK    6  A    between atoms: C_9  and  C_11
REMARK    7  A    between atoms: C_12  and  C_15
REMARK                            x       y       z     vdW  Elec       q    Type
REMARK                         _______ _______ _______ _____ _____    ______ ____
ROOT
ATOM      1  O   UNL     1      -4.499   4.784  25.443  0.00  0.00    -0.376 OA
ATOM      4  N   UNL     1      -4.943   1.791  24.686  0.00  0.00    -0.293 NA
ATOM      5  C   UNL     1      -3.487   1.856  24.512  0.00  0.00    +0.118 C 
ATOM      6  C   UNL     1      -2.785   3.184  24.841  0.00  0.00    +0.158 C 
ATOM      7  C   UNL     1      -5.446   2.536  25.840  0.00  0.00    +0.113 C 
ATOM      8  C   UNL     1      -3.563   4.425  24.430  0.00  0.00    +0.192 C 
ATOM     10  C   UNL     1      -5.683   3.998  25.455  0.00  0.00    +0.175 C 
ENDROOT
BRANCH   6   2
ATOM      2  O   UNL     1      -1.530   3.203  24.158  0.00  0.00    -0.368 OA
BRANCH   2  12
ATOM     12  C   UNL     1      -0.508   2.607  24.940  0.00  0.00    +0.195 C 
BRANCH  12  15
ATOM     15  C   UNL     1       0.232   1.608  24.101  0.00  0.00    -0.022 A 
ATOM     19  C   UNL     1       1.596   1.771  23.863  0.00  0.00    +0.006 A 
ATOM     20  C   UNL     1      -0.444   0.515  23.560  0.00  0.00    +0.006 A 
ATOM     21  C   UNL     1       2.284   0.841  23.083  0.00  0.00    +0.000 A 
ATOM     22  C   UNL     1       0.243  -0.415  22.781  0.00  0.00    +0.000 A 
ATOM     23  C   UNL     1       1.608  -0.252  22.542  0.00  0.00    +0.000 A 
ENDBRANCH  12  15
ENDBRANCH   2  12
ENDBRANCH   6   2
BRANCH   4   9
ATOM      9  C   UNL     1      -5.383   0.396  24.716  0.00  0.00    +0.119 C 
BRANCH   9  11
ATOM     11  C   UNL     1      -4.221  -0.556  24.823  0.00  0.00    -0.033 A 
ATOM     13  C   UNL     1      -3.278  -0.394  25.839  0.00  0.00    +0.008 A 
ATOM     14  C   UNL     1      -4.086  -1.598  23.905  0.00  0.00    +0.008 A 
ATOM     16  C   UNL     1      -2.201  -1.275  25.937  0.00  0.00    +0.046 A 
ATOM     17  C   UNL     1      -3.009  -2.479  24.004  0.00  0.00    +0.046 A 
ATOM     18  C   UNL     1      -2.066  -2.318  25.020  0.00  0.00    +0.120 A 
BRANCH  18   3
ATOM      3  O   UNL     1      -1.016  -3.177  25.115  0.00  0.00    -0.495 OA
ATOM     24  C   UNL     1       0.222  -2.639  25.579  0.00  0.00    +0.277 C 
ENDBRANCH  18   3
ENDBRANCH   9  11
ENDBRANCH   4   9
TORSDOF 6
ENDMDL
