MODEL 1
REMARK VINA RESULT:       2.1      0.000      0.000
REMARK  Name = 26743419
REMARK  9 active torsions:
REMARK  status: ('A' for Active; 'I' for Inactive)
REMARK    1  A    between atoms: O_3  and  C_19
REMARK    2  A    between atoms: O_3  and  C_26
REMARK    3  A    between atoms: N_4  and  C_9
REMARK    4  A    between atoms: N_5  and  C_17
REMARK    5  A    between atoms: C_7  and  C_10
REMARK    6  A    between atoms: C_13  and  C_15
REMARK    7  A    between atoms: C_14  and  C_16
REMARK    8  A    between atoms: C_18  and  C_19
REMARK    9  A    between atoms: C_24  and  C_25
REMARK                            x       y       z     vdW  Elec       q    Type
REMARK                         _______ _______ _______ _____ _____    ______ ____
ROOT
ATOM      7  C   UNL     1      -2.366   0.628  24.672  0.00  0.00    +0.047 C 
ATOM      8  C   UNL     1      -3.428   0.543  23.556  0.00  0.00    +0.039 C 
ATOM      9  C   UNL     1      -4.778   0.407  24.271  0.00  0.00    +0.097 C 
ATOM     11  C   UNL     1      -3.075   0.004  25.839  0.00  0.00    -0.021 C 
ATOM     12  C   UNL     1      -4.389  -0.111  25.617  0.00  0.00    -0.009 C 
ENDROOT
BRANCH   7  10
ATOM      5  N   UNL     1       1.033  -0.432  23.808  0.00  0.00    -0.236 N 
ATOM      6  N   UNL     1       0.460  -1.647  23.748  0.00  0.00    -0.171 NA
ATOM     10  C   UNL     1      -1.057  -0.031  24.302  0.00  0.00    +0.003 A 
ATOM     13  C   UNL     1       0.167   0.569  24.137  0.00  0.00    +0.046 A 
ATOM     14  C   UNL     1      -0.817  -1.396  24.051  0.00  0.00    +0.064 A 
ATOM     15  C   UNL     1       0.574   1.984  24.262  0.00  0.00    +0.066 C 
ATOM     16  C   UNL     1      -1.785  -2.506  24.089  0.00  0.00    +0.068 C 
BRANCH   5  17
ATOM      1 CL   UNL     1       5.723  -2.409  24.188  0.00  0.00    -0.083 Cl
ATOM     17  C   UNL     1       2.396  -0.297  23.545  0.00  0.00    +0.067 A 
ATOM     20  C   UNL     1       3.287  -1.294  23.942  0.00  0.00    +0.048 A 
ATOM     21  C   UNL     1       2.868   0.838  22.886  0.00  0.00    +0.028 A 
ATOM     22  C   UNL     1       4.649  -1.156  23.681  0.00  0.00    +0.046 A 
ATOM     23  C   UNL     1       4.231   0.975  22.623  0.00  0.00    +0.007 A 
ATOM     24  C   UNL     1       5.123  -0.022  23.021  0.00  0.00    -0.032 A 
ATOM     25  C   UNL     1       6.574   0.163  22.721  0.00  0.00    +0.045 C 
ENDBRANCH   5  17
ENDBRANCH   7  10
BRANCH   9   4
ATOM      2  O   UNL     1      -6.097   1.397  26.646  0.00  0.00    -0.272 OA
ATOM      4  N   UNL     1      -5.455   1.665  24.427  0.00  0.00    -0.306 N 
ATOM     18  C   UNL     1      -6.064   2.058  25.613  0.00  0.00    +0.251 C 
ATOM     32  H   UNL     1      -5.524   2.282  23.620  0.00  0.00    +0.149 HD
BRANCH  18  19
ATOM     19  C   UNL     1      -6.700   3.428  25.495  0.00  0.00    +0.324 C 
BRANCH  19   3
ATOM      3  O   UNL     1      -5.809   4.430  25.937  0.00  0.00    -0.483 OA
BRANCH   3  26
ATOM     26  C   UNL     1      -4.484   4.282  25.602  0.00  0.00    +0.121 A 
ATOM     27  C   UNL     1      -3.531   4.069  26.600  0.00  0.00    +0.045 A 
ATOM     28  C   UNL     1      -4.091   4.345  24.266  0.00  0.00    +0.045 A 
ATOM     29  C   UNL     1      -2.187   3.919  26.259  0.00  0.00    +0.004 A 
ATOM     30  C   UNL     1      -2.747   4.196  23.926  0.00  0.00    +0.004 A 
ATOM     31  C   UNL     1      -1.795   3.983  24.922  0.00  0.00    +0.000 A 
ENDBRANCH   3  26
ENDBRANCH  19   3
ENDBRANCH  18  19
ENDBRANCH   9   4
TORSDOF 6
ENDMDL
MODEL 2
REMARK VINA RESULT:       3.2      0.961      1.558
REMARK  Name = 26743419
REMARK  9 active torsions:
REMARK  status: ('A' for Active; 'I' for Inactive)
REMARK    1  A    between atoms: O_3  and  C_19
REMARK    2  A    between atoms: O_3  and  C_26
REMARK    3  A    between atoms: N_4  and  C_9
REMARK    4  A    between atoms: N_5  and  C_17
REMARK    5  A    between atoms: C_7  and  C_10
REMARK    6  A    between atoms: C_13  and  C_15
REMARK    7  A    between atoms: C_14  and  C_16
REMARK    8  A    between atoms: C_18  and  C_19
REMARK    9  A    between atoms: C_24  and  C_25
REMARK                            x       y       z     vdW  Elec       q    Type
REMARK                         _______ _______ _______ _____ _____    ______ ____
ROOT
ATOM      7  C   UNL     1      -2.514   0.488  24.781  0.00  0.00    +0.047 C 
ATOM      8  C   UNL     1      -3.522   0.499  23.614  0.00  0.00    +0.039 C 
ATOM      9  C   UNL     1      -4.909   0.365  24.255  0.00  0.00    +0.097 C 
ATOM     11  C   UNL     1      -3.296  -0.178  25.876  0.00  0.00    -0.021 C 
ATOM     12  C   UNL     1      -4.600  -0.239  25.587  0.00  0.00    -0.009 C 
ENDROOT
BRANCH   7  10
ATOM      5  N   UNL     1       0.881  -0.618  23.959  0.00  0.00    -0.236 N 
ATOM      6  N   UNL     1       0.301  -1.831  23.938  0.00  0.00    -0.171 NA
ATOM     10  C   UNL     1      -1.208  -0.190  24.435  0.00  0.00    +0.003 A 
ATOM     13  C   UNL     1       0.020   0.399  24.252  0.00  0.00    +0.046 A 
ATOM     14  C   UNL     1      -0.975  -1.563  24.230  0.00  0.00    +0.064 A 
ATOM     15  C   UNL     1       0.434   1.814  24.331  0.00  0.00    +0.066 C 
ATOM     16  C   UNL     1      -1.948  -2.666  24.303  0.00  0.00    +0.068 C 
BRANCH   5  17
ATOM      1 CL   UNL     1       4.686   2.238  22.111  0.00  0.00    -0.083 Cl
ATOM     17  C   UNL     1       2.245  -0.498  23.693  0.00  0.00    +0.067 A 
ATOM     20  C   UNL     1       2.742   0.666  23.107  0.00  0.00    +0.048 A 
ATOM     21  C   UNL     1       3.111  -1.543  24.011  0.00  0.00    +0.028 A 
ATOM     22  C   UNL     1       4.105   0.784  22.839  0.00  0.00    +0.046 A 
ATOM     23  C   UNL     1       4.475  -1.425  23.744  0.00  0.00    +0.007 A 
ATOM     24  C   UNL     1       4.972  -0.261  23.157  0.00  0.00    -0.032 A 
ATOM     25  C   UNL     1       6.439  -0.173  22.888  0.00  0.00    +0.045 C 
ENDBRANCH   5  17
ENDBRANCH   7  10
BRANCH   9   4
ATOM      2  O   UNL     1      -6.115   1.352  26.692  0.00  0.00    -0.272 OA
ATOM      4  N   UNL     1      -5.556   1.634  24.452  0.00  0.00    -0.306 N 
ATOM     18  C   UNL     1      -6.111   2.024  25.665  0.00  0.00    +0.251 C 
ATOM     32  H   UNL     1      -5.646   2.260  23.655  0.00  0.00    +0.149 HD
BRANCH  18  19
ATOM     19  C   UNL     1      -6.727   3.405  25.588  0.00  0.00    +0.324 C 
BRANCH  19   3
ATOM      3  O   UNL     1      -5.802   4.386  26.008  0.00  0.00    -0.483 OA
BRANCH   3  26
ATOM     26  C   UNL     1      -4.497   4.231  25.606  0.00  0.00    +0.121 A 
ATOM     27  C   UNL     1      -4.181   4.228  24.247  0.00  0.00    +0.045 A 
ATOM     28  C   UNL     1      -3.488   4.076  26.556  0.00  0.00    +0.045 A 
ATOM     29  C   UNL     1      -2.856   4.071  23.839  0.00  0.00    +0.004 A 
ATOM     30  C   UNL     1      -2.164   3.918  26.148  0.00  0.00    +0.004 A 
ATOM     31  C   UNL     1      -1.847   3.915  24.790  0.00  0.00    +0.000 A 
ENDBRANCH   3  26
ENDBRANCH  19   3
ENDBRANCH  18  19
ENDBRANCH   9   4
TORSDOF 6
ENDMDL
MODEL 3
REMARK VINA RESULT:       5.0      1.088      2.567
REMARK  Name = 26743419
REMARK  9 active torsions:
REMARK  status: ('A' for Active; 'I' for Inactive)
REMARK    1  A    between atoms: O_3  and  C_19
REMARK    2  A    between atoms: O_3  and  C_26
REMARK    3  A    between atoms: N_4  and  C_9
REMARK    4  A    between atoms: N_5  and  C_17
REMARK    5  A    between atoms: C_7  and  C_10
REMARK    6  A    between atoms: C_13  and  C_15
REMARK    7  A    between atoms: C_14  and  C_16
REMARK    8  A    between atoms: C_18  and  C_19
REMARK    9  A    between atoms: C_24  and  C_25
REMARK                            x       y       z     vdW  Elec       q    Type
REMARK                         _______ _______ _______ _____ _____    ______ ____
ROOT
ATOM      7  C   UNL     1      -2.105   1.245  23.766  0.00  0.00    +0.047 C 
ATOM      8  C   UNL     1      -1.966   2.612  24.466  0.00  0.00    +0.039 C 
ATOM      9  C   UNL     1      -2.918   3.561  23.727  0.00  0.00    +0.097 C 
ATOM     11  C   UNL     1      -2.652   1.625  22.421  0.00  0.00    -0.021 C 
ATOM     12  C   UNL     1      -3.097   2.887  22.406  0.00  0.00    -0.009 C 
ENDROOT
BRANCH   7  10
ATOM      5  N   UNL     1       1.284  -0.135  23.588  0.00  0.00    -0.236 N 
ATOM      6  N   UNL     1       0.640  -1.301  23.766  0.00  0.00    -0.171 NA
ATOM     10  C   UNL     1      -0.813   0.462  23.724  0.00  0.00    +0.003 A 
ATOM     13  C   UNL     1       0.460   0.951  23.555  0.00  0.00    +0.046 A 
ATOM     14  C   UNL     1      -0.641  -0.930  23.849  0.00  0.00    +0.064 A 
ATOM     15  C   UNL     1       0.947   2.333  23.371  0.00  0.00    +0.066 C 
ATOM     16  C   UNL     1      -1.681  -1.954  24.051  0.00  0.00    +0.068 C 
BRANCH   5  17
ATOM      1 CL   UNL     1       5.701  -2.609  24.237  0.00  0.00    -0.083 Cl
ATOM     17  C   UNL     1       2.673  -0.126  23.456  0.00  0.00    +0.067 A 
ATOM     20  C   UNL     1       3.420  -1.234  23.857  0.00  0.00    +0.048 A 
ATOM     21  C   UNL     1       3.315   0.993  22.925  0.00  0.00    +0.028 A 
ATOM     22  C   UNL     1       4.808  -1.223  23.728  0.00  0.00    +0.046 A 
ATOM     23  C   UNL     1       4.703   1.004  22.795  0.00  0.00    +0.007 A 
ATOM     24  C   UNL     1       5.451  -0.104  23.197  0.00  0.00    -0.032 A 
ATOM     25  C   UNL     1       6.936  -0.053  23.040  0.00  0.00    +0.045 C 
ENDBRANCH   5  17
ENDBRANCH   7  10
BRANCH   9   4
ATOM      2  O   UNL     1      -3.422   4.266  26.487  0.00  0.00    -0.272 OA
ATOM      4  N   UNL     1      -4.197   3.681  24.373  0.00  0.00    -0.306 N 
ATOM     18  C   UNL     1      -4.343   4.026  25.712  0.00  0.00    +0.251 C 
ATOM     32  H   UNL     1      -5.034   3.466  23.835  0.00  0.00    +0.149 HD
BRANCH  18  19
ATOM     19  C   UNL     1      -5.798   4.079  26.127  0.00  0.00    +0.324 C 
BRANCH  19   3
ATOM      3  O   UNL     1      -6.237   2.810  26.566  0.00  0.00    -0.483 OA
BRANCH   3  26
ATOM     26  C   UNL     1      -5.767   1.713  25.884  0.00  0.00    +0.121 A 
ATOM     27  C   UNL     1      -4.718   0.959  26.413  0.00  0.00    +0.045 A 
ATOM     28  C   UNL     1      -6.338   1.353  24.663  0.00  0.00    +0.045 A 
ATOM     29  C   UNL     1      -4.242  -0.154  25.720  0.00  0.00    +0.004 A 
ATOM     30  C   UNL     1      -5.861   0.241  23.971  0.00  0.00    +0.004 A 
ATOM     31  C   UNL     1      -4.813  -0.513  24.500  0.00  0.00    +0.000 A 
ENDBRANCH   3  26
ENDBRANCH  19   3
ENDBRANCH  18  19
ENDBRANCH   9   4
TORSDOF 6
ENDMDL
