MODEL 1
REMARK VINA RESULT:      10.0      0.000      0.000
REMARK  Name = 11882024
REMARK  9 active torsions:
REMARK  status: ('A' for Active; 'I' for Inactive)
REMARK    1  A    between atoms: N_8  and  C_14
REMARK    2  A    between atoms: N_9  and  C_20
REMARK    3  A    between atoms: N_10  and  C_30
REMARK    4  A    between atoms: N_11  and  C_33
REMARK    5  A    between atoms: C_15  and  C_18
REMARK    6  A    between atoms: C_19  and  C_21
REMARK    7  A    between atoms: C_20  and  C_23
REMARK    8  A    between atoms: C_20  and  C_26
REMARK    9  A    between atoms: C_23  and  C_24
REMARK                            x       y       z     vdW  Elec       q    Type
REMARK                         _______ _______ _______ _____ _____    ______ ____
ROOT
ATOM      4  O   UNL     1      -3.071   0.584  23.197  0.00  0.00    -0.268 OA
ATOM      7  N   UNL     1      -2.209   2.623  23.846  0.00  0.00    -0.283 N 
ATOM     14  C   UNL     1      -0.910   4.562  24.310  0.00  0.00    +0.094 C 
ATOM     15  C   UNL     1      -1.123   2.625  22.877  0.00  0.00    +0.164 C 
ATOM     16  C   UNL     1      -0.557   4.044  22.912  0.00  0.00    +0.056 C 
ATOM     17  C   UNL     1      -2.226   3.861  24.630  0.00  0.00    +0.131 C 
ATOM     19  C   UNL     1      -3.158   1.597  23.891  0.00  0.00    +0.264 C 
ENDROOT
BRANCH  14   8
ATOM      5  O   UNL     1      -1.310   3.392  26.894  0.00  0.00    -0.252 OA
ATOM      8  N   UNL     1       0.107   4.256  25.283  0.00  0.00    -0.295 N 
ATOM     11  N   UNL     1       1.007   3.500  27.259  0.00  0.00    -0.267 N 
ATOM     22  C   UNL     1      -0.172   3.681  26.531  0.00  0.00    +0.304 C 
ATOM     43  H   UNL     1       1.065   4.529  25.084  0.00  0.00    +0.151 HD
ATOM     45  H   UNL     1       1.871   3.796  26.813  0.00  0.00    +0.156 HD
BRANCH  11  33
ATOM      1  F   UNL     1       3.408   2.365  28.104  0.00  0.00    -0.203 F 
ATOM      2  F   UNL     1       1.561   1.363  32.343  0.00  0.00    -0.205 F 
ATOM     33  C   UNL     1       1.151   2.954  28.555  0.00  0.00    +0.070 A 
ATOM     38  C   UNL     1       2.366   2.393  28.948  0.00  0.00    +0.147 A 
ATOM     39  C   UNL     1       0.074   2.978  29.441  0.00  0.00    +0.029 A 
ATOM     40  C   UNL     1       2.505   1.855  30.227  0.00  0.00    +0.078 A 
ATOM     41  C   UNL     1       0.213   2.439  30.721  0.00  0.00    +0.040 A 
ATOM     42  C   UNL     1       1.428   1.878  31.114  0.00  0.00    +0.126 A 
ENDBRANCH  11  33
ENDBRANCH  14   8
BRANCH  19  21
ATOM     10  N   UNL     1      -4.921   2.948  25.046  0.00  0.00    -0.346 N 
ATOM     21  C   UNL     1      -4.256   1.769  24.833  0.00  0.00    +0.104 A 
ATOM     25  C   UNL     1      -4.812   0.816  25.657  0.00  0.00    +0.032 A 
ATOM     28  C   UNL     1      -5.893   2.762  25.994  0.00  0.00    +0.086 A 
ATOM     29  C   UNL     1      -5.848   1.444  26.392  0.00  0.00    +0.020 A 
ATOM     30  C   UNL     1      -4.653   4.205  24.381  0.00  0.00    +0.149 C 
ENDBRANCH  19  21
BRANCH  15  18
ATOM      3  O   UNL     1       0.701   1.840  24.203  0.00  0.00    -0.274 OA
ATOM      9  N   UNL     1      -0.156   0.461  22.535  0.00  0.00    -0.302 N 
ATOM     18  C   UNL     1      -0.096   1.616  23.295  0.00  0.00    +0.234 C 
ATOM     44  H   UNL     1      -0.914   0.351  21.867  0.00  0.00    +0.150 HD
BRANCH   9  20
ATOM     20  C   UNL     1       0.740  -0.657  22.723  0.00  0.00    +0.163 C 
BRANCH  20  26
ATOM      6  O   UNL     1       2.308  -0.239  20.913  0.00  0.00    -0.274 OA
ATOM     13  N   UNL     1       3.002   0.123  23.072  0.00  0.00    -0.328 N 
ATOM     26  C   UNL     1       2.081  -0.261  22.120  0.00  0.00    +0.231 C 
ATOM     47  H   UNL     1       2.792   0.123  24.065  0.00  0.00    +0.145 HD
ATOM     48  H   UNL     1       3.933   0.424  22.804  0.00  0.00    +0.145 HD
ENDBRANCH  20  26
BRANCH  20  23
ATOM     23  C   UNL     1       0.906  -1.026  24.202  0.00  0.00    +0.069 C 
BRANCH  23  24
ATOM     12  N   UNL     1      -1.993  -0.695  26.439  0.00  0.00    -0.360 N 
ATOM     24  C   UNL     1      -0.399  -1.086  24.944  0.00  0.00    -0.020 A 
ATOM     27  C   UNL     1      -1.520  -1.900  24.621  0.00  0.00    +0.003 A 
ATOM     31  C   UNL     1      -0.719  -0.357  26.066  0.00  0.00    +0.087 A 
ATOM     32  C   UNL     1      -2.507  -1.635  25.574  0.00  0.00    +0.047 A 
ATOM     34  C   UNL     1      -1.793  -2.838  23.606  0.00  0.00    +0.010 A 
ATOM     35  C   UNL     1      -3.757  -2.264  25.562  0.00  0.00    +0.026 A 
ATOM     36  C   UNL     1      -3.038  -3.477  23.583  0.00  0.00    +0.001 A 
ATOM     37  C   UNL     1      -4.003  -3.193  24.546  0.00  0.00    +0.002 A 
ATOM     46  H   UNL     1      -2.485  -0.310  27.233  0.00  0.00    +0.165 HD
ENDBRANCH  23  24
ENDBRANCH  20  23
ENDBRANCH   9  20
ENDBRANCH  15  18
TORSDOF 8
ENDMDL
MODEL 2
REMARK VINA RESULT:      10.6      2.951      5.473
REMARK  Name = 11882024
REMARK  9 active torsions:
REMARK  status: ('A' for Active; 'I' for Inactive)
REMARK    1  A    between atoms: N_8  and  C_14
REMARK    2  A    between atoms: N_9  and  C_20
REMARK    3  A    between atoms: N_10  and  C_30
REMARK    4  A    between atoms: N_11  and  C_33
REMARK    5  A    between atoms: C_15  and  C_18
REMARK    6  A    between atoms: C_19  and  C_21
REMARK    7  A    between atoms: C_20  and  C_23
REMARK    8  A    between atoms: C_20  and  C_26
REMARK    9  A    between atoms: C_23  and  C_24
REMARK                            x       y       z     vdW  Elec       q    Type
REMARK                         _______ _______ _______ _____ _____    ______ ____
ROOT
ATOM      4  O   UNL     1      -5.586   0.231  25.049  0.00  0.00    -0.268 OA
ATOM      7  N   UNL     1      -3.917   0.953  23.631  0.00  0.00    -0.283 N 
ATOM     14  C   UNL     1      -2.029   1.242  22.210  0.00  0.00    +0.094 C 
ATOM     15  C   UNL     1      -3.560  -0.375  23.154  0.00  0.00    +0.164 C 
ATOM     16  C   UNL     1      -2.642  -0.138  21.956  0.00  0.00    +0.056 C 
ATOM     17  C   UNL     1      -3.128   1.990  22.958  0.00  0.00    +0.131 C 
ATOM     19  C   UNL     1      -4.971   1.160  24.525  0.00  0.00    +0.264 C 
ENDROOT
BRANCH  14   8
ATOM      5  O   UNL     1       0.457   0.087  21.381  0.00  0.00    -0.252 OA
ATOM      8  N   UNL     1      -0.814   1.171  22.980  0.00  0.00    -0.295 N 
ATOM     11  N   UNL     1       1.376   0.664  23.464  0.00  0.00    -0.267 N 
ATOM     22  C   UNL     1       0.366   0.586  22.500  0.00  0.00    +0.304 C 
ATOM     43  H   UNL     1      -0.829   1.502  23.940  0.00  0.00    +0.151 HD
ATOM     45  H   UNL     1       1.136   1.110  24.344  0.00  0.00    +0.156 HD
BRANCH  11  33
ATOM      1  F   UNL     1       3.449   2.310  22.592  0.00  0.00    -0.203 F 
ATOM      2  F   UNL     1       6.584  -1.198  23.091  0.00  0.00    -0.205 F 
ATOM     33  C   UNL     1       2.706   0.191  23.367  0.00  0.00    +0.070 A 
ATOM     38  C   UNL     1       3.721   1.040  22.927  0.00  0.00    +0.147 A 
ATOM     39  C   UNL     1       2.999  -1.127  23.714  0.00  0.00    +0.029 A 
ATOM     40  C   UNL     1       5.031   0.571  22.834  0.00  0.00    +0.078 A 
ATOM     41  C   UNL     1       4.310  -1.597  23.620  0.00  0.00    +0.040 A 
ATOM     42  C   UNL     1       5.325  -0.748  23.180  0.00  0.00    +0.126 A 
ENDBRANCH  11  33
ENDBRANCH  14   8
BRANCH  19  21
ATOM     10  N   UNL     1      -6.006   2.949  25.936  0.00  0.00    -0.346 N 
ATOM     21  C   UNL     1      -5.295   2.546  24.837  0.00  0.00    +0.104 A 
ATOM     25  C   UNL     1      -4.962   3.669  24.114  0.00  0.00    +0.032 A 
ATOM     28  C   UNL     1      -6.132   4.314  25.926  0.00  0.00    +0.086 A 
ATOM     29  C   UNL     1      -5.492   4.789  24.802  0.00  0.00    +0.020 A 
ATOM     30  C   UNL     1      -6.547   2.083  26.961  0.00  0.00    +0.149 C 
ENDBRANCH  19  21
BRANCH  15  18
ATOM      3  O   UNL     1      -2.926  -2.331  24.368  0.00  0.00    -0.274 OA
ATOM      9  N   UNL     1      -2.147  -0.258  25.084  0.00  0.00    -0.302 N 
ATOM     18  C   UNL     1      -2.850  -1.110  24.250  0.00  0.00    +0.234 C 
ATOM     44  H   UNL     1      -2.083   0.726  24.839  0.00  0.00    +0.150 HD
BRANCH   9  20
ATOM     20  C   UNL     1      -1.395  -0.715  26.230  0.00  0.00    +0.163 C 
BRANCH  20  26
ATOM      6  O   UNL     1       0.069  -1.627  24.518  0.00  0.00    -0.274 OA
ATOM     13  N   UNL     1       0.433  -2.223  26.706  0.00  0.00    -0.328 N 
ATOM     26  C   UNL     1      -0.248  -1.566  25.703  0.00  0.00    +0.231 C 
ATOM     47  H   UNL     1       0.175  -2.143  27.684  0.00  0.00    +0.145 HD
ATOM     48  H   UNL     1       1.230  -2.814  26.492  0.00  0.00    +0.145 HD
ENDBRANCH  20  26
BRANCH  20  23
ATOM     23  C   UNL     1      -0.856   0.448  27.074  0.00  0.00    +0.069 C 
BRANCH  23  24
ATOM     12  N   UNL     1       0.684   2.978  24.896  0.00  0.00    -0.360 N 
ATOM     24  C   UNL     1      -0.458   1.639  26.248  0.00  0.00    -0.020 A 
ATOM     27  C   UNL     1      -1.188   2.852  26.105  0.00  0.00    +0.003 A 
ATOM     31  C   UNL     1       0.688   1.746  25.494  0.00  0.00    +0.087 A 
ATOM     32  C   UNL     1      -0.449   3.675  25.251  0.00  0.00    +0.047 A 
ATOM     34  C   UNL     1      -2.408   3.331  26.619  0.00  0.00    +0.010 A 
ATOM     35  C   UNL     1      -0.873   4.957  24.885  0.00  0.00    +0.026 A 
ATOM     36  C   UNL     1      -2.844   4.612  26.263  0.00  0.00    +0.001 A 
ATOM     37  C   UNL     1      -2.087   5.411  25.409  0.00  0.00    +0.002 A 
ATOM     46  H   UNL     1       1.408   3.326  24.283  0.00  0.00    +0.165 HD
ENDBRANCH  23  24
ENDBRANCH  20  23
ENDBRANCH   9  20
ENDBRANCH  15  18
TORSDOF 8
ENDMDL
MODEL 3
REMARK VINA RESULT:      10.6      2.000      4.067
REMARK  Name = 11882024
REMARK  9 active torsions:
REMARK  status: ('A' for Active; 'I' for Inactive)
REMARK    1  A    between atoms: N_8  and  C_14
REMARK    2  A    between atoms: N_9  and  C_20
REMARK    3  A    between atoms: N_10  and  C_30
REMARK    4  A    between atoms: N_11  and  C_33
REMARK    5  A    between atoms: C_15  and  C_18
REMARK    6  A    between atoms: C_19  and  C_21
REMARK    7  A    between atoms: C_20  and  C_23
REMARK    8  A    between atoms: C_20  and  C_26
REMARK    9  A    between atoms: C_23  and  C_24
REMARK                            x       y       z     vdW  Elec       q    Type
REMARK                         _______ _______ _______ _____ _____    ______ ____
ROOT
ATOM      4  O   UNL     1      -4.251  -0.083  23.106  0.00  0.00    -0.268 OA
ATOM      7  N   UNL     1      -3.255   1.971  23.441  0.00  0.00    -0.283 N 
ATOM     14  C   UNL     1      -1.875   3.908  23.502  0.00  0.00    +0.094 C 
ATOM     15  C   UNL     1      -2.415   1.908  22.253  0.00  0.00    +0.164 C 
ATOM     16  C   UNL     1      -1.849   3.318  22.089  0.00  0.00    +0.056 C 
ATOM     17  C   UNL     1      -3.088   3.245  24.145  0.00  0.00    +0.131 C 
ATOM     19  C   UNL     1      -4.174   0.964  23.751  0.00  0.00    +0.264 C 
ENDROOT
BRANCH  14   8
ATOM      5  O   UNL     1      -1.670   3.279  26.288  0.00  0.00    -0.252 OA
ATOM      8  N   UNL     1      -0.666   3.634  24.235  0.00  0.00    -0.295 N 
ATOM     11  N   UNL     1       0.660   3.113  26.040  0.00  0.00    -0.267 N 
ATOM     22  C   UNL     1      -0.650   3.332  25.604  0.00  0.00    +0.304 C 
ATOM     43  H   UNL     1       0.223   3.726  23.754  0.00  0.00    +0.151 HD
ATOM     45  H   UNL     1       1.395   3.197  25.343  0.00  0.00    +0.156 HD
BRANCH  11  33
ATOM      1  F   UNL     1      -0.634   1.175  27.568  0.00  0.00    -0.203 F 
ATOM      2  F   UNL     1       2.382   1.839  31.152  0.00  0.00    -0.205 F 
ATOM     33  C   UNL     1       1.097   2.786  27.345  0.00  0.00    +0.070 A 
ATOM     38  C   UNL     1       0.427   1.811  28.084  0.00  0.00    +0.147 A 
ATOM     39  C   UNL     1       2.200   3.441  27.891  0.00  0.00    +0.029 A 
ATOM     40  C   UNL     1       0.861   1.491  29.370  0.00  0.00    +0.078 A 
ATOM     41  C   UNL     1       2.634   3.122  29.178  0.00  0.00    +0.040 A 
ATOM     42  C   UNL     1       1.965   2.147  29.917  0.00  0.00    +0.126 A 
ENDBRANCH  11  33
ENDBRANCH  14   8
BRANCH  19  21
ATOM     10  N   UNL     1      -4.978   0.482  26.072  0.00  0.00    -0.346 N 
ATOM     21  C   UNL     1      -5.030   1.200  24.905  0.00  0.00    +0.104 A 
ATOM     25  C   UNL     1      -6.018   2.150  25.039  0.00  0.00    +0.032 A 
ATOM     28  C   UNL     1      -5.916   0.961  26.948  0.00  0.00    +0.086 A 
ATOM     29  C   UNL     1      -6.579   2.000  26.331  0.00  0.00    +0.020 A 
ATOM     30  C   UNL     1      -4.075  -0.613  26.354  0.00  0.00    +0.149 C 
ENDBRANCH  19  21
BRANCH  15  18
ATOM      3  O   UNL     1      -0.746   0.354  21.547  0.00  0.00    -0.274 OA
ATOM      9  N   UNL     1      -1.092   0.679  23.826  0.00  0.00    -0.302 N 
ATOM     18  C   UNL     1      -1.326   0.904  22.480  0.00  0.00    +0.234 C 
ATOM     44  H   UNL     1      -1.571   1.256  24.511  0.00  0.00    +0.150 HD
BRANCH   9  20
ATOM     20  C   UNL     1      -0.107  -0.260  24.311  0.00  0.00    +0.163 C 
BRANCH  20  26
ATOM      6  O   UNL     1      -1.724  -2.074  24.274  0.00  0.00    -0.274 OA
ATOM     13  N   UNL     1      -0.450  -1.777  26.162  0.00  0.00    -0.328 N 
ATOM     26  C   UNL     1      -0.866  -1.446  24.889  0.00  0.00    +0.231 C 
ATOM     47  H   UNL     1       0.278  -1.264  26.648  0.00  0.00    +0.145 HD
ATOM     48  H   UNL     1      -0.865  -2.558  26.658  0.00  0.00    +0.145 HD
ENDBRANCH  20  26
BRANCH  20  23
ATOM     23  C   UNL     1       0.849  -0.723  23.203  0.00  0.00    +0.069 C 
BRANCH  23  24
ATOM     12  N   UNL     1       3.534   1.767  22.883  0.00  0.00    -0.360 N 
ATOM     24  C   UNL     1       2.119   0.078  23.149  0.00  0.00    -0.020 A 
ATOM     27  C   UNL     1       3.432  -0.396  23.422  0.00  0.00    +0.003 A 
ATOM     31  C   UNL     1       2.214   1.411  22.819  0.00  0.00    +0.087 A 
ATOM     32  C   UNL     1       4.301   0.683  23.248  0.00  0.00    +0.047 A 
ATOM     34  C   UNL     1       3.967  -1.642  23.803  0.00  0.00    +0.010 A 
ATOM     35  C   UNL     1       5.684   0.578  23.438  0.00  0.00    +0.026 A 
ATOM     36  C   UNL     1       5.348  -1.763  23.994  0.00  0.00    +0.001 A 
ATOM     37  C   UNL     1       6.191  -0.669  23.814  0.00  0.00    +0.002 A 
ATOM     46  H   UNL     1       3.895   2.691  22.689  0.00  0.00    +0.165 HD
ENDBRANCH  23  24
ENDBRANCH  20  23
ENDBRANCH   9  20
ENDBRANCH  15  18
TORSDOF 8
ENDMDL
MODEL 4
REMARK VINA RESULT:      11.0      1.717      3.774
REMARK  Name = 11882024
REMARK  9 active torsions:
REMARK  status: ('A' for Active; 'I' for Inactive)
REMARK    1  A    between atoms: N_8  and  C_14
REMARK    2  A    between atoms: N_9  and  C_20
REMARK    3  A    between atoms: N_10  and  C_30
REMARK    4  A    between atoms: N_11  and  C_33
REMARK    5  A    between atoms: C_15  and  C_18
REMARK    6  A    between atoms: C_19  and  C_21
REMARK    7  A    between atoms: C_20  and  C_23
REMARK    8  A    between atoms: C_20  and  C_26
REMARK    9  A    between atoms: C_23  and  C_24
REMARK                            x       y       z     vdW  Elec       q    Type
REMARK                         _______ _______ _______ _____ _____    ______ ____
ROOT
ATOM      4  O   UNL     1      -4.353   0.280  23.305  0.00  0.00    -0.268 OA
ATOM      7  N   UNL     1      -3.114   2.162  23.800  0.00  0.00    -0.283 N 
ATOM     14  C   UNL     1      -1.492   3.888  24.038  0.00  0.00    +0.094 C 
ATOM     15  C   UNL     1      -2.216   2.037  22.660  0.00  0.00    +0.164 C 
ATOM     16  C   UNL     1      -1.457   3.361  22.600  0.00  0.00    +0.056 C 
ATOM     17  C   UNL     1      -2.822   3.371  24.576  0.00  0.00    +0.131 C 
ATOM     19  C   UNL     1      -4.177   1.279  24.005  0.00  0.00    +0.264 C 
ENDROOT
BRANCH  14   8
ATOM      5  O   UNL     1      -1.424   3.564  26.883  0.00  0.00    -0.252 OA
ATOM      8  N   UNL     1      -0.381   3.420  24.824  0.00  0.00    -0.295 N 
ATOM     11  N   UNL     1       0.794   2.813  26.705  0.00  0.00    -0.267 N 
ATOM     22  C   UNL     1      -0.427   3.289  26.219  0.00  0.00    +0.304 C 
ATOM     43  H   UNL     1       0.501   3.236  24.354  0.00  0.00    +0.151 HD
ATOM     45  H   UNL     1       1.522   2.634  26.019  0.00  0.00    +0.156 HD
BRANCH  11  33
ATOM      1  F   UNL     1       3.452   2.476  27.471  0.00  0.00    -0.203 F 
ATOM      2  F   UNL     1       2.175   1.779  31.973  0.00  0.00    -0.205 F 
ATOM     33  C   UNL     1       1.149   2.548  28.048  0.00  0.00    +0.070 A 
ATOM     38  C   UNL     1       2.489   2.385  28.399  0.00  0.00    +0.147 A 
ATOM     39  C   UNL     1       0.155   2.452  29.022  0.00  0.00    +0.029 A 
ATOM     40  C   UNL     1       2.836   2.125  29.725  0.00  0.00    +0.078 A 
ATOM     41  C   UNL     1       0.502   2.191  30.349  0.00  0.00    +0.040 A 
ATOM     42  C   UNL     1       1.842   2.028  30.699  0.00  0.00    +0.126 A 
ENDBRANCH  11  33
ENDBRANCH  14   8
BRANCH  19  21
ATOM     10  N   UNL     1      -5.525   2.832  25.433  0.00  0.00    -0.346 N 
ATOM     21  C   UNL     1      -5.065   1.579  25.119  0.00  0.00    +0.104 A 
ATOM     25  C   UNL     1      -5.591   0.696  26.035  0.00  0.00    +0.032 A 
ATOM     28  C   UNL     1      -6.336   2.761  26.535  0.00  0.00    +0.086 A 
ATOM     29  C   UNL     1      -6.395   1.443  26.932  0.00  0.00    +0.020 A 
ATOM     30  C   UNL     1      -5.213   4.052  24.720  0.00  0.00    +0.149 C 
ENDBRANCH  19  21
BRANCH  15  18
ATOM      3  O   UNL     1      -0.808   0.236  21.970  0.00  0.00    -0.274 OA
ATOM      9  N   UNL     1      -1.075   0.650  24.245  0.00  0.00    -0.302 N 
ATOM     18  C   UNL     1      -1.288   0.884  22.897  0.00  0.00    +0.234 C 
ATOM     44  H   UNL     1      -1.455   1.305  24.923  0.00  0.00    +0.150 HD
BRANCH   9  20
ATOM     20  C   UNL     1      -0.237  -0.418  24.739  0.00  0.00    +0.163 C 
BRANCH  20  26
ATOM      6  O   UNL     1      -0.922  -2.718  25.123  0.00  0.00    -0.274 OA
ATOM     13  N   UNL     1      -2.281  -1.028  25.878  0.00  0.00    -0.328 N 
ATOM     26  C   UNL     1      -1.163  -1.519  25.237  0.00  0.00    +0.231 C 
ATOM     47  H   UNL     1      -2.454  -0.033  25.986  0.00  0.00    +0.145 HD
ATOM     48  H   UNL     1      -2.974  -1.656  26.270  0.00  0.00    +0.145 HD
ENDBRANCH  20  26
BRANCH  20  23
ATOM     23  C   UNL     1       0.710  -0.960  23.661  0.00  0.00    +0.069 C 
BRANCH  23  24
ATOM     12  N   UNL     1       3.168   1.683  22.963  0.00  0.00    -0.360 N 
ATOM     24  C   UNL     1       1.909  -0.083  23.435  0.00  0.00    -0.020 A 
ATOM     27  C   UNL     1       3.274  -0.465  23.558  0.00  0.00    +0.003 A 
ATOM     31  C   UNL     1       1.876   1.243  23.068  0.00  0.00    +0.087 A 
ATOM     32  C   UNL     1       4.043   0.661  23.256  0.00  0.00    +0.047 A 
ATOM     34  C   UNL     1       3.931  -1.664  23.898  0.00  0.00    +0.010 A 
ATOM     35  C   UNL     1       5.442   0.648  23.279  0.00  0.00    +0.026 A 
ATOM     36  C   UNL     1       5.330  -1.692  23.923  0.00  0.00    +0.001 A 
ATOM     37  C   UNL     1       6.072  -0.553  23.618  0.00  0.00    +0.002 A 
ATOM     46  H   UNL     1       3.441   2.622  22.707  0.00  0.00    +0.165 HD
ENDBRANCH  23  24
ENDBRANCH  20  23
ENDBRANCH   9  20
ENDBRANCH  15  18
TORSDOF 8
ENDMDL
