MODEL 1
REMARK VINA RESULT:       2.8      0.000      0.000
REMARK  Name = 40777646
REMARK  11 active torsions:
REMARK  status: ('A' for Active; 'I' for Inactive)
REMARK    1  A    between atoms: N_2  and  C_8
REMARK    2  A    between atoms: N_2  and  C_14
REMARK    3  A    between atoms: N_3  and  C_17
REMARK    4  A    between atoms: N_5  and  C_25
REMARK    5  A    between atoms: N_5  and  C_30
REMARK    6  A    between atoms: N_5  and  C_31
REMARK    7  A    between atoms: C_6  and  C_9
REMARK    8  A    between atoms: C_12  and  C_15
REMARK    9  A    between atoms: C_13  and  C_16
REMARK   10  A    between atoms: C_14  and  C_18
REMARK   11  A    between atoms: C_28  and  C_29
REMARK                            x       y       z     vdW  Elec       q    Type
REMARK                         _______ _______ _______ _____ _____    ______ ____
ROOT
ATOM      6  C   UNL     1      -2.656   1.913  23.739  0.00  0.00    +0.047 C 
ATOM      7  C   UNL     1      -3.397   2.386  25.003  0.00  0.00    +0.035 C 
ATOM      8  C   UNL     1      -4.713   3.018  24.518  0.00  0.00    +0.078 C 
ATOM     10  C   UNL     1      -3.274   2.766  22.670  0.00  0.00    -0.021 C 
ATOM     11  C   UNL     1      -4.396   3.358  23.096  0.00  0.00    -0.012 C 
ENDROOT
BRANCH   6   9
ATOM      3  N   UNL     1       1.000   1.681  23.734  0.00  0.00    -0.236 N 
ATOM      4  N   UNL     1       0.911   2.873  24.348  0.00  0.00    -0.171 NA
ATOM      9  C   UNL     1      -1.153   2.030  23.848  0.00  0.00    +0.003 A 
ATOM     12  C   UNL     1      -0.208   1.133  23.414  0.00  0.00    +0.046 A 
ATOM     13  C   UNL     1      -0.407   3.082  24.414  0.00  0.00    +0.064 A 
ATOM     15  C   UNL     1      -0.353  -0.169  22.735  0.00  0.00    +0.066 C 
ATOM     16  C   UNL     1      -0.914   4.318  25.035  0.00  0.00    +0.068 C 
BRANCH   3  17
ATOM      1 CL   UNL     1       4.046  -2.403  24.041  0.00  0.00    -0.083 Cl
ATOM     17  C   UNL     1       2.254   1.123  23.486  0.00  0.00    +0.067 A 
ATOM     19  C   UNL     1       2.511  -0.202  23.839  0.00  0.00    +0.048 A 
ATOM     20  C   UNL     1       3.252   1.889  22.883  0.00  0.00    +0.028 A 
ATOM     26  C   UNL     1       3.765  -0.760  23.591  0.00  0.00    +0.046 A 
ATOM     27  C   UNL     1       4.505   1.331  22.633  0.00  0.00    +0.007 A 
ATOM     28  C   UNL     1       4.762   0.006  22.988  0.00  0.00    -0.032 A 
ATOM     29  C   UNL     1       6.118  -0.555  22.703  0.00  0.00    +0.045 C 
ENDBRANCH   3  17
ENDBRANCH   6   9
BRANCH   8   2
ATOM      2  N   UNL     1      -5.833   2.087  24.607  0.00  0.00    -0.306 NA
ATOM     32  H   UNL     1      -5.911   1.570  23.732  0.00  0.00    +0.123 HD
BRANCH   2  14
ATOM     14  C   UNL     1      -5.639   1.141  25.698  0.00  0.00    +0.116 C 
BRANCH  14  18
ATOM     18  C   UNL     1      -4.637   0.074  25.345  0.00  0.00    -0.033 A 
ATOM     21  C   UNL     1      -3.602  -0.230  26.229  0.00  0.00    +0.007 A 
ATOM     22  C   UNL     1      -4.745  -0.611  24.136  0.00  0.00    +0.007 A 
ATOM     23  C   UNL     1      -2.673  -1.218  25.903  0.00  0.00    +0.023 A 
ATOM     24  C   UNL     1      -3.817  -1.600  23.809  0.00  0.00    +0.023 A 
ATOM     25  C   UNL     1      -2.781  -1.903  24.693  0.00  0.00    +0.029 A 
BRANCH  25   5
ATOM      5  N   UNL     1      -1.842  -2.903  24.362  0.00  0.00    -0.336 N 
ATOM     30  C   UNL     1      -0.553  -2.947  25.024  0.00  0.00    +0.129 C 
ATOM     31  C   UNL     1      -2.150  -3.893  23.350  0.00  0.00    +0.129 C 
ENDBRANCH  25   5
ENDBRANCH  14  18
ENDBRANCH   2  14
ENDBRANCH   8   2
TORSDOF 6
ENDMDL
MODEL 2
REMARK VINA RESULT:       3.5      1.490      4.300
REMARK  Name = 40777646
REMARK  11 active torsions:
REMARK  status: ('A' for Active; 'I' for Inactive)
REMARK    1  A    between atoms: N_2  and  C_8
REMARK    2  A    between atoms: N_2  and  C_14
REMARK    3  A    between atoms: N_3  and  C_17
REMARK    4  A    between atoms: N_5  and  C_25
REMARK    5  A    between atoms: N_5  and  C_30
REMARK    6  A    between atoms: N_5  and  C_31
REMARK    7  A    between atoms: C_6  and  C_9
REMARK    8  A    between atoms: C_12  and  C_15
REMARK    9  A    between atoms: C_13  and  C_16
REMARK   10  A    between atoms: C_14  and  C_18
REMARK   11  A    between atoms: C_28  and  C_29
REMARK                            x       y       z     vdW  Elec       q    Type
REMARK                         _______ _______ _______ _____ _____    ______ ____
ROOT
ATOM      6  C   UNL     1      -2.856   0.329  24.577  0.00  0.00    +0.047 C 
ATOM      7  C   UNL     1      -3.960  -0.181  23.632  0.00  0.00    +0.035 C 
ATOM      8  C   UNL     1      -5.247  -0.246  24.471  0.00  0.00    +0.078 C 
ATOM     10  C   UNL     1      -3.410  -0.015  25.928  0.00  0.00    -0.021 C 
ATOM     11  C   UNL     1      -4.711  -0.319  25.867  0.00  0.00    -0.012 C 
ENDROOT
BRANCH   6   9
ATOM      3  N   UNL     1       0.624  -0.558  23.853  0.00  0.00    -0.236 N 
ATOM      4  N   UNL     1       0.140  -1.810  23.897  0.00  0.00    -0.171 NA
ATOM      9  C   UNL     1      -1.497  -0.264  24.283  0.00  0.00    +0.003 A 
ATOM     12  C   UNL     1      -0.316   0.406  24.077  0.00  0.00    +0.046 A 
ATOM     13  C   UNL     1      -1.156  -1.625  24.161  0.00  0.00    +0.064 A 
ATOM     15  C   UNL     1      -0.012   1.850  24.077  0.00  0.00    +0.066 C 
ATOM     16  C   UNL     1      -2.043  -2.794  24.290  0.00  0.00    +0.068 C 
BRANCH   3  17
ATOM      1 CL   UNL     1       5.394  -2.362  24.074  0.00  0.00    -0.083 Cl
ATOM     17  C   UNL     1       1.979  -0.348  23.593  0.00  0.00    +0.067 A 
ATOM     19  C   UNL     1       2.913  -1.332  23.919  0.00  0.00    +0.048 A 
ATOM     20  C   UNL     1       2.400   0.846  23.007  0.00  0.00    +0.028 A 
ATOM     26  C   UNL     1       4.267  -1.122  23.658  0.00  0.00    +0.046 A 
ATOM     27  C   UNL     1       3.753   1.056  22.745  0.00  0.00    +0.007 A 
ATOM     28  C   UNL     1       4.688   0.072  23.071  0.00  0.00    -0.032 A 
ATOM     29  C   UNL     1       6.129   0.335  22.775  0.00  0.00    +0.045 C 
ENDBRANCH   3  17
ENDBRANCH   6   9
BRANCH   8   2
ATOM      2  N   UNL     1      -6.084   0.934  24.282  0.00  0.00    -0.306 NA
ATOM     32  H   UNL     1      -7.056   0.644  24.179  0.00  0.00    +0.123 HD
BRANCH   2  14
ATOM     14  C   UNL     1      -5.978   1.837  25.419  0.00  0.00    +0.116 C 
BRANCH  14  18
ATOM     18  C   UNL     1      -4.803   2.771  25.287  0.00  0.00    -0.033 A 
ATOM     21  C   UNL     1      -4.203   3.301  26.429  0.00  0.00    +0.007 A 
ATOM     22  C   UNL     1      -4.316   3.103  24.024  0.00  0.00    +0.007 A 
ATOM     23  C   UNL     1      -3.114   4.165  26.307  0.00  0.00    +0.023 A 
ATOM     24  C   UNL     1      -3.228   3.967  23.902  0.00  0.00    +0.023 A 
ATOM     25  C   UNL     1      -2.627   4.498  25.043  0.00  0.00    +0.029 A 
BRANCH  25   5
ATOM      5  N   UNL     1      -1.527   5.372  24.919  0.00  0.00    -0.336 N 
ATOM     30  C   UNL     1      -1.719   6.807  24.986  0.00  0.00    +0.129 C 
ATOM     31  C   UNL     1      -0.192   4.847  24.715  0.00  0.00    +0.129 C 
ENDBRANCH  25   5
ENDBRANCH  14  18
ENDBRANCH   2  14
ENDBRANCH   8   2
TORSDOF 6
ENDMDL
MODEL 3
REMARK VINA RESULT:       4.1      1.465      4.483
REMARK  Name = 40777646
REMARK  11 active torsions:
REMARK  status: ('A' for Active; 'I' for Inactive)
REMARK    1  A    between atoms: N_2  and  C_8
REMARK    2  A    between atoms: N_2  and  C_14
REMARK    3  A    between atoms: N_3  and  C_17
REMARK    4  A    between atoms: N_5  and  C_25
REMARK    5  A    between atoms: N_5  and  C_30
REMARK    6  A    between atoms: N_5  and  C_31
REMARK    7  A    between atoms: C_6  and  C_9
REMARK    8  A    between atoms: C_12  and  C_15
REMARK    9  A    between atoms: C_13  and  C_16
REMARK   10  A    between atoms: C_14  and  C_18
REMARK   11  A    between atoms: C_28  and  C_29
REMARK                            x       y       z     vdW  Elec       q    Type
REMARK                         _______ _______ _______ _____ _____    ______ ____
ROOT
ATOM      6  C   UNL     1      -3.543  -0.369  25.235  0.00  0.00    +0.047 C 
ATOM      7  C   UNL     1      -3.905   1.084  24.877  0.00  0.00    +0.035 C 
ATOM      8  C   UNL     1      -5.428   1.108  24.664  0.00  0.00    +0.078 C 
ATOM     10  C   UNL     1      -4.703  -1.134  24.670  0.00  0.00    -0.021 C 
ATOM     11  C   UNL     1      -5.728  -0.329  24.369  0.00  0.00    -0.012 C 
ENDROOT
BRANCH   6   9
ATOM      3  N   UNL     1      -0.106  -0.850  24.061  0.00  0.00    -0.236 N 
ATOM      4  N   UNL     1      -0.527  -2.111  23.861  0.00  0.00    -0.171 NA
ATOM      9  C   UNL     1      -2.191  -0.795  24.710  0.00  0.00    +0.003 A 
ATOM     12  C   UNL     1      -1.064  -0.022  24.568  0.00  0.00    +0.046 A 
ATOM     13  C   UNL     1      -1.802  -2.071  24.260  0.00  0.00    +0.064 A 
ATOM     15  C   UNL     1      -0.828   1.404  24.867  0.00  0.00    +0.066 C 
ATOM     16  C   UNL     1      -2.619  -3.294  24.194  0.00  0.00    +0.068 C 
BRANCH   3  17
ATOM      1 CL   UNL     1       4.807  -2.226  23.916  0.00  0.00    -0.083 Cl
ATOM     17  C   UNL     1       1.208  -0.502  23.749  0.00  0.00    +0.067 A 
ATOM     19  C   UNL     1       2.241  -1.417  23.957  0.00  0.00    +0.048 A 
ATOM     20  C   UNL     1       1.490   0.760  23.226  0.00  0.00    +0.028 A 
ATOM     26  C   UNL     1       3.555  -1.069  23.645  0.00  0.00    +0.046 A 
ATOM     27  C   UNL     1       2.804   1.108  22.912  0.00  0.00    +0.007 A 
ATOM     28  C   UNL     1       3.837   0.194  23.122  0.00  0.00    -0.032 A 
ATOM     29  C   UNL     1       5.231   0.604  22.773  0.00  0.00    +0.045 C 
ENDBRANCH   3  17
ENDBRANCH   6   9
BRANCH   8   2
ATOM      2  N   UNL     1      -6.139   1.568  25.852  0.00  0.00    -0.306 NA
ATOM     32  H   UNL     1      -5.724   1.141  26.680  0.00  0.00    +0.123 HD
BRANCH   2  14
ATOM     14  C   UNL     1      -6.061   3.018  25.978  0.00  0.00    +0.116 C 
BRANCH  14  18
ATOM     18  C   UNL     1      -4.700   3.541  25.601  0.00  0.00    -0.033 A 
ATOM     21  C   UNL     1      -4.409   3.825  24.266  0.00  0.00    +0.007 A 
ATOM     22  C   UNL     1      -3.733   3.742  26.585  0.00  0.00    +0.007 A 
ATOM     23  C   UNL     1      -3.149   4.311  23.916  0.00  0.00    +0.023 A 
ATOM     24  C   UNL     1      -2.473   4.228  26.234  0.00  0.00    +0.023 A 
ATOM     25  C   UNL     1      -2.182   4.512  24.900  0.00  0.00    +0.029 A 
BRANCH  25   5
ATOM      5  N   UNL     1      -0.907   5.003  24.546  0.00  0.00    -0.336 N 
ATOM     30  C   UNL     1       0.033   4.159  23.837  0.00  0.00    +0.129 C 
ATOM     31  C   UNL     1      -0.518   6.355  24.896  0.00  0.00    +0.129 C 
ENDBRANCH  25   5
ENDBRANCH  14  18
ENDBRANCH   2  14
ENDBRANCH   8   2
TORSDOF 6
ENDMDL
MODEL 4
REMARK VINA RESULT:       5.8      1.357      3.982
REMARK  Name = 40777646
REMARK  11 active torsions:
REMARK  status: ('A' for Active; 'I' for Inactive)
REMARK    1  A    between atoms: N_2  and  C_8
REMARK    2  A    between atoms: N_2  and  C_14
REMARK    3  A    between atoms: N_3  and  C_17
REMARK    4  A    between atoms: N_5  and  C_25
REMARK    5  A    between atoms: N_5  and  C_30
REMARK    6  A    between atoms: N_5  and  C_31
REMARK    7  A    between atoms: C_6  and  C_9
REMARK    8  A    between atoms: C_12  and  C_15
REMARK    9  A    between atoms: C_13  and  C_16
REMARK   10  A    between atoms: C_14  and  C_18
REMARK   11  A    between atoms: C_28  and  C_29
REMARK                            x       y       z     vdW  Elec       q    Type
REMARK                         _______ _______ _______ _____ _____    ______ ____
ROOT
ATOM      6  C   UNL     1      -1.894  -0.181  24.648  0.00  0.00    +0.047 C 
ATOM      7  C   UNL     1      -2.222  -1.505  23.934  0.00  0.00    +0.035 C 
ATOM      8  C   UNL     1      -3.074  -2.324  24.919  0.00  0.00    +0.078 C 
ATOM     10  C   UNL     1      -2.066  -0.547  26.092  0.00  0.00    -0.021 C 
ATOM     11  C   UNL     1      -2.715  -1.708  26.235  0.00  0.00    -0.012 C 
ENDROOT
BRANCH   6   9
ATOM      3  N   UNL     1       1.588   0.589  23.808  0.00  0.00    -0.236 N 
ATOM      4  N   UNL     1       1.127   1.851  23.776  0.00  0.00    -0.171 NA
ATOM      9  C   UNL     1      -0.529   0.366  24.294  0.00  0.00    +0.003 A 
ATOM     12  C   UNL     1       0.636  -0.339  24.114  0.00  0.00    +0.046 A 
ATOM     13  C   UNL     1      -0.168   1.708  24.073  0.00  0.00    +0.064 A 
ATOM     15  C   UNL     1       0.913  -1.786  24.205  0.00  0.00    +0.066 C 
ATOM     16  C   UNL     1      -1.032   2.899  24.134  0.00  0.00    +0.068 C 
BRANCH   3  17
ATOM      1 CL   UNL     1       5.502  -2.677  24.059  0.00  0.00    -0.083 Cl
ATOM     17  C   UNL     1       2.934   0.337  23.542  0.00  0.00    +0.067 A 
ATOM     19  C   UNL     1       3.496  -0.892  23.886  0.00  0.00    +0.048 A 
ATOM     20  C   UNL     1       3.719   1.315  22.931  0.00  0.00    +0.028 A 
ATOM     26  C   UNL     1       4.842  -1.144  23.620  0.00  0.00    +0.046 A 
ATOM     27  C   UNL     1       5.064   1.064  22.663  0.00  0.00    +0.007 A 
ATOM     28  C   UNL     1       5.627  -0.166  23.008  0.00  0.00    -0.032 A 
ATOM     29  C   UNL     1       7.072  -0.397  22.704  0.00  0.00    +0.045 C 
ENDBRANCH   3  17
ENDBRANCH   6   9
BRANCH   8   2
ATOM      2  N   UNL     1      -4.501  -2.200  24.643  0.00  0.00    -0.306 NA
ATOM     32  H   UNL     1      -4.982  -1.900  25.490  0.00  0.00    +0.123 HD
BRANCH   2  14
ATOM     14  C   UNL     1      -4.746  -1.225  23.589  0.00  0.00    +0.116 C 
BRANCH  14  18
ATOM     18  C   UNL     1      -4.759   0.184  24.119  0.00  0.00    -0.033 A 
ATOM     21  C   UNL     1      -4.071   1.191  23.442  0.00  0.00    +0.007 A 
ATOM     22  C   UNL     1      -5.460   0.482  25.288  0.00  0.00    +0.007 A 
ATOM     23  C   UNL     1      -4.084   2.496  23.933  0.00  0.00    +0.023 A 
ATOM     24  C   UNL     1      -5.472   1.788  25.779  0.00  0.00    +0.023 A 
ATOM     25  C   UNL     1      -4.784   2.794  25.101  0.00  0.00    +0.029 A 
BRANCH  25   5
ATOM      5  N   UNL     1      -4.797   4.115  25.598  0.00  0.00    -0.336 N 
ATOM     30  C   UNL     1      -6.004   4.913  25.529  0.00  0.00    +0.129 C 
ATOM     31  C   UNL     1      -3.600   4.693  26.176  0.00  0.00    +0.129 C 
ENDBRANCH  25   5
ENDBRANCH  14  18
ENDBRANCH   2  14
ENDBRANCH   8   2
TORSDOF 6
ENDMDL
MODEL 5
REMARK VINA RESULT:       6.7      1.945      4.176
REMARK  Name = 40777646
REMARK  11 active torsions:
REMARK  status: ('A' for Active; 'I' for Inactive)
REMARK    1  A    between atoms: N_2  and  C_8
REMARK    2  A    between atoms: N_2  and  C_14
REMARK    3  A    between atoms: N_3  and  C_17
REMARK    4  A    between atoms: N_5  and  C_25
REMARK    5  A    between atoms: N_5  and  C_30
REMARK    6  A    between atoms: N_5  and  C_31
REMARK    7  A    between atoms: C_6  and  C_9
REMARK    8  A    between atoms: C_12  and  C_15
REMARK    9  A    between atoms: C_13  and  C_16
REMARK   10  A    between atoms: C_14  and  C_18
REMARK   11  A    between atoms: C_28  and  C_29
REMARK                            x       y       z     vdW  Elec       q    Type
REMARK                         _______ _______ _______ _____ _____    ______ ____
ROOT
ATOM      6  C   UNL     1      -3.532   0.815  24.882  0.00  0.00    +0.047 C 
ATOM      7  C   UNL     1      -4.512   1.850  24.298  0.00  0.00    +0.035 C 
ATOM      8  C   UNL     1      -5.921   1.262  24.488  0.00  0.00    +0.078 C 
ATOM     10  C   UNL     1      -4.338  -0.449  24.833  0.00  0.00    -0.021 C 
ATOM     11  C   UNL     1      -5.637  -0.201  24.627  0.00  0.00    -0.012 C 
ENDROOT
BRANCH   6   9
ATOM      3  N   UNL     1      -0.144   0.389  23.555  0.00  0.00    -0.236 N 
ATOM      4  N   UNL     1      -0.660   1.026  22.490  0.00  0.00    -0.171 NA
ATOM      9  C   UNL     1      -2.216   0.754  24.139  0.00  0.00    +0.003 A 
ATOM     12  C   UNL     1      -1.035   0.201  24.571  0.00  0.00    +0.046 A 
ATOM     13  C   UNL     1      -1.927   1.246  22.852  0.00  0.00    +0.064 A 
ATOM     15  C   UNL     1      -0.691  -0.475  25.837  0.00  0.00    +0.066 C 
ATOM     16  C   UNL     1      -2.836   1.938  21.923  0.00  0.00    +0.068 C 
BRANCH   3  17
ATOM      1 CL   UNL     1       4.719   1.617  22.608  0.00  0.00    -0.083 Cl
ATOM     17  C   UNL     1       1.193  -0.009  23.542  0.00  0.00    +0.067 A 
ATOM     19  C   UNL     1       2.183   0.884  23.132  0.00  0.00    +0.048 A 
ATOM     20  C   UNL     1       1.540  -1.300  23.941  0.00  0.00    +0.028 A 
ATOM     26  C   UNL     1       3.520   0.486  23.121  0.00  0.00    +0.046 A 
ATOM     27  C   UNL     1       2.876  -1.698  23.931  0.00  0.00    +0.007 A 
ATOM     28  C   UNL     1       3.867  -0.805  23.520  0.00  0.00    -0.032 A 
ATOM     29  C   UNL     1       5.288  -1.269  23.523  0.00  0.00    +0.045 C 
ENDBRANCH   3  17
ENDBRANCH   6   9
BRANCH   8   2
ATOM      2  N   UNL     1      -6.580   1.792  25.676  0.00  0.00    -0.306 NA
ATOM     32  H   UNL     1      -6.190   1.345  26.505  0.00  0.00    +0.123 HD
BRANCH   2  14
ATOM     14  C   UNL     1      -6.387   3.233  25.781  0.00  0.00    +0.116 C 
BRANCH  14  18
ATOM     18  C   UNL     1      -4.943   3.620  25.598  0.00  0.00    -0.033 A 
ATOM     21  C   UNL     1      -4.512   4.146  24.379  0.00  0.00    +0.007 A 
ATOM     22  C   UNL     1      -4.038   3.454  26.645  0.00  0.00    +0.007 A 
ATOM     23  C   UNL     1      -3.175   4.506  24.209  0.00  0.00    +0.023 A 
ATOM     24  C   UNL     1      -2.701   3.814  26.475  0.00  0.00    +0.023 A 
ATOM     25  C   UNL     1      -2.270   4.340  25.257  0.00  0.00    +0.029 A 
BRANCH  25   5
ATOM      5  N   UNL     1      -0.918   4.703  25.085  0.00  0.00    -0.336 N 
ATOM     30  C   UNL     1       0.134   3.724  25.269  0.00  0.00    +0.129 C 
ATOM     31  C   UNL     1      -0.563   6.063  24.730  0.00  0.00    +0.129 C 
ENDBRANCH  25   5
ENDBRANCH  14  18
ENDBRANCH   2  14
ENDBRANCH   8   2
TORSDOF 6
ENDMDL
