MODEL 1
REMARK VINA RESULT:      -1.6      0.000      0.000
REMARK  Name = 26744782
REMARK  5 active torsions:
REMARK  status: ('A' for Active; 'I' for Inactive)
REMARK    1  A    between atoms: N_5  and  C_16
REMARK    2  A    between atoms: C_11  and  C_17
REMARK    3  A    between atoms: C_16  and  C_18
REMARK    4  A    between atoms: C_20  and  C_22
REMARK    5  A    between atoms: C_28  and  C_31
REMARK                            x       y       z     vdW  Elec       q    Type
REMARK                         _______ _______ _______ _____ _____    ______ ____
ROOT
ATOM      5  N   UNL     1      -6.082  -9.327  11.658  0.00  0.00    -0.280 NA
ATOM      6  N   UNL     1      -8.999  -8.011   9.703  0.00  0.00    -0.347 N 
ATOM      7  N   UNL     1      -7.447  -7.292   8.262  0.00  0.00    -0.240 NA
ATOM     11  C   UNL     1      -5.209  -9.485  10.445  0.00  0.00    +0.152 C 
ATOM     12  C   UNL     1      -5.434  -8.342   9.392  0.00  0.00    +0.086 C 
ATOM     13  C   UNL     1      -7.534  -9.351  11.317  0.00  0.00    +0.140 C 
ATOM     14  C   UNL     1      -7.804  -8.492  10.146  0.00  0.00    +0.053 A 
ATOM     15  C   UNL     1      -6.874  -8.046   9.245  0.00  0.00    +0.065 A 
ATOM     19  C   UNL     1      -8.732  -7.292   8.564  0.00  0.00    +0.197 A 
ATOM     32  H   UNL     1      -9.907  -8.155  10.123  0.00  0.00    +0.167 HD
ENDROOT
BRANCH  11  17
ATOM      4  O   UNL     1      -3.177 -10.780  10.904  0.00  0.00    -0.336 OA
ATOM      8  N   UNL     1      -2.862  -8.562  10.912  0.00  0.00    -0.190 NA
ATOM      9  N   UNL     1      -1.819 -10.580  11.185  0.00  0.00    -0.056 NA
ATOM     17  C   UNL     1      -3.717  -9.543  10.758  0.00  0.00    +0.245 A 
ATOM     20  C   UNL     1      -1.711  -9.248  11.172  0.00  0.00    +0.202 A 
BRANCH  20  22
ATOM     22  C   UNL     1      -0.470  -8.572  11.415  0.00  0.00    +0.022 A 
ATOM     25  C   UNL     1      -0.417  -7.518  12.327  0.00  0.00    +0.012 A 
ATOM     26  C   UNL     1       0.684  -8.968  10.739  0.00  0.00    +0.012 A 
ATOM     28  C   UNL     1       1.945  -7.256  11.886  0.00  0.00    +0.055 A 
ATOM     29  C   UNL     1       0.790  -6.861  12.563  0.00  0.00    +0.013 A 
ATOM     30  C   UNL     1       1.890  -8.310  10.974  0.00  0.00    +0.013 A 
BRANCH  28  31
ATOM      1  F   UNL     1       3.970  -7.105  13.149  0.00  0.00    -0.166 F 
ATOM      2  F   UNL     1       3.060  -5.244  12.486  0.00  0.00    -0.166 F 
ATOM      3  F   UNL     1       4.070  -6.538  11.058  0.00  0.00    -0.166 F 
ATOM     31  C   UNL     1       3.235  -6.553  12.139  0.00  0.00    +0.417 C 
ENDBRANCH  28  31
ENDBRANCH  20  22
ENDBRANCH  11  17
BRANCH   5  16
ATOM     16  C   UNL     1      -5.832 -10.369  12.664  0.00  0.00    +0.141 C 
BRANCH  16  18
ATOM     10  N   UNL     1      -7.803  -9.855  13.994  0.00  0.00    -0.259 NA
ATOM     18  C   UNL     1      -6.464 -10.032  13.989  0.00  0.00    +0.055 A 
ATOM     21  C   UNL     1      -5.662  -9.923  15.114  0.00  0.00    +0.024 A 
ATOM     23  C   UNL     1      -6.275  -9.612  16.322  0.00  0.00    +0.003 A 
ATOM     24  C   UNL     1      -8.365  -9.554  15.187  0.00  0.00    +0.111 A 
ATOM     27  C   UNL     1      -7.652  -9.423  16.368  0.00  0.00    +0.020 A 
ENDBRANCH  16  18
ENDBRANCH   5  16
TORSDOF 5
ENDMDL
MODEL 2
REMARK VINA RESULT:      -0.0      1.655      2.350
REMARK  Name = 26744782
REMARK  5 active torsions:
REMARK  status: ('A' for Active; 'I' for Inactive)
REMARK    1  A    between atoms: N_5  and  C_16
REMARK    2  A    between atoms: C_11  and  C_17
REMARK    3  A    between atoms: C_16  and  C_18
REMARK    4  A    between atoms: C_20  and  C_22
REMARK    5  A    between atoms: C_28  and  C_31
REMARK                            x       y       z     vdW  Elec       q    Type
REMARK                         _______ _______ _______ _____ _____    ______ ____
ROOT
ATOM      5  N   UNL     1      -5.731 -10.166  13.559  0.00  0.00    -0.280 NA
ATOM      6  N   UNL     1      -9.453 -10.093  13.109  0.00  0.00    -0.347 N 
ATOM      7  N   UNL     1      -8.982  -9.570  10.987  0.00  0.00    -0.240 NA
ATOM     11  C   UNL     1      -5.462 -10.520  12.123  0.00  0.00    +0.152 C 
ATOM     12  C   UNL     1      -6.463  -9.820  11.136  0.00  0.00    +0.086 C 
ATOM     13  C   UNL     1      -7.100 -10.569  13.994  0.00  0.00    +0.140 C 
ATOM     14  C   UNL     1      -8.100 -10.179  12.979  0.00  0.00    +0.053 A 
ATOM     15  C   UNL     1      -7.838  -9.862  11.673  0.00  0.00    +0.065 A 
ATOM     19  C   UNL     1      -9.941  -9.721  11.880  0.00  0.00    +0.197 A 
ATOM     32  H   UNL     1      -9.997 -10.270  13.943  0.00  0.00    +0.167 HD
ENDROOT
BRANCH  11  17
ATOM      4  O   UNL     1      -3.636 -10.781  10.505  0.00  0.00    -0.336 OA
ATOM      8  N   UNL     1      -3.146  -9.423  12.218  0.00  0.00    -0.190 NA
ATOM      9  N   UNL     1      -2.324 -10.340  10.290  0.00  0.00    -0.056 NA
ATOM     17  C   UNL     1      -4.045 -10.195  11.660  0.00  0.00    +0.245 A 
ATOM     20  C   UNL     1      -2.107  -9.543  11.341  0.00  0.00    +0.202 A 
BRANCH  20  22
ATOM     22  C   UNL     1      -0.867  -8.854  11.544  0.00  0.00    +0.022 A 
ATOM     25  C   UNL     1       0.147  -8.948  10.591  0.00  0.00    +0.012 A 
ATOM     26  C   UNL     1      -0.673  -8.090  12.695  0.00  0.00    +0.012 A 
ATOM     28  C   UNL     1       1.548  -7.513  11.940  0.00  0.00    +0.055 A 
ATOM     29  C   UNL     1       1.354  -8.277  10.788  0.00  0.00    +0.013 A 
ATOM     30  C   UNL     1       0.533  -7.420  12.893  0.00  0.00    +0.013 A 
BRANCH  28  31
ATOM      1  F   UNL     1       3.419  -7.060  13.359  0.00  0.00    -0.166 F 
ATOM      2  F   UNL     1       2.699  -5.439  12.100  0.00  0.00    -0.166 F 
ATOM      3  F   UNL     1       3.792  -7.102  11.223  0.00  0.00    -0.166 F 
ATOM     31  C   UNL     1       2.838  -6.796  12.151  0.00  0.00    +0.417 C 
ENDBRANCH  28  31
ENDBRANCH  20  22
ENDBRANCH  11  17
BRANCH   5  16
ATOM     16  C   UNL     1      -4.761 -10.781  14.477  0.00  0.00    +0.141 C 
BRANCH  16  18
ATOM     10  N   UNL     1      -6.531 -10.555  16.131  0.00  0.00    -0.259 NA
ATOM     18  C   UNL     1      -5.203 -10.677  15.912  0.00  0.00    +0.055 A 
ATOM     21  C   UNL     1      -4.251 -10.711  16.919  0.00  0.00    +0.024 A 
ATOM     23  C   UNL     1      -4.690 -10.614  18.234  0.00  0.00    +0.003 A 
ATOM     24  C   UNL     1      -6.922 -10.464  17.422  0.00  0.00    +0.111 A 
ATOM     27  C   UNL     1      -6.050 -10.488  18.499  0.00  0.00    +0.020 A 
ENDBRANCH  16  18
ENDBRANCH   5  16
TORSDOF 5
ENDMDL
MODEL 3
REMARK VINA RESULT:       1.6     14.421     16.080
REMARK  Name = 26744782
REMARK  5 active torsions:
REMARK  status: ('A' for Active; 'I' for Inactive)
REMARK    1  A    between atoms: N_5  and  C_16
REMARK    2  A    between atoms: C_11  and  C_17
REMARK    3  A    between atoms: C_16  and  C_18
REMARK    4  A    between atoms: C_20  and  C_22
REMARK    5  A    between atoms: C_28  and  C_31
REMARK                            x       y       z     vdW  Elec       q    Type
REMARK                         _______ _______ _______ _____ _____    ______ ____
ROOT
ATOM      5  N   UNL     1      -4.105   1.051  24.948  0.00  0.00    -0.280 NA
ATOM      6  N   UNL     1      -6.416   3.773  26.093  0.00  0.00    -0.347 N 
ATOM      7  N   UNL     1      -4.963   5.148  25.094  0.00  0.00    -0.240 NA
ATOM     11  C   UNL     1      -3.600   1.835  23.770  0.00  0.00    +0.152 C 
ATOM     12  C   UNL     1      -3.466   3.368  24.083  0.00  0.00    +0.086 C 
ATOM     13  C   UNL     1      -5.452   1.508  25.397  0.00  0.00    +0.140 C 
ATOM     14  C   UNL     1      -5.502   2.983  25.466  0.00  0.00    +0.053 A 
ATOM     15  C   UNL     1      -4.630   3.845  24.857  0.00  0.00    +0.065 A 
ATOM     19  C   UNL     1      -6.048   5.072  25.840  0.00  0.00    +0.197 A 
ATOM     32  H   UNL     1      -7.213   3.470  26.636  0.00  0.00    +0.167 HD
ENDROOT
BRANCH  11  17
ATOM      4  O   UNL     1      -2.257   0.848  21.969  0.00  0.00    -0.336 OA
ATOM      8  N   UNL     1      -1.084   1.340  23.813  0.00  0.00    -0.190 NA
ATOM      9  N   UNL     1      -0.935   0.472  21.701  0.00  0.00    -0.056 NA
ATOM     17  C   UNL     1      -2.258   1.350  23.232  0.00  0.00    +0.245 A 
ATOM     20  C   UNL     1      -0.305   0.793  22.835  0.00  0.00    +0.202 A 
BRANCH  20  22
ATOM     22  C   UNL     1       1.101   0.582  23.023  0.00  0.00    +0.022 A 
ATOM     25  C   UNL     1       1.967   1.673  23.092  0.00  0.00    +0.012 A 
ATOM     26  C   UNL     1       1.602  -0.715  23.138  0.00  0.00    +0.012 A 
ATOM     28  C   UNL     1       3.836   0.170  23.389  0.00  0.00    +0.055 A 
ATOM     29  C   UNL     1       3.335   1.467  23.276  0.00  0.00    +0.013 A 
ATOM     30  C   UNL     1       2.969  -0.921  23.320  0.00  0.00    +0.013 A 
BRANCH  28  31
ATOM      1  F   UNL     1       5.987  -0.219  22.418  0.00  0.00    -0.166 F 
ATOM      2  F   UNL     1       5.565  -1.162  24.332  0.00  0.00    -0.166 F 
ATOM      3  F   UNL     1       5.925   0.980  24.224  0.00  0.00    -0.166 F 
ATOM     31  C   UNL     1       5.298  -0.051  23.585  0.00  0.00    +0.417 C 
ENDBRANCH  28  31
ENDBRANCH  20  22
ENDBRANCH  11  17
BRANCH   5  16
ATOM     16  C   UNL     1      -4.181  -0.390  24.669  0.00  0.00    +0.141 C 
BRANCH  16  18
ATOM     10  N   UNL     1      -2.090  -0.568  25.900  0.00  0.00    -0.259 NA
ATOM     18  C   UNL     1      -2.867  -1.080  24.920  0.00  0.00    +0.055 A 
ATOM     21  C   UNL     1      -2.522  -2.182  24.153  0.00  0.00    +0.024 A 
ATOM     23  C   UNL     1      -1.302  -2.798  24.410  0.00  0.00    +0.003 A 
ATOM     24  C   UNL     1      -0.911  -1.193  26.122  0.00  0.00    +0.111 A 
ATOM     27  C   UNL     1      -0.476  -2.301  25.412  0.00  0.00    +0.020 A 
ENDBRANCH  16  18
ENDBRANCH   5  16
TORSDOF 5
ENDMDL
