MODEL 1
REMARK VINA RESULT:       0.3      0.000      0.000
REMARK  Name = 40779807
REMARK  5 active torsions:
REMARK  status: ('A' for Active; 'I' for Inactive)
REMARK    1  A    between atoms: N_3  and  C_15
REMARK    2  A    between atoms: N_4  and  C_16
REMARK    3  A    between atoms: C_9  and  C_15
REMARK    4  A    between atoms: C_10  and  C_16
REMARK    5  A    between atoms: C_21  and  C_23
REMARK                            x       y       z     vdW  Elec       q    Type
REMARK                         _______ _______ _______ _____ _____    ______ ____
ROOT
ATOM      2  N   UNL     1      -3.429   4.551  24.542  0.00  0.00    -0.298 NA
ATOM      8  C   UNL     1      -1.102   3.553  25.140  0.00  0.00    -0.003 C 
ATOM      9  C   UNL     1      -1.615   2.990  23.794  0.00  0.00    +0.020 C 
ATOM     10  C   UNL     1      -3.455   3.986  25.919  0.00  0.00    +0.074 C 
ATOM     11  C   UNL     1      -2.134   3.254  26.244  0.00  0.00    +0.024 C 
ATOM     12  C   UNL     1      -3.054   3.502  23.563  0.00  0.00    +0.089 C 
ATOM     13  C   UNL     1      -1.029   5.084  24.985  0.00  0.00    +0.019 C 
ATOM     14  C   UNL     1      -2.392   5.611  24.504  0.00  0.00    +0.085 C 
ENDROOT
BRANCH   9  15
ATOM     15  C   UNL     1      -1.538   1.467  23.711  0.00  0.00    +0.089 C 
BRANCH  15   3
ATOM      3  N   UNL     1      -0.215   1.031  23.267  0.00  0.00    -0.299 NA
ATOM      5  N   UNL     1       2.524   0.281  23.577  0.00  0.00    -0.297 N 
ATOM      6  N   UNL     1       4.150  -1.389  23.445  0.00  0.00    -0.223 NA
ATOM      7  N   UNL     1       4.763   0.917  23.780  0.00  0.00    -0.223 NA
ATOM     17  C   UNL     1       0.139  -0.252  23.886  0.00  0.00    +0.103 C 
ATOM     18  C   UNL     1       0.798   2.041  23.596  0.00  0.00    +0.103 C 
ATOM     19  C   UNL     1       1.498  -0.748  23.386  0.00  0.00    +0.123 C 
ATOM     20  C   UNL     1       2.178   1.621  23.085  0.00  0.00    +0.123 C 
ATOM     22  C   UNL     1       3.876  -0.080  23.602  0.00  0.00    +0.218 A 
ATOM     26  C   UNL     1       5.462  -1.704  23.474  0.00  0.00    +0.116 A 
ATOM     27  C   UNL     1       6.056   0.532  23.800  0.00  0.00    +0.116 A 
ATOM     28  C   UNL     1       6.468  -0.776  23.651  0.00  0.00    +0.039 A 
ENDBRANCH  15   3
ENDBRANCH   9  15
BRANCH  10  16
ATOM     16  C   UNL     1      -4.673   3.091  26.159  0.00  0.00    +0.123 C 
BRANCH  16   4
ATOM      1  O   UNL     1      -5.359   1.433  23.917  0.00  0.00    -0.270 OA
ATOM      4  N   UNL     1      -4.337   1.713  25.982  0.00  0.00    -0.310 N 
ATOM     21  C   UNL     1      -4.711   0.979  24.858  0.00  0.00    +0.244 C 
ATOM     32  H   UNL     1      -3.855   1.259  26.750  0.00  0.00    +0.149 HD
BRANCH  21  23
ATOM     23  C   UNL     1      -4.307  -0.450  24.837  0.00  0.00    +0.037 A 
ATOM     24  C   UNL     1      -4.641  -1.255  23.748  0.00  0.00    +0.013 A 
ATOM     25  C   UNL     1      -3.591  -0.987  25.906  0.00  0.00    +0.013 A 
ATOM     29  C   UNL     1      -4.260  -2.596  23.728  0.00  0.00    +0.001 A 
ATOM     30  C   UNL     1      -3.210  -2.328  25.887  0.00  0.00    +0.001 A 
ATOM     31  C   UNL     1      -3.543  -3.133  24.798  0.00  0.00    +0.000 A 
ENDBRANCH  21  23
ENDBRANCH  16   4
ENDBRANCH  10  16
TORSDOF 5
ENDMDL
MODEL 2
REMARK VINA RESULT:       2.0      2.560      4.671
REMARK  Name = 40779807
REMARK  5 active torsions:
REMARK  status: ('A' for Active; 'I' for Inactive)
REMARK    1  A    between atoms: N_3  and  C_15
REMARK    2  A    between atoms: N_4  and  C_16
REMARK    3  A    between atoms: C_9  and  C_15
REMARK    4  A    between atoms: C_10  and  C_16
REMARK    5  A    between atoms: C_21  and  C_23
REMARK                            x       y       z     vdW  Elec       q    Type
REMARK                         _______ _______ _______ _____ _____    ______ ____
ROOT
ATOM      2  N   UNL     1      -3.612   2.688  26.002  0.00  0.00    -0.298 NA
ATOM      8  C   UNL     1      -4.839   1.740  23.913  0.00  0.00    -0.003 C 
ATOM      9  C   UNL     1      -4.091   0.618  24.671  0.00  0.00    +0.020 C 
ATOM     10  C   UNL     1      -3.243   3.475  24.794  0.00  0.00    +0.074 C 
ATOM     11  C   UNL     1      -3.839   2.842  23.516  0.00  0.00    +0.024 C 
ATOM     12  C   UNL     1      -3.267   1.259  25.810  0.00  0.00    +0.089 C 
ATOM     13  C   UNL     1      -5.835   2.365  24.909  0.00  0.00    +0.019 C 
ATOM     14  C   UNL     1      -5.081   2.790  26.181  0.00  0.00    +0.085 C 
ENDROOT
BRANCH   9  15
ATOM     15  C   UNL     1      -3.219  -0.244  23.761  0.00  0.00    +0.089 C 
BRANCH  15   3
ATOM      3  N   UNL     1      -1.799   0.019  23.991  0.00  0.00    -0.299 NA
ATOM      5  N   UNL     1       1.005  -0.166  23.475  0.00  0.00    -0.297 N 
ATOM      6  N   UNL     1       2.979   0.906  22.837  0.00  0.00    -0.223 NA
ATOM      7  N   UNL     1       3.011  -1.338  23.714  0.00  0.00    -0.223 NA
ATOM     17  C   UNL     1      -1.209   0.705  22.835  0.00  0.00    +0.103 C 
ATOM     18  C   UNL     1      -1.078  -1.233  24.250  0.00  0.00    +0.103 C 
ATOM     19  C   UNL     1       0.264   1.038  23.085  0.00  0.00    +0.123 C 
ATOM     20  C   UNL     1       0.398  -0.964  24.549  0.00  0.00    +0.123 C 
ATOM     22  C   UNL     1       2.397  -0.202  23.336  0.00  0.00    +0.218 A 
ATOM     26  C   UNL     1       4.321   0.838  22.716  0.00  0.00    +0.116 A 
ATOM     27  C   UNL     1       4.352  -1.338  23.565  0.00  0.00    +0.116 A 
ATOM     28  C   UNL     1       5.067  -0.268  23.066  0.00  0.00    +0.039 A 
ENDBRANCH  15   3
ENDBRANCH   9  15
BRANCH  10  16
ATOM     16  C   UNL     1      -1.732   3.683  24.672  0.00  0.00    +0.123 C 
BRANCH  16   4
ATOM      1  O   UNL     1       0.846   2.507  25.136  0.00  0.00    -0.270 OA
ATOM      4  N   UNL     1      -1.089   3.507  25.936  0.00  0.00    -0.310 N 
ATOM     21  C   UNL     1       0.170   2.924  26.073  0.00  0.00    +0.244 C 
ATOM     32  H   UNL     1      -1.620   3.773  26.759  0.00  0.00    +0.149 HD
BRANCH  21  23
ATOM     23  C   UNL     1       0.688   2.788  27.458  0.00  0.00    +0.037 A 
ATOM     24  C   UNL     1       2.060   2.856  27.701  0.00  0.00    +0.013 A 
ATOM     25  C   UNL     1      -0.198   2.595  28.518  0.00  0.00    +0.013 A 
ATOM     29  C   UNL     1       2.545   2.731  29.003  0.00  0.00    +0.001 A 
ATOM     30  C   UNL     1       0.287   2.468  29.819  0.00  0.00    +0.001 A 
ATOM     31  C   UNL     1       1.659   2.537  30.062  0.00  0.00    +0.000 A 
ENDBRANCH  21  23
ENDBRANCH  16   4
ENDBRANCH  10  16
TORSDOF 5
ENDMDL
MODEL 3
REMARK VINA RESULT:       2.8      1.097      4.491
REMARK  Name = 40779807
REMARK  5 active torsions:
REMARK  status: ('A' for Active; 'I' for Inactive)
REMARK    1  A    between atoms: N_3  and  C_15
REMARK    2  A    between atoms: N_4  and  C_16
REMARK    3  A    between atoms: C_9  and  C_15
REMARK    4  A    between atoms: C_10  and  C_16
REMARK    5  A    between atoms: C_21  and  C_23
REMARK                            x       y       z     vdW  Elec       q    Type
REMARK                         _______ _______ _______ _____ _____    ______ ____
ROOT
ATOM      2  N   UNL     1      -3.663  -1.048  26.049  0.00  0.00    -0.298 NA
ATOM      8  C   UNL     1      -3.015  -1.520  23.574  0.00  0.00    -0.003 C 
ATOM      9  C   UNL     1      -1.873  -0.784  24.314  0.00  0.00    +0.020 C 
ATOM     10  C   UNL     1      -4.729  -0.547  25.139  0.00  0.00    +0.074 C 
ATOM     11  C   UNL     1      -4.302  -0.678  23.660  0.00  0.00    +0.024 C 
ATOM     12  C   UNL     1      -2.367  -0.404  25.728  0.00  0.00    +0.089 C 
ATOM     13  C   UNL     1      -3.274  -2.830  24.342  0.00  0.00    +0.019 C 
ATOM     14  C   UNL     1      -3.523  -2.508  25.826  0.00  0.00    +0.085 C 
ENDROOT
BRANCH   9  15
ATOM     15  C   UNL     1      -1.349   0.431  23.554  0.00  0.00    +0.089 C 
BRANCH  15   3
ATOM      3  N   UNL     1       0.041   0.235  23.142  0.00  0.00    -0.299 NA
ATOM      5  N   UNL     1       2.859  -0.037  23.519  0.00  0.00    -0.297 N 
ATOM      6  N   UNL     1       4.751  -1.401  23.417  0.00  0.00    -0.223 NA
ATOM      7  N   UNL     1       4.949   0.971  23.789  0.00  0.00    -0.223 NA
ATOM     17  C   UNL     1       0.595  -0.976  23.759  0.00  0.00    +0.103 C 
ATOM     18  C   UNL     1       0.856   1.400  23.508  0.00  0.00    +0.103 C 
ATOM     19  C   UNL     1       2.031  -1.224  23.292  0.00  0.00    +0.123 C 
ATOM     20  C   UNL     1       2.300   1.230  23.030  0.00  0.00    +0.123 C 
ATOM     22  C   UNL     1       4.252  -0.161  23.578  0.00  0.00    +0.218 A 
ATOM     26  C   UNL     1       6.097  -1.486  23.479  0.00  0.00    +0.116 A 
ATOM     27  C   UNL     1       6.288   0.815  23.840  0.00  0.00    +0.116 A 
ATOM     28  C   UNL     1       6.923  -0.401  23.691  0.00  0.00    +0.039 A 
ENDBRANCH  15   3
ENDBRANCH   9  15
BRANCH  10  16
ATOM     16  C   UNL     1      -5.163   0.880  25.480  0.00  0.00    +0.123 C 
BRANCH  16   4
ATOM      1  O   UNL     1      -5.291   3.747  25.597  0.00  0.00    -0.270 OA
ATOM      4  N   UNL     1      -4.066   1.790  25.361  0.00  0.00    -0.310 N 
ATOM     21  C   UNL     1      -4.217   3.173  25.430  0.00  0.00    +0.244 C 
ATOM     32  H   UNL     1      -3.158   1.385  25.159  0.00  0.00    +0.149 HD
BRANCH  21  23
ATOM     23  C   UNL     1      -2.983   3.982  25.260  0.00  0.00    +0.037 A 
ATOM     24  C   UNL     1      -1.731   3.374  25.358  0.00  0.00    +0.013 A 
ATOM     25  C   UNL     1      -3.075   5.349  25.001  0.00  0.00    +0.013 A 
ATOM     29  C   UNL     1      -0.572   4.134  25.197  0.00  0.00    +0.001 A 
ATOM     30  C   UNL     1      -1.917   6.109  24.840  0.00  0.00    +0.001 A 
ATOM     31  C   UNL     1      -0.665   5.502  24.937  0.00  0.00    +0.000 A 
ENDBRANCH  21  23
ENDBRANCH  16   4
ENDBRANCH  10  16
TORSDOF 5
ENDMDL
