MODEL 1
REMARK VINA RESULT:       5.2      0.000      0.000
REMARK  Name = 51136635
REMARK  11 active torsions:
REMARK  status: ('A' for Active; 'I' for Inactive)
REMARK    1  A    between atoms: S_2  and  N_9
REMARK    2  A    between atoms: S_2  and  C_21
REMARK    3  A    between atoms: O_5  and  C_19
REMARK    4  A    between atoms: O_7  and  C_29
REMARK    5  A    between atoms: O_7  and  C_34
REMARK    6  A    between atoms: O_8  and  C_30
REMARK    7  A    between atoms: O_8  and  C_35
REMARK    8  A    between atoms: C_11  and  C_16
REMARK    9  A    between atoms: C_12  and  C_17
REMARK   10  A    between atoms: C_16  and  C_18
REMARK   11  A    between atoms: C_17  and  C_19
REMARK                            x       y       z     vdW  Elec       q    Type
REMARK                         _______ _______ _______ _____ _____    ______ ____
ROOT
ATOM      9  N   UNL     1      -5.099   0.632  24.951  0.00  0.00    -0.176 NA
ATOM     11  C   UNL     1      -3.169  -0.911  25.218  0.00  0.00    +0.014 C 
ATOM     12  C   UNL     1      -4.059  -2.074  24.717  0.00  0.00    +0.006 C 
ATOM     13  C   UNL     1      -4.042   0.160  25.894  0.00  0.00    +0.113 C 
ATOM     14  C   UNL     1      -5.204  -1.563  23.830  0.00  0.00    +0.021 C 
ATOM     15  C   UNL     1      -6.007  -0.471  24.530  0.00  0.00    +0.110 C 
ENDROOT
BRANCH   9   2
ATOM      2  S   UNL     1      -5.876   2.094  25.394  0.00  0.00    +0.061 S 
ATOM      3  O   UNL     1      -6.258   2.021  26.788  0.00  0.00    -0.153 OA
ATOM      4  O   UNL     1      -6.840   2.442  24.373  0.00  0.00    -0.153 OA
BRANCH   2  21
ATOM      1 CL   UNL     1      -1.051   6.080  24.934  0.00  0.00    -0.084 Cl
ATOM     21  C   UNL     1      -4.518   3.216  25.264  0.00  0.00    +0.106 A 
ATOM     26  C   UNL     1      -3.904   3.426  24.031  0.00  0.00    +0.030 A 
ATOM     27  C   UNL     1      -4.061   3.891  26.396  0.00  0.00    +0.030 A 
ATOM     31  C   UNL     1      -2.831   4.312  23.928  0.00  0.00    +0.022 A 
ATOM     32  C   UNL     1      -2.989   4.777  26.294  0.00  0.00    +0.022 A 
ATOM     33  C   UNL     1      -2.373   4.987  25.060  0.00  0.00    +0.041 A 
ENDBRANCH   2  21
ENDBRANCH   9   2
BRANCH  11  16
ATOM     16  C   UNL     1      -2.291  -0.282  24.130  0.00  0.00    +0.060 C 
BRANCH  16  18
ATOM     10  N   UNL     1      -1.579   1.249  25.839  0.00  0.00    -0.287 NA
ATOM     18  C   UNL     1      -1.251   0.611  24.763  0.00  0.00    +0.044 C 
ATOM     20  C   UNL     1       0.085   0.721  24.123  0.00  0.00    +0.003 A 
ATOM     22  C   UNL     1       0.872   1.819  24.490  0.00  0.00    -0.033 A 
ATOM     23  C   UNL     1       0.320   2.804  25.478  0.00  0.00    +0.059 C 
ATOM     24  C   UNL     1      -0.551   2.068  26.488  0.00  0.00    +0.146 C 
ATOM     25  C   UNL     1       0.551  -0.204  23.187  0.00  0.00    +0.059 A 
ATOM     28  C   UNL     1       2.123   2.002  23.893  0.00  0.00    +0.053 A 
ATOM     29  C   UNL     1       1.807  -0.021  22.608  0.00  0.00    +0.162 A 
ATOM     30  C   UNL     1       2.590   1.080  22.958  0.00  0.00    +0.162 A 
BRANCH  29   7
ATOM      7  O   UNL     1       2.261  -0.926  21.696  0.00  0.00    -0.491 OA
ATOM     34  C   UNL     1       1.304  -1.459  20.782  0.00  0.00    +0.277 C 
ENDBRANCH  29   7
BRANCH  30   8
ATOM      8  O   UNL     1       3.814   1.266  22.390  0.00  0.00    -0.491 OA
ATOM     35  C   UNL     1       4.925   0.629  23.019  0.00  0.00    +0.277 C 
ENDBRANCH  30   8
ENDBRANCH  16  18
ENDBRANCH  11  16
BRANCH  12  17
ATOM     17  C   UNL     1      -3.269  -3.168  24.000  0.00  0.00    +0.124 C 
BRANCH  17  19
ATOM      6  O   UNL     1      -1.298  -2.913  25.412  0.00  0.00    -0.251 OA
ATOM     19  C   UNL     1      -1.800  -3.089  24.311  0.00  0.00    +0.305 C 
BRANCH  19   5
ATOM      5  O   UNL     1      -1.081  -3.246  23.171  0.00  0.00    -0.481 OA
ATOM     36  H   UNL     1      -1.050  -2.421  22.641  0.00  0.00    +0.295 HD
ENDBRANCH  19   5
ENDBRANCH  17  19
ENDBRANCH  12  17
TORSDOF 9
ENDMDL
MODEL 2
REMARK VINA RESULT:       5.8      2.739      6.677
REMARK  Name = 51136635
REMARK  11 active torsions:
REMARK  status: ('A' for Active; 'I' for Inactive)
REMARK    1  A    between atoms: S_2  and  N_9
REMARK    2  A    between atoms: S_2  and  C_21
REMARK    3  A    between atoms: O_5  and  C_19
REMARK    4  A    between atoms: O_7  and  C_29
REMARK    5  A    between atoms: O_7  and  C_34
REMARK    6  A    between atoms: O_8  and  C_30
REMARK    7  A    between atoms: O_8  and  C_35
REMARK    8  A    between atoms: C_11  and  C_16
REMARK    9  A    between atoms: C_12  and  C_17
REMARK   10  A    between atoms: C_16  and  C_18
REMARK   11  A    between atoms: C_17  and  C_19
REMARK                            x       y       z     vdW  Elec       q    Type
REMARK                         _______ _______ _______ _____ _____    ______ ____
ROOT
ATOM      9  N   UNL     1      -1.109  -0.237  25.012  0.00  0.00    -0.176 NA
ATOM     11  C   UNL     1       0.659   1.347  24.276  0.00  0.00    +0.014 C 
ATOM     12  C   UNL     1       1.469   0.151  23.720  0.00  0.00    +0.006 C 
ATOM     13  C   UNL     1      -0.221   0.882  25.448  0.00  0.00    +0.113 C 
ATOM     14  C   UNL     1       0.554  -1.032  23.371  0.00  0.00    +0.021 C 
ATOM     15  C   UNL     1      -0.330  -1.421  24.552  0.00  0.00    +0.110 C 
ENDROOT
BRANCH   9   2
ATOM      2  S   UNL     1      -2.420  -0.582  26.059  0.00  0.00    +0.061 S 
ATOM      3  O   UNL     1      -3.177   0.630  26.284  0.00  0.00    -0.153 OA
ATOM      4  O   UNL     1      -1.938  -1.378  27.169  0.00  0.00    -0.153 OA
BRANCH   2  21
ATOM      1 CL   UNL     1      -5.830  -4.316  22.343  0.00  0.00    -0.084 Cl
ATOM     21  C   UNL     1      -3.380  -1.633  25.014  0.00  0.00    +0.106 A 
ATOM     26  C   UNL     1      -3.253  -3.018  25.113  0.00  0.00    +0.030 A 
ATOM     27  C   UNL     1      -4.265  -1.078  24.090  0.00  0.00    +0.030 A 
ATOM     31  C   UNL     1      -4.011  -3.849  24.287  0.00  0.00    +0.022 A 
ATOM     32  C   UNL     1      -5.022  -1.907  23.264  0.00  0.00    +0.022 A 
ATOM     33  C   UNL     1      -4.895  -3.293  23.362  0.00  0.00    +0.041 A 
ENDBRANCH   2  21
ENDBRANCH   9   2
BRANCH  11  16
ATOM     16  C   UNL     1      -0.185   2.075  23.223  0.00  0.00    +0.060 C 
BRANCH  16  18
ATOM     10  N   UNL     1       0.157   4.376  23.820  0.00  0.00    -0.287 NA
ATOM     18  C   UNL     1      -0.678   3.389  23.779  0.00  0.00    +0.044 C 
ATOM     20  C   UNL     1      -2.082   3.484  24.255  0.00  0.00    +0.003 A 
ATOM     22  C   UNL     1      -2.389   4.557  25.101  0.00  0.00    -0.033 A 
ATOM     23  C   UNL     1      -1.297   5.516  25.476  0.00  0.00    +0.059 C 
ATOM     24  C   UNL     1      -0.338   5.669  24.302  0.00  0.00    +0.146 C 
ATOM     25  C   UNL     1      -3.062   2.555  23.904  0.00  0.00    +0.059 A 
ATOM     28  C   UNL     1      -3.682   4.681  25.616  0.00  0.00    +0.053 A 
ATOM     29  C   UNL     1      -4.354   2.696  24.411  0.00  0.00    +0.162 A 
ATOM     30  C   UNL     1      -4.664   3.754  25.267  0.00  0.00    +0.162 A 
BRANCH  29   7
ATOM      7  O   UNL     1      -5.311   1.788  24.065  0.00  0.00    -0.491 OA
ATOM     34  C   UNL     1      -6.261   1.435  25.068  0.00  0.00    +0.277 C 
ENDBRANCH  29   7
BRANCH  30   8
ATOM      8  O   UNL     1      -5.922   3.891  25.770  0.00  0.00    -0.491 OA
ATOM     35  C   UNL     1      -6.569   5.146  25.566  0.00  0.00    +0.277 C 
ENDBRANCH  30   8
ENDBRANCH  16  18
ENDBRANCH  11  16
BRANCH  12  17
ATOM     17  C   UNL     1       2.347   0.523  22.526  0.00  0.00    +0.124 C 
BRANCH  17  19
ATOM      6  O   UNL     1       4.675   1.240  22.610  0.00  0.00    -0.251 OA
ATOM     19  C   UNL     1       3.810   0.413  22.857  0.00  0.00    +0.305 C 
BRANCH  19   5
ATOM      5  O   UNL     1       4.050  -0.763  23.490  0.00  0.00    -0.481 OA
ATOM     36  H   UNL     1       3.562  -0.827  24.339  0.00  0.00    +0.295 HD
ENDBRANCH  19   5
ENDBRANCH  17  19
ENDBRANCH  12  17
TORSDOF 9
ENDMDL
MODEL 3
REMARK VINA RESULT:       6.3      3.154      7.471
REMARK  Name = 51136635
REMARK  11 active torsions:
REMARK  status: ('A' for Active; 'I' for Inactive)
REMARK    1  A    between atoms: S_2  and  N_9
REMARK    2  A    between atoms: S_2  and  C_21
REMARK    3  A    between atoms: O_5  and  C_19
REMARK    4  A    between atoms: O_7  and  C_29
REMARK    5  A    between atoms: O_7  and  C_34
REMARK    6  A    between atoms: O_8  and  C_30
REMARK    7  A    between atoms: O_8  and  C_35
REMARK    8  A    between atoms: C_11  and  C_16
REMARK    9  A    between atoms: C_12  and  C_17
REMARK   10  A    between atoms: C_16  and  C_18
REMARK   11  A    between atoms: C_17  and  C_19
REMARK                            x       y       z     vdW  Elec       q    Type
REMARK                         _______ _______ _______ _____ _____    ______ ____
ROOT
ATOM      9  N   UNL     1       1.159  -0.065  23.395  0.00  0.00    -0.176 NA
ATOM     11  C   UNL     1      -1.155   0.139  24.277  0.00  0.00    +0.014 C 
ATOM     12  C   UNL     1      -1.148  -1.378  24.583  0.00  0.00    +0.006 C 
ATOM     13  C   UNL     1      -0.215   0.437  23.097  0.00  0.00    +0.113 C 
ATOM     14  C   UNL     1       0.281  -1.903  24.787  0.00  0.00    +0.021 C 
ATOM     15  C   UNL     1       1.181  -1.539  23.611  0.00  0.00    +0.110 C 
ENDROOT
BRANCH   9   2
ATOM      2  S   UNL     1       2.398   0.547  22.382  0.00  0.00    +0.061 S 
ATOM      3  O   UNL     1       2.417   1.991  22.479  0.00  0.00    -0.153 OA
ATOM      4  O   UNL     1       2.324  -0.114  21.097  0.00  0.00    -0.153 OA
BRANCH   2  21
ATOM      1 CL   UNL     1       7.451  -1.643  25.390  0.00  0.00    -0.084 Cl
ATOM     21  C   UNL     1       3.820  -0.069  23.228  0.00  0.00    +0.106 A 
ATOM     26  C   UNL     1       3.906  -1.423  23.551  0.00  0.00    +0.030 A 
ATOM     27  C   UNL     1       4.857   0.798  23.574  0.00  0.00    +0.030 A 
ATOM     31  C   UNL     1       5.030  -1.910  24.220  0.00  0.00    +0.022 A 
ATOM     32  C   UNL     1       5.979   0.312  24.242  0.00  0.00    +0.022 A 
ATOM     33  C   UNL     1       6.066  -1.043  24.566  0.00  0.00    +0.041 A 
ENDBRANCH   2  21
ENDBRANCH   9   2
BRANCH  11  16
ATOM     16  C   UNL     1      -0.807   1.023  25.480  0.00  0.00    +0.060 C 
BRANCH  16  18
ATOM     10  N   UNL     1      -0.157   3.242  24.831  0.00  0.00    -0.287 NA
ATOM     18  C   UNL     1      -1.133   2.464  25.171  0.00  0.00    +0.044 C 
ATOM     20  C   UNL     1      -2.543   2.918  25.277  0.00  0.00    +0.003 A 
ATOM     22  C   UNL     1      -2.756   4.299  25.367  0.00  0.00    -0.033 A 
ATOM     23  C   UNL     1      -1.567   5.213  25.366  0.00  0.00    +0.059 C 
ATOM     24  C   UNL     1      -0.482   4.626  24.471  0.00  0.00    +0.146 C 
ATOM     25  C   UNL     1      -3.621   2.031  25.302  0.00  0.00    +0.059 A 
ATOM     28  C   UNL     1      -4.057   4.788  25.510  0.00  0.00    +0.053 A 
ATOM     29  C   UNL     1      -4.918   2.531  25.429  0.00  0.00    +0.162 A 
ATOM     30  C   UNL     1      -5.136   3.905  25.536  0.00  0.00    +0.162 A 
BRANCH  29   7
ATOM      7  O   UNL     1      -5.969   1.663  25.452  0.00  0.00    -0.491 OA
ATOM     34  C   UNL     1      -6.603   1.447  26.711  0.00  0.00    +0.277 C 
ENDBRANCH  29   7
BRANCH  30   8
ATOM      8  O   UNL     1      -6.399   4.396  25.667  0.00  0.00    -0.491 OA
ATOM     35  C   UNL     1      -6.604   5.763  25.312  0.00  0.00    +0.277 C 
ENDBRANCH  30   8
ENDBRANCH  16  18
ENDBRANCH  11  16
BRANCH  12  17
ATOM     17  C   UNL     1      -2.034  -1.755  25.771  0.00  0.00    +0.124 C 
BRANCH  17  19
ATOM      6  O   UNL     1      -3.860  -3.033  24.782  0.00  0.00    -0.251 OA
ATOM     19  C   UNL     1      -3.450  -2.027  25.342  0.00  0.00    +0.305 C 
BRANCH  19   5
ATOM      5  O   UNL     1      -4.239  -0.974  25.674  0.00  0.00    -0.481 OA
ATOM     36  H   UNL     1      -4.055  -0.188  25.115  0.00  0.00    +0.295 HD
ENDBRANCH  19   5
ENDBRANCH  17  19
ENDBRANCH  12  17
TORSDOF 9
ENDMDL
MODEL 4
REMARK VINA RESULT:       6.4      2.335      6.076
REMARK  Name = 51136635
REMARK  11 active torsions:
REMARK  status: ('A' for Active; 'I' for Inactive)
REMARK    1  A    between atoms: S_2  and  N_9
REMARK    2  A    between atoms: S_2  and  C_21
REMARK    3  A    between atoms: O_5  and  C_19
REMARK    4  A    between atoms: O_7  and  C_29
REMARK    5  A    between atoms: O_7  and  C_34
REMARK    6  A    between atoms: O_8  and  C_30
REMARK    7  A    between atoms: O_8  and  C_35
REMARK    8  A    between atoms: C_11  and  C_16
REMARK    9  A    between atoms: C_12  and  C_17
REMARK   10  A    between atoms: C_16  and  C_18
REMARK   11  A    between atoms: C_17  and  C_19
REMARK                            x       y       z     vdW  Elec       q    Type
REMARK                         _______ _______ _______ _____ _____    ______ ____
ROOT
ATOM      9  N   UNL     1      -0.810  -1.767  23.689  0.00  0.00    -0.176 NA
ATOM     11  C   UNL     1       0.956  -0.029  23.885  0.00  0.00    +0.014 C 
ATOM     12  C   UNL     1       1.695  -0.677  22.689  0.00  0.00    +0.006 C 
ATOM     13  C   UNL     1       0.135  -1.095  24.630  0.00  0.00    +0.113 C 
ATOM     14  C   UNL     1       0.727  -1.452  21.784  0.00  0.00    +0.021 C 
ATOM     15  C   UNL     1      -0.095  -2.461  22.580  0.00  0.00    +0.110 C 
ENDROOT
BRANCH   9   2
ATOM      2  S   UNL     1      -2.065  -2.667  24.430  0.00  0.00    +0.061 S 
ATOM      3  O   UNL     1      -1.640  -3.069  25.753  0.00  0.00    -0.153 OA
ATOM      4  O   UNL     1      -2.571  -3.636  23.482  0.00  0.00    -0.153 OA
BRANCH   2  21
ATOM      1 CL   UNL     1      -6.395   1.828  25.088  0.00  0.00    -0.084 Cl
ATOM     21  C   UNL     1      -3.283  -1.402  24.615  0.00  0.00    +0.106 A 
ATOM     26  C   UNL     1      -3.147  -0.445  25.620  0.00  0.00    +0.030 A 
ATOM     27  C   UNL     1      -4.381  -1.360  23.756  0.00  0.00    +0.030 A 
ATOM     31  C   UNL     1      -4.110   0.554  25.767  0.00  0.00    +0.022 A 
ATOM     32  C   UNL     1      -5.343  -0.362  23.902  0.00  0.00    +0.022 A 
ATOM     33  C   UNL     1      -5.208   0.596  24.908  0.00  0.00    +0.041 A 
ENDBRANCH   2  21
ENDBRANCH   9   2
BRANCH  11  16
ATOM     16  C   UNL     1       0.072   1.163  23.502  0.00  0.00    +0.060 C 
BRANCH  16  18
ATOM     10  N   UNL     1       0.782   2.093  25.599  0.00  0.00    -0.287 NA
ATOM     18  C   UNL     1      -0.154   2.043  24.708  0.00  0.00    +0.044 C 
ATOM     20  C   UNL     1      -1.429   2.796  24.817  0.00  0.00    +0.003 A 
ATOM     22  C   UNL     1      -1.771   3.277  26.086  0.00  0.00    -0.033 A 
ATOM     23  C   UNL     1      -0.850   2.994  27.237  0.00  0.00    +0.059 C 
ATOM     24  C   UNL     1       0.590   2.995  26.740  0.00  0.00    +0.146 C 
ATOM     25  C   UNL     1      -2.272   3.015  23.725  0.00  0.00    +0.059 A 
ATOM     28  C   UNL     1      -2.978   3.959  26.264  0.00  0.00    +0.053 A 
ATOM     29  C   UNL     1      -3.468   3.710  23.910  0.00  0.00    +0.162 A 
ATOM     30  C   UNL     1      -3.822   4.178  25.176  0.00  0.00    +0.162 A 
BRANCH  29   7
ATOM      7  O   UNL     1      -4.288   3.924  22.842  0.00  0.00    -0.491 OA
ATOM     34  C   UNL     1      -3.932   3.288  21.616  0.00  0.00    +0.277 C 
ENDBRANCH  29   7
BRANCH  30   8
ATOM      8  O   UNL     1      -4.991   4.851  25.362  0.00  0.00    -0.491 OA
ATOM     35  C   UNL     1      -6.095   4.105  25.872  0.00  0.00    +0.277 C 
ENDBRANCH  30   8
ENDBRANCH  16  18
ENDBRANCH  11  16
BRANCH  12  17
ATOM     17  C   UNL     1       2.511   0.325  21.872  0.00  0.00    +0.124 C 
BRANCH  17  19
ATOM      6  O   UNL     1       4.627   0.099  23.062  0.00  0.00    -0.251 OA
ATOM     19  C   UNL     1       3.724   0.798  22.624  0.00  0.00    +0.305 C 
BRANCH  19   5
ATOM      5  O   UNL     1       3.685   2.148  22.754  0.00  0.00    -0.481 OA
ATOM     36  H   UNL     1       3.485   2.421  23.675  0.00  0.00    +0.295 HD
ENDBRANCH  19   5
ENDBRANCH  17  19
ENDBRANCH  12  17
TORSDOF 9
ENDMDL
MODEL 5
REMARK VINA RESULT:       7.6      2.943      7.322
REMARK  Name = 51136635
REMARK  11 active torsions:
REMARK  status: ('A' for Active; 'I' for Inactive)
REMARK    1  A    between atoms: S_2  and  N_9
REMARK    2  A    between atoms: S_2  and  C_21
REMARK    3  A    between atoms: O_5  and  C_19
REMARK    4  A    between atoms: O_7  and  C_29
REMARK    5  A    between atoms: O_7  and  C_34
REMARK    6  A    between atoms: O_8  and  C_30
REMARK    7  A    between atoms: O_8  and  C_35
REMARK    8  A    between atoms: C_11  and  C_16
REMARK    9  A    between atoms: C_12  and  C_17
REMARK   10  A    between atoms: C_16  and  C_18
REMARK   11  A    between atoms: C_17  and  C_19
REMARK                            x       y       z     vdW  Elec       q    Type
REMARK                         _______ _______ _______ _____ _____    ______ ____
ROOT
ATOM      9  N   UNL     1       0.568   1.200  23.352  0.00  0.00    -0.176 NA
ATOM     11  C   UNL     1      -1.035   2.533  24.704  0.00  0.00    +0.014 C 
ATOM     12  C   UNL     1       0.016   3.667  24.789  0.00  0.00    +0.006 C 
ATOM     13  C   UNL     1      -0.327   1.177  24.547  0.00  0.00    +0.113 C 
ATOM     14  C   UNL     1       0.994   3.616  23.606  0.00  0.00    +0.021 C 
ATOM     15  C   UNL     1       1.631   2.237  23.469  0.00  0.00    +0.110 C 
ENDROOT
BRANCH   9   2
ATOM      2  S   UNL     1       1.098  -0.336  22.805  0.00  0.00    +0.061 S 
ATOM      3  O   UNL     1       0.868  -0.435  21.381  0.00  0.00    -0.153 OA
ATOM      4  O   UNL     1       0.609  -1.352  23.713  0.00  0.00    -0.153 OA
BRANCH   2  21
ATOM      1 CL   UNL     1       7.279   0.251  23.716  0.00  0.00    -0.084 Cl
ATOM     21  C   UNL     1       2.837  -0.170  23.062  0.00  0.00    +0.106 A 
ATOM     26  C   UNL     1       3.504   0.966  22.605  0.00  0.00    +0.030 A 
ATOM     27  C   UNL     1       3.544  -1.176  23.721  0.00  0.00    +0.030 A 
ATOM     31  C   UNL     1       4.878   1.097  22.807  0.00  0.00    +0.022 A 
ATOM     32  C   UNL     1       4.917  -1.046  23.924  0.00  0.00    +0.022 A 
ATOM     33  C   UNL     1       5.585   0.091  23.467  0.00  0.00    +0.041 A 
ENDBRANCH   2  21
ENDBRANCH   9   2
BRANCH  11  16
ATOM     16  C   UNL     1      -2.077   2.728  23.596  0.00  0.00    +0.060 C 
BRANCH  16  18
ATOM     10  N   UNL     1      -4.404   2.975  24.136  0.00  0.00    -0.287 NA
ATOM     18  C   UNL     1      -3.405   2.160  24.035  0.00  0.00    +0.044 C 
ATOM     20  C   UNL     1      -3.499   0.709  24.335  0.00  0.00    +0.003 A 
ATOM     22  C   UNL     1      -4.600   0.292  25.094  0.00  0.00    -0.033 A 
ATOM     23  C   UNL     1      -5.587   1.321  25.559  0.00  0.00    +0.059 C 
ATOM     24  C   UNL     1      -5.708   2.414  24.503  0.00  0.00    +0.146 C 
ATOM     25  C   UNL     1      -2.543  -0.214  23.907  0.00  0.00    +0.059 A 
ATOM     28  C   UNL     1      -4.725  -1.055  25.445  0.00  0.00    +0.053 A 
ATOM     29  C   UNL     1      -2.686  -1.559  24.249  0.00  0.00    +0.162 A 
ATOM     30  C   UNL     1      -3.772  -1.979  25.018  0.00  0.00    +0.162 A 
BRANCH  29   7
ATOM      7  O   UNL     1      -1.752  -2.458  23.828  0.00  0.00    -0.491 OA
ATOM     34  C   UNL     1      -0.810  -2.914  24.796  0.00  0.00    +0.277 C 
ENDBRANCH  29   7
BRANCH  30   8
ATOM      8  O   UNL     1      -3.911  -3.290  25.361  0.00  0.00    -0.491 OA
ATOM     35  C   UNL     1      -4.146  -4.215  24.302  0.00  0.00    +0.277 C 
ENDBRANCH  30   8
ENDBRANCH  16  18
ENDBRANCH  11  16
BRANCH  12  17
ATOM     17  C   UNL     1      -0.609   5.057  24.912  0.00  0.00    +0.124 C 
BRANCH  17  19
ATOM      6  O   UNL     1      -2.361   4.467  26.501  0.00  0.00    -0.251 OA
ATOM     19  C   UNL     1      -2.010   4.991  25.454  0.00  0.00    +0.305 C 
BRANCH  19   5
ATOM      5  O   UNL     1      -2.862   5.612  24.600  0.00  0.00    -0.481 OA
ATOM     36  H   UNL     1      -3.413   6.284  25.057  0.00  0.00    +0.295 HD
ENDBRANCH  19   5
ENDBRANCH  17  19
ENDBRANCH  12  17
TORSDOF 9
ENDMDL
MODEL 6
REMARK VINA RESULT:       7.9      2.984      7.613
REMARK  Name = 51136635
REMARK  11 active torsions:
REMARK  status: ('A' for Active; 'I' for Inactive)
REMARK    1  A    between atoms: S_2  and  N_9
REMARK    2  A    between atoms: S_2  and  C_21
REMARK    3  A    between atoms: O_5  and  C_19
REMARK    4  A    between atoms: O_7  and  C_29
REMARK    5  A    between atoms: O_7  and  C_34
REMARK    6  A    between atoms: O_8  and  C_30
REMARK    7  A    between atoms: O_8  and  C_35
REMARK    8  A    between atoms: C_11  and  C_16
REMARK    9  A    between atoms: C_12  and  C_17
REMARK   10  A    between atoms: C_16  and  C_18
REMARK   11  A    between atoms: C_17  and  C_19
REMARK                            x       y       z     vdW  Elec       q    Type
REMARK                         _______ _______ _______ _____ _____    ______ ____
ROOT
ATOM      9  N   UNL     1       0.023   0.602  23.286  0.00  0.00    -0.176 NA
ATOM     11  C   UNL     1       0.162   2.441  24.952  0.00  0.00    +0.014 C 
ATOM     12  C   UNL     1      -0.937   3.201  24.171  0.00  0.00    +0.006 C 
ATOM     13  C   UNL     1       0.951   1.534  23.993  0.00  0.00    +0.113 C 
ATOM     14  C   UNL     1      -1.822   2.238  23.367  0.00  0.00    +0.021 C 
ATOM     15  C   UNL     1      -0.987   1.331  22.468  0.00  0.00    +0.110 C 
ENDROOT
BRANCH   9   2
ATOM      2  S   UNL     1       0.772  -0.730  22.511  0.00  0.00    +0.061 S 
ATOM      3  O   UNL     1       0.604  -0.598  21.080  0.00  0.00    -0.153 OA
ATOM      4  O   UNL     1       0.395  -1.947  23.198  0.00  0.00    -0.153 OA
BRANCH   2  21
ATOM      1 CL   UNL     1       6.785   0.462  23.857  0.00  0.00    -0.084 Cl
ATOM     21  C   UNL     1       2.464  -0.394  22.890  0.00  0.00    +0.106 A 
ATOM     26  C   UNL     1       3.053   0.793  22.456  0.00  0.00    +0.030 A 
ATOM     27  C   UNL     1       3.211  -1.317  23.622  0.00  0.00    +0.030 A 
ATOM     31  C   UNL     1       4.390   1.058  22.755  0.00  0.00    +0.022 A 
ATOM     32  C   UNL     1       4.546  -1.052  23.922  0.00  0.00    +0.022 A 
ATOM     33  C   UNL     1       5.137   0.136  23.488  0.00  0.00    +0.041 A 
ENDBRANCH   2  21
ENDBRANCH   9   2
BRANCH  11  16
ATOM     16  C   UNL     1      -0.362   1.635  26.146  0.00  0.00    +0.060 C 
BRANCH  16  18
ATOM     10  N   UNL     1      -0.906  -0.590  25.424  0.00  0.00    -0.287 NA
ATOM     18  C   UNL     1      -1.352   0.598  25.671  0.00  0.00    +0.044 C 
ATOM     20  C   UNL     1      -2.775   0.990  25.504  0.00  0.00    +0.003 A 
ATOM     22  C   UNL     1      -3.571   0.152  24.713  0.00  0.00    -0.033 A 
ATOM     23  C   UNL     1      -2.943  -1.057  24.086  0.00  0.00    +0.059 C 
ATOM     24  C   UNL     1      -1.877  -1.613  25.022  0.00  0.00    +0.146 C 
ATOM     25  C   UNL     1      -3.314   2.140  26.084  0.00  0.00    +0.059 A 
ATOM     28  C   UNL     1      -4.908   0.487  24.483  0.00  0.00    +0.053 A 
ATOM     29  C   UNL     1      -4.655   2.457  25.861  0.00  0.00    +0.162 A 
ATOM     30  C   UNL     1      -5.449   1.635  25.061  0.00  0.00    +0.162 A 
BRANCH  29   7
ATOM      7  O   UNL     1      -5.179   3.579  26.429  0.00  0.00    -0.491 OA
ATOM     34  C   UNL     1      -5.418   4.690  25.568  0.00  0.00    +0.277 C 
ENDBRANCH  29   7
BRANCH  30   8
ATOM      8  O   UNL     1      -6.756   1.944  24.835  0.00  0.00    -0.491 OA
ATOM     35  C   UNL     1      -7.408   1.264  23.764  0.00  0.00    +0.277 C 
ENDBRANCH  30   8
ENDBRANCH  16  18
ENDBRANCH  11  16
BRANCH  12  17
ATOM     17  C   UNL     1      -1.792   4.102  25.062  0.00  0.00    +0.124 C 
BRANCH  17  19
ATOM      6  O   UNL     1      -2.033   6.518  25.282  0.00  0.00    -0.251 OA
ATOM     19  C   UNL     1      -1.370   5.542  24.964  0.00  0.00    +0.305 C 
BRANCH  19   5
ATOM      5  O   UNL     1      -0.111   5.617  24.461  0.00  0.00    -0.481 OA
ATOM     36  H   UNL     1      -0.098   5.490  23.488  0.00  0.00    +0.295 HD
ENDBRANCH  19   5
ENDBRANCH  17  19
ENDBRANCH  12  17
TORSDOF 9
ENDMDL
MODEL 7
REMARK VINA RESULT:       8.1      2.463      4.965
REMARK  Name = 51136635
REMARK  11 active torsions:
REMARK  status: ('A' for Active; 'I' for Inactive)
REMARK    1  A    between atoms: S_2  and  N_9
REMARK    2  A    between atoms: S_2  and  C_21
REMARK    3  A    between atoms: O_5  and  C_19
REMARK    4  A    between atoms: O_7  and  C_29
REMARK    5  A    between atoms: O_7  and  C_34
REMARK    6  A    between atoms: O_8  and  C_30
REMARK    7  A    between atoms: O_8  and  C_35
REMARK    8  A    between atoms: C_11  and  C_16
REMARK    9  A    between atoms: C_12  and  C_17
REMARK   10  A    between atoms: C_16  and  C_18
REMARK   11  A    between atoms: C_17  and  C_19
REMARK                            x       y       z     vdW  Elec       q    Type
REMARK                         _______ _______ _______ _____ _____    ______ ____
ROOT
ATOM      9  N   UNL     1      -4.496   2.742  25.453  0.00  0.00    -0.176 NA
ATOM     11  C   UNL     1      -2.559   3.597  24.152  0.00  0.00    +0.014 C 
ATOM     12  C   UNL     1      -2.688   4.950  24.893  0.00  0.00    +0.006 C 
ATOM     13  C   UNL     1      -3.933   2.909  24.081  0.00  0.00    +0.113 C 
ATOM     14  C   UNL     1      -3.362   4.779  26.262  0.00  0.00    +0.021 C 
ATOM     15  C   UNL     1      -4.697   4.050  26.138  0.00  0.00    +0.110 C 
ENDROOT
BRANCH   9   2
ATOM      2  S   UNL     1      -5.802   1.640  25.579  0.00  0.00    +0.061 S 
ATOM      3  O   UNL     1      -6.691   1.830  24.454  0.00  0.00    -0.153 OA
ATOM      4  O   UNL     1      -6.302   1.657  26.937  0.00  0.00    -0.153 OA
BRANCH   2  21
ATOM      1 CL   UNL     1      -2.748  -3.776  24.722  0.00  0.00    -0.084 Cl
ATOM     21  C   UNL     1      -4.942   0.116  25.337  0.00  0.00    +0.106 A 
ATOM     26  C   UNL     1      -5.257  -0.696  24.249  0.00  0.00    +0.030 A 
ATOM     27  C   UNL     1      -3.950  -0.275  26.236  0.00  0.00    +0.030 A 
ATOM     31  C   UNL     1      -4.579  -1.901  24.058  0.00  0.00    +0.022 A 
ATOM     32  C   UNL     1      -3.271  -1.478  26.046  0.00  0.00    +0.022 A 
ATOM     33  C   UNL     1      -3.586  -2.291  24.957  0.00  0.00    +0.041 A 
ENDBRANCH   2  21
ENDBRANCH   9   2
BRANCH  11  16
ATOM     16  C   UNL     1      -1.514   2.651  24.754  0.00  0.00    +0.060 C 
BRANCH  16  18
ATOM     10  N   UNL     1      -2.535   0.843  23.547  0.00  0.00    -0.287 NA
ATOM     18  C   UNL     1      -1.427   1.389  23.928  0.00  0.00    +0.044 C 
ATOM     20  C   UNL     1      -0.088   0.837  23.603  0.00  0.00    +0.003 A 
ATOM     22  C   UNL     1      -0.041  -0.500  23.189  0.00  0.00    -0.033 A 
ATOM     23  C   UNL     1      -1.322  -1.278  23.116  0.00  0.00    +0.059 C 
ATOM     24  C   UNL     1      -2.451  -0.347  22.694  0.00  0.00    +0.146 C 
ATOM     25  C   UNL     1       1.085   1.587  23.710  0.00  0.00    +0.059 A 
ATOM     28  C   UNL     1       1.193  -1.093  22.907  0.00  0.00    +0.053 A 
ATOM     29  C   UNL     1       2.311   0.991  23.411  0.00  0.00    +0.162 A 
ATOM     30  C   UNL     1       2.366  -0.345  23.014  0.00  0.00    +0.162 A 
BRANCH  29   7
ATOM      7  O   UNL     1       3.454   1.726  23.515  0.00  0.00    -0.491 OA
ATOM     34  C   UNL     1       4.337   1.710  22.396  0.00  0.00    +0.277 C 
ENDBRANCH  29   7
BRANCH  30   8
ATOM      8  O   UNL     1       3.561  -0.933  22.728  0.00  0.00    -0.491 OA
ATOM     35  C   UNL     1       4.299  -1.469  23.825  0.00  0.00    +0.277 C 
ENDBRANCH  30   8
ENDBRANCH  16  18
ENDBRANCH  11  16
BRANCH  12  17
ATOM     17  C   UNL     1      -1.355   5.684  25.038  0.00  0.00    +0.124 C 
BRANCH  17  19
ATOM      6  O   UNL     1       0.357   4.021  25.536  0.00  0.00    -0.251 OA
ATOM     19  C   UNL     1      -0.188   4.780  24.748  0.00  0.00    +0.305 C 
BRANCH  19   5
ATOM      5  O   UNL     1       0.191   4.922  23.453  0.00  0.00    -0.481 OA
ATOM     36  H   UNL     1       1.115   5.241  23.375  0.00  0.00    +0.295 HD
ENDBRANCH  19   5
ENDBRANCH  17  19
ENDBRANCH  12  17
TORSDOF 9
ENDMDL
MODEL 8
REMARK VINA RESULT:       8.2      2.496      6.151
REMARK  Name = 51136635
REMARK  11 active torsions:
REMARK  status: ('A' for Active; 'I' for Inactive)
REMARK    1  A    between atoms: S_2  and  N_9
REMARK    2  A    between atoms: S_2  and  C_21
REMARK    3  A    between atoms: O_5  and  C_19
REMARK    4  A    between atoms: O_7  and  C_29
REMARK    5  A    between atoms: O_7  and  C_34
REMARK    6  A    between atoms: O_8  and  C_30
REMARK    7  A    between atoms: O_8  and  C_35
REMARK    8  A    between atoms: C_11  and  C_16
REMARK    9  A    between atoms: C_12  and  C_17
REMARK   10  A    between atoms: C_16  and  C_18
REMARK   11  A    between atoms: C_17  and  C_19
REMARK                            x       y       z     vdW  Elec       q    Type
REMARK                         _______ _______ _______ _____ _____    ______ ____
ROOT
ATOM      9  N   UNL     1      -0.506  -1.184  24.038  0.00  0.00    -0.176 NA
ATOM     11  C   UNL     1       0.325   1.152  23.873  0.00  0.00    +0.014 C 
ATOM     12  C   UNL     1       1.768   0.606  23.747  0.00  0.00    +0.006 C 
ATOM     13  C   UNL     1      -0.538   0.165  24.676  0.00  0.00    +0.113 C 
ATOM     14  C   UNL     1       1.780  -0.823  23.183  0.00  0.00    +0.021 C 
ATOM     15  C   UNL     1       0.873  -1.748  23.989  0.00  0.00    +0.110 C 
ENDROOT
BRANCH   9   2
ATOM      2  S   UNL     1      -1.724  -2.270  24.560  0.00  0.00    +0.061 S 
ATOM      3  O   UNL     1      -1.372  -2.782  25.866  0.00  0.00    -0.153 OA
ATOM      4  O   UNL     1      -2.054  -3.165  23.471  0.00  0.00    -0.153 OA
BRANCH   2  21
ATOM      1 CL   UNL     1      -6.511   1.723  25.289  0.00  0.00    -0.084 Cl
ATOM     21  C   UNL     1      -3.071  -1.146  24.765  0.00  0.00    +0.106 A 
ATOM     26  C   UNL     1      -3.217  -0.445  25.961  0.00  0.00    +0.030 A 
ATOM     27  C   UNL     1      -3.988  -0.961  23.731  0.00  0.00    +0.030 A 
ATOM     31  C   UNL     1      -4.281   0.443  26.124  0.00  0.00    +0.022 A 
ATOM     32  C   UNL     1      -5.052  -0.074  23.892  0.00  0.00    +0.022 A 
ATOM     33  C   UNL     1      -5.199   0.628  25.089  0.00  0.00    +0.041 A 
ENDBRANCH   2  21
ENDBRANCH   9   2
BRANCH  11  16
ATOM     16  C   UNL     1      -0.340   1.479  22.530  0.00  0.00    +0.060 C 
BRANCH  16  18
ATOM     10  N   UNL     1      -2.596   1.885  21.814  0.00  0.00    -0.287 NA
ATOM     18  C   UNL     1      -1.729   2.021  22.764  0.00  0.00    +0.044 C 
ATOM     20  C   UNL     1      -2.030   2.685  24.058  0.00  0.00    +0.003 A 
ATOM     22  C   UNL     1      -3.167   3.502  24.098  0.00  0.00    -0.033 A 
ATOM     23  C   UNL     1      -3.984   3.662  22.850  0.00  0.00    +0.059 C 
ATOM     24  C   UNL     1      -3.962   2.357  22.064  0.00  0.00    +0.146 C 
ATOM     25  C   UNL     1      -1.228   2.532  25.190  0.00  0.00    +0.059 A 
ATOM     28  C   UNL     1      -3.483   4.188  25.274  0.00  0.00    +0.053 A 
ATOM     29  C   UNL     1      -1.560   3.208  26.364  0.00  0.00    +0.162 A 
ATOM     30  C   UNL     1      -2.683   4.036  26.406  0.00  0.00    +0.162 A 
BRANCH  29   7
ATOM      7  O   UNL     1      -0.776   3.055  27.468  0.00  0.00    -0.491 OA
ATOM     34  C   UNL     1       0.538   2.540  27.263  0.00  0.00    +0.277 C 
ENDBRANCH  29   7
BRANCH  30   8
ATOM      8  O   UNL     1      -3.007   4.704  27.548  0.00  0.00    -0.491 OA
ATOM     35  C   UNL     1      -3.593   3.941  28.602  0.00  0.00    +0.277 C 
ENDBRANCH  30   8
ENDBRANCH  16  18
ENDBRANCH  11  16
BRANCH  12  17
ATOM     17  C   UNL     1       2.685   1.515  22.928  0.00  0.00    +0.124 C 
BRANCH  17  19
ATOM      6  O   UNL     1       4.922   0.790  23.571  0.00  0.00    -0.251 OA
ATOM     19  C   UNL     1       4.043   0.900  22.729  0.00  0.00    +0.305 C 
BRANCH  19   5
ATOM      5  O   UNL     1       4.166   0.465  21.449  0.00  0.00    -0.481 OA
ATOM     36  H   UNL     1       5.045   0.684  21.072  0.00  0.00    +0.295 HD
ENDBRANCH  19   5
ENDBRANCH  17  19
ENDBRANCH  12  17
TORSDOF 9
ENDMDL
MODEL 9
REMARK VINA RESULT:       8.4      2.605      5.455
REMARK  Name = 51136635
REMARK  11 active torsions:
REMARK  status: ('A' for Active; 'I' for Inactive)
REMARK    1  A    between atoms: S_2  and  N_9
REMARK    2  A    between atoms: S_2  and  C_21
REMARK    3  A    between atoms: O_5  and  C_19
REMARK    4  A    between atoms: O_7  and  C_29
REMARK    5  A    between atoms: O_7  and  C_34
REMARK    6  A    between atoms: O_8  and  C_30
REMARK    7  A    between atoms: O_8  and  C_35
REMARK    8  A    between atoms: C_11  and  C_16
REMARK    9  A    between atoms: C_12  and  C_17
REMARK   10  A    between atoms: C_16  and  C_18
REMARK   11  A    between atoms: C_17  and  C_19
REMARK                            x       y       z     vdW  Elec       q    Type
REMARK                         _______ _______ _______ _____ _____    ______ ____
ROOT
ATOM      9  N   UNL     1      -1.810   3.773  24.834  0.00  0.00    -0.176 NA
ATOM     11  C   UNL     1      -3.762   2.362  25.446  0.00  0.00    +0.014 C 
ATOM     12  C   UNL     1      -4.572   3.648  25.738  0.00  0.00    +0.006 C 
ATOM     13  C   UNL     1      -2.264   2.626  25.675  0.00  0.00    +0.113 C 
ATOM     14  C   UNL     1      -4.030   4.845  24.944  0.00  0.00    +0.021 C 
ATOM     15  C   UNL     1      -2.533   5.033  25.170  0.00  0.00    +0.110 C 
ENDROOT
BRANCH   9   2
ATOM      2  S   UNL     1      -0.113   3.926  24.659  0.00  0.00    +0.061 S 
ATOM      3  O   UNL     1       0.231   5.330  24.591  0.00  0.00    -0.153 OA
ATOM      4  O   UNL     1       0.341   2.997  23.646  0.00  0.00    -0.153 OA
BRANCH   2  21
ATOM      1 CL   UNL     1       1.762   1.759  30.243  0.00  0.00    -0.084 Cl
ATOM     21  C   UNL     1       0.415   3.316  26.230  0.00  0.00    +0.106 A 
ATOM     26  C   UNL     1      -0.346   2.356  26.896  0.00  0.00    +0.030 A 
ATOM     27  C   UNL     1       1.593   3.794  26.804  0.00  0.00    +0.030 A 
ATOM     31  C   UNL     1       0.070   1.874  28.138  0.00  0.00    +0.022 A 
ATOM     32  C   UNL     1       2.009   3.313  28.045  0.00  0.00    +0.022 A 
ATOM     33  C   UNL     1       1.248   2.353  28.712  0.00  0.00    +0.041 A 
ENDBRANCH   2  21
ENDBRANCH   9   2
BRANCH  11  16
ATOM     16  C   UNL     1      -3.998   1.776  24.049  0.00  0.00    +0.060 C 
BRANCH  16  18
ATOM     10  N   UNL     1      -4.973  -0.418  24.023  0.00  0.00    -0.287 NA
ATOM     18  C   UNL     1      -3.882   0.271  24.097  0.00  0.00    +0.044 C 
ATOM     20  C   UNL     1      -2.535  -0.339  24.232  0.00  0.00    +0.003 A 
ATOM     22  C   UNL     1      -2.487  -1.672  24.657  0.00  0.00    -0.033 A 
ATOM     23  C   UNL     1      -3.776  -2.380  24.957  0.00  0.00    +0.059 C 
ATOM     24  C   UNL     1      -4.857  -1.880  24.007  0.00  0.00    +0.146 C 
ATOM     25  C   UNL     1      -1.358   0.364  23.969  0.00  0.00    +0.059 A 
ATOM     28  C   UNL     1      -1.249  -2.293  24.844  0.00  0.00    +0.053 A 
ATOM     29  C   UNL     1      -0.127  -0.269  24.144  0.00  0.00    +0.162 A 
ATOM     30  C   UNL     1      -0.072  -1.593  24.582  0.00  0.00    +0.162 A 
BRANCH  29   7
ATOM      7  O   UNL     1       1.021   0.419  23.884  0.00  0.00    -0.491 OA
ATOM     34  C   UNL     1       1.718   0.085  22.686  0.00  0.00    +0.277 C 
ENDBRANCH  29   7
BRANCH  30   8
ATOM      8  O   UNL     1       1.128  -2.212  24.761  0.00  0.00    -0.491 OA
ATOM     35  C   UNL     1       1.162  -3.310  25.671  0.00  0.00    +0.277 C 
ENDBRANCH  30   8
ENDBRANCH  16  18
ENDBRANCH  11  16
BRANCH  12  17
ATOM     17  C   UNL     1      -6.073   3.479  25.500  0.00  0.00    +0.124 C 
BRANCH  17  19
ATOM      6  O   UNL     1      -6.491   1.715  27.129  0.00  0.00    -0.251 OA
ATOM     19  C   UNL     1      -6.566   2.145  25.988  0.00  0.00    +0.305 C 
BRANCH  19   5
ATOM      5  O   UNL     1      -7.127   1.460  24.959  0.00  0.00    -0.481 OA
ATOM     36  H   UNL     1      -8.049   1.189  25.159  0.00  0.00    +0.295 HD
ENDBRANCH  19   5
ENDBRANCH  17  19
ENDBRANCH  12  17
TORSDOF 9
ENDMDL
MODEL 10
REMARK VINA RESULT:       8.7      2.469      6.182
REMARK  Name = 51136635
REMARK  11 active torsions:
REMARK  status: ('A' for Active; 'I' for Inactive)
REMARK    1  A    between atoms: S_2  and  N_9
REMARK    2  A    between atoms: S_2  and  C_21
REMARK    3  A    between atoms: O_5  and  C_19
REMARK    4  A    between atoms: O_7  and  C_29
REMARK    5  A    between atoms: O_7  and  C_34
REMARK    6  A    between atoms: O_8  and  C_30
REMARK    7  A    between atoms: O_8  and  C_35
REMARK    8  A    between atoms: C_11  and  C_16
REMARK    9  A    between atoms: C_12  and  C_17
REMARK   10  A    between atoms: C_16  and  C_18
REMARK   11  A    between atoms: C_17  and  C_19
REMARK                            x       y       z     vdW  Elec       q    Type
REMARK                         _______ _______ _______ _____ _____    ______ ____
ROOT
ATOM      9  N   UNL     1       0.187  -0.260  24.105  0.00  0.00    -0.176 NA
ATOM     11  C   UNL     1      -1.938  -1.413  23.529  0.00  0.00    +0.014 C 
ATOM     12  C   UNL     1      -1.436  -2.667  24.286  0.00  0.00    +0.006 C 
ATOM     13  C   UNL     1      -0.739  -0.616  22.989  0.00  0.00    +0.113 C 
ATOM     14  C   UNL     1      -0.406  -2.298  25.364  0.00  0.00    +0.021 C 
ATOM     15  C   UNL     1       0.735  -1.469  24.783  0.00  0.00    +0.110 C 
ENDROOT
BRANCH   9   2
ATOM      2  S   UNL     1       1.333   0.962  23.744  0.00  0.00    +0.061 S 
ATOM      3  O   UNL     1       1.518   1.026  22.311  0.00  0.00    -0.153 OA
ATOM      4  O   UNL     1       2.463   0.825  24.637  0.00  0.00    -0.153 OA
BRANCH   2  21
ATOM      1 CL   UNL     1      -1.903   6.045  25.496  0.00  0.00    -0.084 Cl
ATOM     21  C   UNL     1       0.422   2.392  24.236  0.00  0.00    +0.106 A 
ATOM     26  C   UNL     1       0.454   3.543  23.450  0.00  0.00    +0.030 A 
ATOM     27  C   UNL     1      -0.328   2.370  25.412  0.00  0.00    +0.030 A 
ATOM     31  C   UNL     1      -0.265   4.674  23.840  0.00  0.00    +0.022 A 
ATOM     32  C   UNL     1      -1.047   3.499  25.802  0.00  0.00    +0.022 A 
ATOM     33  C   UNL     1      -1.016   4.652  25.015  0.00  0.00    +0.041 A 
ENDBRANCH   2  21
ENDBRANCH   9   2
BRANCH  11  16
ATOM     16  C   UNL     1      -2.857  -0.508  24.358  0.00  0.00    +0.060 C 
BRANCH  16  18
ATOM     10  N   UNL     1      -2.641   0.885  22.414  0.00  0.00    -0.287 NA
ATOM     18  C   UNL     1      -3.146   0.764  23.597  0.00  0.00    +0.044 C 
ATOM     20  C   UNL     1      -3.983   1.808  24.241  0.00  0.00    +0.003 A 
ATOM     22  C   UNL     1      -3.913   3.096  23.697  0.00  0.00    -0.033 A 
ATOM     23  C   UNL     1      -3.002   3.337  22.529  0.00  0.00    +0.059 C 
ATOM     24  C   UNL     1      -2.971   2.093  21.651  0.00  0.00    +0.146 C 
ATOM     25  C   UNL     1      -4.799   1.549  25.344  0.00  0.00    +0.059 A 
ATOM     28  C   UNL     1      -4.645   4.134  24.282  0.00  0.00    +0.053 A 
ATOM     29  C   UNL     1      -5.537   2.587  25.911  0.00  0.00    +0.162 A 
ATOM     30  C   UNL     1      -5.459   3.877  25.384  0.00  0.00    +0.162 A 
BRANCH  29   7
ATOM      7  O   UNL     1      -6.333   2.331  26.988  0.00  0.00    -0.491 OA
ATOM     34  C   UNL     1      -6.654   0.965  27.244  0.00  0.00    +0.277 C 
ENDBRANCH  29   7
BRANCH  30   8
ATOM      8  O   UNL     1      -6.173   4.895  25.939  0.00  0.00    -0.491 OA
ATOM     35  C   UNL     1      -6.556   5.965  25.076  0.00  0.00    +0.277 C 
ENDBRANCH  30   8
ENDBRANCH  16  18
ENDBRANCH  11  16
BRANCH  12  17
ATOM     17  C   UNL     1      -2.569  -3.499  24.887  0.00  0.00    +0.124 C 
BRANCH  17  19
ATOM      6  O   UNL     1      -4.718  -2.889  23.911  0.00  0.00    -0.251 OA
ATOM     19  C   UNL     1      -3.889  -2.783  24.803  0.00  0.00    +0.305 C 
BRANCH  19   5
ATOM      5  O   UNL     1      -4.045  -1.981  25.886  0.00  0.00    -0.481 OA
ATOM     36  H   UNL     1      -3.630  -1.101  25.752  0.00  0.00    +0.295 HD
ENDBRANCH  19   5
ENDBRANCH  17  19
ENDBRANCH  12  17
TORSDOF 9
ENDMDL
