MODEL 1
REMARK VINA RESULT:      -0.5      0.000      0.000
REMARK  Name = 45783549
REMARK  12 active torsions:
REMARK  status: ('A' for Active; 'I' for Inactive)
REMARK    1  A    between atoms: O_2  and  C_28
REMARK    2  A    between atoms: O_2  and  C_29
REMARK    3  A    between atoms: O_3  and  C_30
REMARK    4  A    between atoms: O_3  and  C_31
REMARK    5  A    between atoms: N_4  and  C_13
REMARK    6  A    between atoms: N_7  and  C_21
REMARK    7  A    between atoms: N_7  and  C_25
REMARK    8  A    between atoms: N_7  and  C_26
REMARK    9  A    between atoms: C_9  and  C_14
REMARK   10  A    between atoms: C_13  and  C_15
REMARK   11  A    between atoms: C_18  and  C_22
REMARK   12  A    between atoms: C_29  and  C_30
REMARK                            x       y       z     vdW  Elec       q    Type
REMARK                         _______ _______ _______ _____ _____    ______ ____
ROOT
ATOM      1  O   UNL     1      -2.524   2.969  25.811  0.00  0.00    -0.336 OA
ATOM      5  N   UNL     1      -2.318   2.115  23.752  0.00  0.00    -0.190 NA
ATOM      6  N   UNL     1      -1.199   2.529  25.703  0.00  0.00    -0.056 NA
ATOM     14  C   UNL     1      -3.113   2.687  24.620  0.00  0.00    +0.245 A 
ATOM     18  C   UNL     1      -1.154   2.038  24.461  0.00  0.00    +0.204 A 
ENDROOT
BRANCH  18  22
ATOM      8  N   UNL     1       2.417   1.605  23.522  0.00  0.00    -0.221 NA
ATOM     22  C   UNL     1       0.033   1.464  23.900  0.00  0.00    +0.041 A 
ATOM     23  C   UNL     1      -0.012   0.257  23.208  0.00  0.00    +0.018 A 
ATOM     24  C   UNL     1       1.261   2.092  24.027  0.00  0.00    +0.126 A 
ATOM     27  C   UNL     1       1.156  -0.275  22.674  0.00  0.00    +0.068 A 
ATOM     28  C   UNL     1       2.333   0.431  22.857  0.00  0.00    +0.215 A 
BRANCH  28   2
ATOM      2  O   UNL     1       3.498  -0.073  22.340  0.00  0.00    -0.474 OA
BRANCH   2  29
ATOM     29  C   UNL     1       4.671   0.710  22.522  0.00  0.00    +0.258 C 
BRANCH  29  30
ATOM     30  C   UNL     1       5.730  -0.136  23.203  0.00  0.00    +0.200 C 
BRANCH  30   3
ATOM      3  O   UNL     1       5.158  -0.767  24.342  0.00  0.00    -0.380 OA
ATOM     31  C   UNL     1       4.664  -2.062  24.028  0.00  0.00    +0.194 C 
ENDBRANCH  30   3
ENDBRANCH  29  30
ENDBRANCH   2  29
ENDBRANCH  28   2
ENDBRANCH  18  22
BRANCH  14   9
ATOM      4  N   UNL     1      -5.424   2.447  25.510  0.00  0.00    -0.287 NA
ATOM      9  C   UNL     1      -4.570   3.072  24.480  0.00  0.00    +0.146 C 
ATOM     10  C   UNL     1      -4.804   4.585  24.645  0.00  0.00    +0.030 C 
ATOM     11  C   UNL     1      -5.847   4.710  25.746  0.00  0.00    +0.017 C 
ATOM     12  C   UNL     1      -6.543   3.363  25.732  0.00  0.00    +0.085 C 
BRANCH   4  13
ATOM     13  C   UNL     1      -5.875   1.109  25.149  0.00  0.00    +0.120 C 
BRANCH  13  15
ATOM     15  C   UNL     1      -4.724   0.148  25.009  0.00  0.00    -0.033 A 
ATOM     16  C   UNL     1      -4.486  -0.482  23.787  0.00  0.00    +0.007 A 
ATOM     17  C   UNL     1      -3.894  -0.109  26.099  0.00  0.00    +0.007 A 
ATOM     19  C   UNL     1      -3.420  -1.371  23.657  0.00  0.00    +0.023 A 
ATOM     20  C   UNL     1      -2.827  -0.999  25.970  0.00  0.00    +0.023 A 
ATOM     21  C   UNL     1      -2.590  -1.630  24.749  0.00  0.00    +0.029 A 
BRANCH  21   7
ATOM      7  N   UNL     1      -1.511  -2.528  24.617  0.00  0.00    -0.336 N 
ATOM     25  C   UNL     1      -1.563  -3.601  23.644  0.00  0.00    +0.129 C 
ATOM     26  C   UNL     1      -0.333  -2.386  25.449  0.00  0.00    +0.129 C 
ENDBRANCH  21   7
ENDBRANCH  13  15
ENDBRANCH   4  13
ENDBRANCH  14   9
TORSDOF 9
ENDMDL
MODEL 2
REMARK VINA RESULT:       0.0      0.658      1.090
REMARK  Name = 45783549
REMARK  12 active torsions:
REMARK  status: ('A' for Active; 'I' for Inactive)
REMARK    1  A    between atoms: O_2  and  C_28
REMARK    2  A    between atoms: O_2  and  C_29
REMARK    3  A    between atoms: O_3  and  C_30
REMARK    4  A    between atoms: O_3  and  C_31
REMARK    5  A    between atoms: N_4  and  C_13
REMARK    6  A    between atoms: N_7  and  C_21
REMARK    7  A    between atoms: N_7  and  C_25
REMARK    8  A    between atoms: N_7  and  C_26
REMARK    9  A    between atoms: C_9  and  C_14
REMARK   10  A    between atoms: C_13  and  C_15
REMARK   11  A    between atoms: C_18  and  C_22
REMARK   12  A    between atoms: C_29  and  C_30
REMARK                            x       y       z     vdW  Elec       q    Type
REMARK                         _______ _______ _______ _____ _____    ______ ____
ROOT
ATOM      1  O   UNL     1      -2.478   2.962  25.756  0.00  0.00    -0.336 OA
ATOM      5  N   UNL     1      -2.345   2.099  23.694  0.00  0.00    -0.190 NA
ATOM      6  N   UNL     1      -1.166   2.492  25.614  0.00  0.00    -0.056 NA
ATOM     14  C   UNL     1      -3.104   2.691  24.581  0.00  0.00    +0.245 A 
ATOM     18  C   UNL     1      -1.166   1.998  24.373  0.00  0.00    +0.204 A 
ENDROOT
BRANCH  18  22
ATOM      8  N   UNL     1       0.957  -0.416  22.503  0.00  0.00    -0.221 NA
ATOM     22  C   UNL     1      -0.006   1.396  23.782  0.00  0.00    +0.041 A 
ATOM     23  C   UNL     1       1.246   1.991  23.896  0.00  0.00    +0.018 A 
ATOM     24  C   UNL     1      -0.096   0.204  23.082  0.00  0.00    +0.126 A 
ATOM     27  C   UNL     1       2.353   1.384  23.314  0.00  0.00    +0.068 A 
ATOM     28  C   UNL     1       2.157   0.193  22.635  0.00  0.00    +0.215 A 
BRANCH  28   2
ATOM      2  O   UNL     1       3.232  -0.425  22.052  0.00  0.00    -0.474 OA
BRANCH   2  29
ATOM     29  C   UNL     1       4.503  -0.199  22.652  0.00  0.00    +0.258 C 
BRANCH  29  30
ATOM     30  C   UNL     1       4.724  -1.229  23.744  0.00  0.00    +0.200 C 
BRANCH  30   3
ATOM      3  O   UNL     1       5.626  -0.699  24.707  0.00  0.00    -0.380 OA
ATOM     31  C   UNL     1       5.879   0.682  24.482  0.00  0.00    +0.194 C 
ENDBRANCH  30   3
ENDBRANCH  29  30
ENDBRANCH   2  29
ENDBRANCH  28   2
ENDBRANCH  18  22
BRANCH  14   9
ATOM      4  N   UNL     1      -5.390   2.531  25.552  0.00  0.00    -0.287 NA
ATOM      9  C   UNL     1      -4.556   3.109  24.479  0.00  0.00    +0.146 C 
ATOM     10  C   UNL     1      -4.748   4.631  24.612  0.00  0.00    +0.030 C 
ATOM     11  C   UNL     1      -5.750   4.810  25.743  0.00  0.00    +0.017 C 
ATOM     12  C   UNL     1      -6.479   3.481  25.786  0.00  0.00    +0.085 C 
BRANCH   4  13
ATOM     13  C   UNL     1      -5.884   1.196  25.239  0.00  0.00    +0.120 C 
BRANCH  13  15
ATOM     15  C   UNL     1      -4.761   0.209  25.063  0.00  0.00    -0.033 A 
ATOM     16  C   UNL     1      -4.581  -0.431  23.837  0.00  0.00    +0.007 A 
ATOM     17  C   UNL     1      -3.899  -0.063  26.125  0.00  0.00    +0.007 A 
ATOM     19  C   UNL     1      -3.541  -1.345  23.673  0.00  0.00    +0.023 A 
ATOM     20  C   UNL     1      -2.858  -0.977  25.962  0.00  0.00    +0.023 A 
ATOM     21  C   UNL     1      -2.679  -1.617  24.736  0.00  0.00    +0.029 A 
BRANCH  21   7
ATOM      7  N   UNL     1      -1.626  -2.541  24.570  0.00  0.00    -0.336 N 
ATOM     25  C   UNL     1      -1.725  -3.600  23.586  0.00  0.00    +0.129 C 
ATOM     26  C   UNL     1      -0.427  -2.438  25.378  0.00  0.00    +0.129 C 
ENDBRANCH  21   7
ENDBRANCH  13  15
ENDBRANCH   4  13
ENDBRANCH  14   9
TORSDOF 9
ENDMDL
MODEL 3
REMARK VINA RESULT:       1.1      1.755      4.209
REMARK  Name = 45783549
REMARK  12 active torsions:
REMARK  status: ('A' for Active; 'I' for Inactive)
REMARK    1  A    between atoms: O_2  and  C_28
REMARK    2  A    between atoms: O_2  and  C_29
REMARK    3  A    between atoms: O_3  and  C_30
REMARK    4  A    between atoms: O_3  and  C_31
REMARK    5  A    between atoms: N_4  and  C_13
REMARK    6  A    between atoms: N_7  and  C_21
REMARK    7  A    between atoms: N_7  and  C_25
REMARK    8  A    between atoms: N_7  and  C_26
REMARK    9  A    between atoms: C_9  and  C_14
REMARK   10  A    between atoms: C_13  and  C_15
REMARK   11  A    between atoms: C_18  and  C_22
REMARK   12  A    between atoms: C_29  and  C_30
REMARK                            x       y       z     vdW  Elec       q    Type
REMARK                         _______ _______ _______ _____ _____    ______ ____
ROOT
ATOM      1  O   UNL     1      -1.998   0.054  26.013  0.00  0.00    -0.336 OA
ATOM      5  N   UNL     1      -1.379  -0.873  24.070  0.00  0.00    -0.190 NA
ATOM      6  N   UNL     1      -0.728   0.568  25.723  0.00  0.00    -0.056 NA
ATOM     14  C   UNL     1      -2.306  -0.786  24.990  0.00  0.00    +0.245 A 
ATOM     18  C   UNL     1      -0.430  -0.025  24.563  0.00  0.00    +0.204 A 
ENDROOT
BRANCH  18  22
ATOM      8  N   UNL     1       2.664   1.678  23.400  0.00  0.00    -0.221 NA
ATOM     22  C   UNL     1       0.805   0.206  23.873  0.00  0.00    +0.041 A 
ATOM     23  C   UNL     1       1.346  -0.759  23.029  0.00  0.00    +0.018 A 
ATOM     24  C   UNL     1       1.497   1.397  24.022  0.00  0.00    +0.126 A 
ATOM     27  C   UNL     1       2.545  -0.507  22.372  0.00  0.00    +0.068 A 
ATOM     28  C   UNL     1       3.159   0.715  22.589  0.00  0.00    +0.215 A 
BRANCH  28   2
ATOM      2  O   UNL     1       4.341   0.988  21.953  0.00  0.00    -0.474 OA
BRANCH   2  29
ATOM     29  C   UNL     1       5.495   0.302  22.426  0.00  0.00    +0.258 C 
BRANCH  29  30
ATOM     30  C   UNL     1       5.647   0.559  23.913  0.00  0.00    +0.200 C 
BRANCH  30   3
ATOM      3  O   UNL     1       5.717  -0.687  24.596  0.00  0.00    -0.380 OA
ATOM     31  C   UNL     1       4.939  -1.683  23.945  0.00  0.00    +0.194 C 
ENDBRANCH  30   3
ENDBRANCH  29  30
ENDBRANCH   2  29
ENDBRANCH  28   2
ENDBRANCH  18  22
BRANCH  14   9
ATOM      4  N   UNL     1      -4.568  -1.060  23.988  0.00  0.00    -0.287 NA
ATOM      9  C   UNL     1      -3.650  -1.478  25.068  0.00  0.00    +0.146 C 
ATOM     10  C   UNL     1      -3.541  -3.007  24.916  0.00  0.00    +0.030 C 
ATOM     11  C   UNL     1      -4.476  -3.362  23.769  0.00  0.00    +0.017 C 
ATOM     12  C   UNL     1      -5.448  -2.199  23.729  0.00  0.00    +0.085 C 
BRANCH   4  13
ATOM     13  C   UNL     1      -5.315   0.150  24.307  0.00  0.00    +0.120 C 
BRANCH  13  15
ATOM     15  C   UNL     1      -4.411   1.344  24.460  0.00  0.00    -0.033 A 
ATOM     16  C   UNL     1      -4.506   2.150  25.595  0.00  0.00    +0.007 A 
ATOM     17  C   UNL     1      -3.478   1.644  23.468  0.00  0.00    +0.007 A 
ATOM     19  C   UNL     1      -3.669   3.256  25.737  0.00  0.00    +0.023 A 
ATOM     20  C   UNL     1      -2.640   2.750  23.610  0.00  0.00    +0.023 A 
ATOM     21  C   UNL     1      -2.735   3.555  24.744  0.00  0.00    +0.029 A 
BRANCH  21   7
ATOM      7  N   UNL     1      -1.887   4.673  24.889  0.00  0.00    -0.336 N 
ATOM     25  C   UNL     1      -2.432   5.966  25.254  0.00  0.00    +0.129 C 
ATOM     26  C   UNL     1      -0.459   4.542  24.680  0.00  0.00    +0.129 C 
ENDBRANCH  21   7
ENDBRANCH  13  15
ENDBRANCH   4  13
ENDBRANCH  14   9
TORSDOF 9
ENDMDL
