MODEL 1
REMARK VINA RESULT:      11.9      0.000      0.000
REMARK  Name = 7156392
REMARK  7 active torsions:
REMARK  status: ('A' for Active; 'I' for Inactive)
REMARK    1  A    between atoms: N_3  and  C_12
REMARK    2  A    between atoms: N_6  and  C_28
REMARK    3  A    between atoms: N_6  and  C_32
REMARK    4  A    between atoms: N_6  and  C_33
REMARK    5  A    between atoms: C_21  and  C_24
REMARK    6  A    between atoms: C_23  and  C_25
REMARK    7  A    between atoms: C_26  and  C_28
REMARK                            x       y       z     vdW  Elec       q    Type
REMARK                         _______ _______ _______ _____ _____    ______ ____
ROOT
ATOM      1  O   UNL     1      -2.837   1.625  26.718  0.00  0.00    -0.267 OA
ATOM      3  N   UNL     1       0.345  -0.939  23.810  0.00  0.00    -0.298 NA
ATOM      4  N   UNL     1      -2.369  -0.161  25.295  0.00  0.00    -0.311 N 
ATOM      7  C   UNL     1      -0.650  -1.973  25.865  0.00  0.00    +0.024 C 
ATOM      8  C   UNL     1      -1.874  -2.085  23.748  0.00  0.00    +0.050 C 
ATOM      9  C   UNL     1      -1.532  -2.873  25.010  0.00  0.00    +0.017 C 
ATOM     10  C   UNL     1       0.631  -1.597  25.091  0.00  0.00    +0.090 C 
ATOM     11  C   UNL     1      -0.574  -1.740  22.987  0.00  0.00    +0.094 C 
ATOM     13  C   UNL     1      -1.463  -0.745  26.294  0.00  0.00    +0.130 C 
ATOM     14  C   UNL     1      -2.639  -0.821  24.093  0.00  0.00    +0.026 A 
ATOM     19  C   UNL     1      -3.555  -0.328  23.245  0.00  0.00    +0.022 A 
ATOM     20  C   UNL     1      -3.023   1.034  25.654  0.00  0.00    +0.259 A 
ATOM     21  C   UNL     1      -4.019   1.581  24.666  0.00  0.00    +0.047 A 
ATOM     22  C   UNL     1      -4.249   0.895  23.537  0.00  0.00    +0.015 A 
ENDROOT
BRANCH   3  12
ATOM      2  O   UNL     1       5.865   1.718  23.861  0.00  0.00    -0.276 OA
ATOM      5  N   UNL     1       4.359   0.109  23.128  0.00  0.00    -0.302 N 
ATOM     12  C   UNL     1       1.566  -0.649  23.091  0.00  0.00    +0.060 C 
ATOM     15  C   UNL     1       2.003   0.790  23.379  0.00  0.00    +0.038 C 
ATOM     16  C   UNL     1       2.660  -1.640  23.504  0.00  0.00    +0.038 C 
ATOM     17  C   UNL     1       3.351   1.095  22.730  0.00  0.00    +0.109 C 
ATOM     18  C   UNL     1       3.997  -1.288  22.852  0.00  0.00    +0.109 C 
ATOM     23  C   UNL     1       5.567   0.535  23.677  0.00  0.00    +0.212 C 
ATOM     25  C   UNL     1       6.551  -0.540  24.063  0.00  0.00    +0.109 C 
ENDBRANCH   3  12
BRANCH  21  24
ATOM     24  C   UNL     1      -4.728   2.848  24.919  0.00  0.00    -0.008 A 
ATOM     26  C   UNL     1      -4.174   4.077  24.558  0.00  0.00    -0.026 A 
ATOM     27  C   UNL     1      -5.981   2.807  25.536  0.00  0.00    +0.009 A 
ATOM     29  C   UNL     1      -4.869   5.261  24.810  0.00  0.00    +0.005 A 
ATOM     30  C   UNL     1      -6.676   3.989  25.789  0.00  0.00    +0.001 A 
ATOM     31  C   UNL     1      -6.120   5.216  25.427  0.00  0.00    +0.000 A 
BRANCH  26  28
ATOM     28  C   UNL     1      -2.836   4.163  23.896  0.00  0.00    +0.119 C 
BRANCH  28   6
ATOM      6  N   UNL     1      -1.708   4.112  24.807  0.00  0.00    -0.304 NA
ATOM     32  C   UNL     1      -1.151   5.452  25.024  0.00  0.00    +0.104 C 
ATOM     33  C   UNL     1      -0.666   3.213  24.301  0.00  0.00    +0.104 C 
ENDBRANCH  28   6
ENDBRANCH  26  28
ENDBRANCH  21  24
TORSDOF 4
ENDMDL
