MODEL 1
REMARK VINA RESULT:      -4.8      0.000      0.000
REMARK  Name = 75536610
REMARK  7 active torsions:
REMARK  status: ('A' for Active; 'I' for Inactive)
REMARK    1  A    between atoms: O_4  and  C_9
REMARK    2  A    between atoms: N_6  and  C_8
REMARK    3  A    between atoms: N_6  and  C_13
REMARK    4  A    between atoms: N_7  and  C_12
REMARK    5  A    between atoms: C_10  and  C_12
REMARK    6  A    between atoms: C_13  and  C_14
REMARK    7  A    between atoms: C_15  and  C_18
REMARK                            x       y       z     vdW  Elec       q    Type
REMARK                         _______ _______ _______ _____ _____    ______ ____
ROOT
ATOM      3  O   UNL     1       0.178   3.543  23.658  0.00  0.00    -0.371 OA
ATOM      8  C   UNL     1      -0.899   3.944  25.736  0.00  0.00    +0.111 C 
ATOM      9  C   UNL     1      -0.590   2.463  25.617  0.00  0.00    +0.164 C 
ATOM     10  C   UNL     1       0.509   2.477  24.563  0.00  0.00    +0.165 C 
ATOM     11  C   UNL     1      -0.799   4.391  24.287  0.00  0.00    +0.181 C 
ENDROOT
BRANCH   9   4
ATOM      4  O   UNL     1      -0.147   1.897  26.834  0.00  0.00    -0.388 OA
ATOM     26  H   UNL     1      -0.626   1.065  26.977  0.00  0.00    +0.210 HD
ENDBRANCH   9   4
BRANCH   8   6
ATOM      6  N   UNL     1      -2.198   4.224  26.327  0.00  0.00    -0.305 NA
ATOM     25  H   UNL     1      -2.112   5.020  26.959  0.00  0.00    +0.123 HD
BRANCH   6  13
ATOM     13  C   UNL     1      -3.184   4.539  25.300  0.00  0.00    +0.119 C 
BRANCH  13  14
ATOM      2  F   UNL     1      -3.433   2.808  23.072  0.00  0.00    -0.205 F 
ATOM     14  C   UNL     1      -4.246   3.476  25.200  0.00  0.00    +0.002 A 
ATOM     16  C   UNL     1      -4.312   2.658  24.073  0.00  0.00    +0.128 A 
ATOM     17  C   UNL     1      -5.166   3.312  26.236  0.00  0.00    +0.008 A 
ATOM     19  C   UNL     1      -5.297   1.675  23.981  0.00  0.00    +0.038 A 
ATOM     20  C   UNL     1      -6.152   2.329  26.145  0.00  0.00    +0.000 A 
ATOM     21  C   UNL     1      -6.217   1.510  25.018  0.00  0.00    +0.003 A 
ENDBRANCH  13  14
ENDBRANCH   6  13
ENDBRANCH   8   6
BRANCH  10  12
ATOM     12  C   UNL     1       0.623   1.171  23.798  0.00  0.00    +0.138 C 
BRANCH  12   7
ATOM      5  O   UNL     1       0.136  -1.405  24.972  0.00  0.00    -0.270 OA
ATOM      7  N   UNL     1      -0.619   0.453  23.804  0.00  0.00    -0.308 N 
ATOM     15  C   UNL     1      -0.765  -0.796  24.399  0.00  0.00    +0.251 C 
ATOM     27  H   UNL     1      -1.406   0.890  23.336  0.00  0.00    +0.149 HD
BRANCH  15  18
ATOM      1  S   UNL     1      -2.281  -3.091  24.626  0.00  0.00    -0.092 S 
ATOM     18  C   UNL     1      -2.110  -1.419  24.297  0.00  0.00    +0.074 A 
ATOM     22  C   UNL     1      -3.310  -0.834  23.958  0.00  0.00    +0.021 A 
ATOM     23  C   UNL     1      -4.384  -1.769  23.970  0.00  0.00    +0.008 A 
ATOM     24  C   UNL     1      -3.965  -3.035  24.317  0.00  0.00    +0.046 A 
ENDBRANCH  15  18
ENDBRANCH  12   7
ENDBRANCH  10  12
TORSDOF 7
ENDMDL
MODEL 2
REMARK VINA RESULT:      -4.5      2.371      4.715
REMARK  Name = 75536610
REMARK  7 active torsions:
REMARK  status: ('A' for Active; 'I' for Inactive)
REMARK    1  A    between atoms: O_4  and  C_9
REMARK    2  A    between atoms: N_6  and  C_8
REMARK    3  A    between atoms: N_6  and  C_13
REMARK    4  A    between atoms: N_7  and  C_12
REMARK    5  A    between atoms: C_10  and  C_12
REMARK    6  A    between atoms: C_13  and  C_14
REMARK    7  A    between atoms: C_15  and  C_18
REMARK                            x       y       z     vdW  Elec       q    Type
REMARK                         _______ _______ _______ _____ _____    ______ ____
ROOT
ATOM      3  O   UNL     1       0.121   3.707  25.960  0.00  0.00    -0.371 OA
ATOM      8  C   UNL     1       0.314   1.666  24.761  0.00  0.00    +0.111 C 
ATOM      9  C   UNL     1      -0.779   2.508  24.130  0.00  0.00    +0.164 C 
ATOM     10  C   UNL     1      -0.409   3.895  24.637  0.00  0.00    +0.165 C 
ATOM     11  C   UNL     1       0.444   2.315  26.129  0.00  0.00    +0.181 C 
ENDROOT
BRANCH   9   4
ATOM      4  O   UNL     1      -0.772   2.444  22.718  0.00  0.00    -0.388 OA
ATOM     26  H   UNL     1      -1.690   2.497  22.404  0.00  0.00    +0.210 HD
ENDBRANCH   9   4
BRANCH   8   6
ATOM      6  N   UNL     1      -0.010   0.250  24.835  0.00  0.00    -0.305 NA
ATOM     25  H   UNL     1       0.803  -0.260  25.181  0.00  0.00    +0.123 HD
BRANCH   6  13
ATOM     13  C   UNL     1      -1.134   0.015  25.734  0.00  0.00    +0.119 C 
BRANCH  13  14
ATOM      2  F   UNL     1      -0.789  -2.756  25.263  0.00  0.00    -0.205 F 
ATOM     14  C   UNL     1      -2.190  -0.847  25.097  0.00  0.00    +0.002 A 
ATOM     16  C   UNL     1      -1.954  -2.207  24.893  0.00  0.00    +0.128 A 
ATOM     17  C   UNL     1      -3.406  -0.285  24.709  0.00  0.00    +0.008 A 
ATOM     19  C   UNL     1      -2.934  -3.004  24.302  0.00  0.00    +0.038 A 
ATOM     20  C   UNL     1      -4.387  -1.082  24.118  0.00  0.00    +0.000 A 
ATOM     21  C   UNL     1      -4.151  -2.442  23.914  0.00  0.00    +0.003 A 
ENDBRANCH  13  14
ENDBRANCH   6  13
ENDBRANCH   8   6
BRANCH  10  12
ATOM     12  C   UNL     1      -1.588   4.850  24.689  0.00  0.00    +0.138 C 
BRANCH  12   7
ATOM      5  O   UNL     1      -3.040   3.964  27.003  0.00  0.00    -0.270 OA
ATOM      7  N   UNL     1      -2.834   4.139  24.698  0.00  0.00    -0.308 N 
ATOM     15  C   UNL     1      -3.470   3.747  25.872  0.00  0.00    +0.251 C 
ATOM     27  H   UNL     1      -3.243   3.913  23.797  0.00  0.00    +0.149 HD
BRANCH  15  18
ATOM      1  S   UNL     1      -5.237   2.521  24.143  0.00  0.00    -0.092 S 
ATOM     18  C   UNL     1      -4.742   2.996  25.712  0.00  0.00    +0.074 A 
ATOM     22  C   UNL     1      -5.639   2.601  26.679  0.00  0.00    +0.021 A 
ATOM     23  C   UNL     1      -6.747   1.897  26.126  0.00  0.00    +0.008 A 
ATOM     24  C   UNL     1      -6.655   1.781  24.755  0.00  0.00    +0.046 A 
ENDBRANCH  15  18
ENDBRANCH  12   7
ENDBRANCH  10  12
TORSDOF 7
ENDMDL
MODEL 3
REMARK VINA RESULT:      -4.3      2.986      5.105
REMARK  Name = 75536610
REMARK  7 active torsions:
REMARK  status: ('A' for Active; 'I' for Inactive)
REMARK    1  A    between atoms: O_4  and  C_9
REMARK    2  A    between atoms: N_6  and  C_8
REMARK    3  A    between atoms: N_6  and  C_13
REMARK    4  A    between atoms: N_7  and  C_12
REMARK    5  A    between atoms: C_10  and  C_12
REMARK    6  A    between atoms: C_13  and  C_14
REMARK    7  A    between atoms: C_15  and  C_18
REMARK                            x       y       z     vdW  Elec       q    Type
REMARK                         _______ _______ _______ _____ _____    ______ ____
ROOT
ATOM      3  O   UNL     1      -0.793  -0.004  25.523  0.00  0.00    -0.371 OA
ATOM      8  C   UNL     1      -2.892  -1.104  25.686  0.00  0.00    +0.111 C 
ATOM      9  C   UNL     1      -2.298  -1.372  24.315  0.00  0.00    +0.164 C 
ATOM     10  C   UNL     1      -0.825  -1.081  24.572  0.00  0.00    +0.165 C 
ATOM     11  C   UNL     1      -2.093   0.112  26.128  0.00  0.00    +0.181 C 
ENDROOT
BRANCH   9   4
ATOM      4  O   UNL     1      -2.505  -2.702  23.881  0.00  0.00    -0.388 OA
ATOM     26  H   UNL     1      -2.346  -2.739  22.924  0.00  0.00    +0.210 HD
ENDBRANCH   9   4
BRANCH   8   6
ATOM      6  N   UNL     1      -4.325  -0.861  25.663  0.00  0.00    -0.305 NA
ATOM     25  H   UNL     1      -4.580  -0.298  26.474  0.00  0.00    +0.123 HD
BRANCH   6  13
ATOM     13  C   UNL     1      -4.718  -0.150  24.451  0.00  0.00    +0.119 C 
BRANCH  13  14
ATOM      2  F   UNL     1      -2.970   1.560  23.023  0.00  0.00    -0.205 F 
ATOM     14  C   UNL     1      -4.690   1.342  24.644  0.00  0.00    +0.002 A 
ATOM     16  C   UNL     1      -3.803   2.126  23.908  0.00  0.00    +0.128 A 
ATOM     17  C   UNL     1      -5.553   1.941  25.562  0.00  0.00    +0.008 A 
ATOM     19  C   UNL     1      -3.778   3.509  24.088  0.00  0.00    +0.038 A 
ATOM     20  C   UNL     1      -5.529   3.324  25.744  0.00  0.00    +0.000 A 
ATOM     21  C   UNL     1      -4.641   4.109  25.006  0.00  0.00    +0.003 A 
ENDBRANCH  13  14
ENDBRANCH   6  13
ENDBRANCH   8   6
BRANCH  10  12
ATOM     12  C   UNL     1      -0.065  -0.684  23.320  0.00  0.00    +0.138 C 
BRANCH  12   7
ATOM      5  O   UNL     1       2.011  -0.204  21.394  0.00  0.00    -0.270 OA
ATOM      7  N   UNL     1       1.331  -0.502  23.593  0.00  0.00    -0.308 N 
ATOM     15  C   UNL     1       2.272  -0.273  22.593  0.00  0.00    +0.251 C 
ATOM     27  H   UNL     1       1.622  -0.560  24.563  0.00  0.00    +0.149 HD
BRANCH  15  18
ATOM      1  S   UNL     1       4.453  -1.455  23.803  0.00  0.00    -0.092 S 
ATOM     18  C   UNL     1       3.682  -0.131  23.038  0.00  0.00    +0.074 A 
ATOM     22  C   UNL     1       4.516   0.960  22.929  0.00  0.00    +0.021 A 
ATOM     23  C   UNL     1       5.805   0.705  23.479  0.00  0.00    +0.008 A 
ATOM     24  C   UNL     1       5.908  -0.571  23.988  0.00  0.00    +0.046 A 
ENDBRANCH  15  18
ENDBRANCH  12   7
ENDBRANCH  10  12
TORSDOF 7
ENDMDL
MODEL 4
REMARK VINA RESULT:      -4.2     15.077     17.478
REMARK  Name = 75536610
REMARK  7 active torsions:
REMARK  status: ('A' for Active; 'I' for Inactive)
REMARK    1  A    between atoms: O_4  and  C_9
REMARK    2  A    between atoms: N_6  and  C_8
REMARK    3  A    between atoms: N_6  and  C_13
REMARK    4  A    between atoms: N_7  and  C_12
REMARK    5  A    between atoms: C_10  and  C_12
REMARK    6  A    between atoms: C_13  and  C_14
REMARK    7  A    between atoms: C_15  and  C_18
REMARK                            x       y       z     vdW  Elec       q    Type
REMARK                         _______ _______ _______ _____ _____    ______ ____
ROOT
ATOM      3  O   UNL     1      -3.364  -9.948  12.045  0.00  0.00    -0.371 OA
ATOM      8  C   UNL     1      -5.281 -10.780  13.175  0.00  0.00    +0.111 C 
ATOM      9  C   UNL     1      -5.728  -9.861  12.053  0.00  0.00    +0.164 C 
ATOM     10  C   UNL     1      -4.494  -9.867  11.161  0.00  0.00    +0.165 C 
ATOM     11  C   UNL     1      -3.827 -10.367  13.341  0.00  0.00    +0.181 C 
ENDROOT
BRANCH   9   4
ATOM      4  O   UNL     1      -6.871 -10.344  11.375  0.00  0.00    -0.388 OA
ATOM     26  H   UNL     1      -6.576 -10.870  10.614  0.00  0.00    +0.210 HD
ENDBRANCH   9   4
BRANCH   8   6
ATOM      6  N   UNL     1      -6.055 -10.628  14.397  0.00  0.00    -0.305 NA
ATOM     25  H   UNL     1      -6.732 -11.389  14.458  0.00  0.00    +0.123 HD
BRANCH   6  13
ATOM     13  C   UNL     1      -5.194 -10.667  15.573  0.00  0.00    +0.119 C 
BRANCH  13  14
ATOM      2  F   UNL     1      -3.997 -10.714  18.139  0.00  0.00    -0.205 F 
ATOM     14  C   UNL     1      -5.988 -10.617  16.850  0.00  0.00    +0.002 A 
ATOM     16  C   UNL     1      -5.334 -10.645  18.082  0.00  0.00    +0.128 A 
ATOM     17  C   UNL     1      -7.380 -10.543  16.801  0.00  0.00    +0.008 A 
ATOM     19  C   UNL     1      -6.072 -10.598  19.265  0.00  0.00    +0.038 A 
ATOM     20  C   UNL     1      -8.119 -10.498  17.984  0.00  0.00    +0.000 A 
ATOM     21  C   UNL     1      -7.465 -10.525  19.216  0.00  0.00    +0.003 A 
ENDBRANCH  13  14
ENDBRANCH   6  13
ENDBRANCH   8   6
BRANCH  10  12
ATOM     12  C   UNL     1      -4.377  -8.628  10.291  0.00  0.00    +0.138 C 
BRANCH  12   7
ATOM      5  O   UNL     1      -6.215  -9.541   8.283  0.00  0.00    -0.270 OA
ATOM      7  N   UNL     1      -5.667  -8.074   9.995  0.00  0.00    -0.308 N 
ATOM     15  C   UNL     1      -6.495  -8.583   9.000  0.00  0.00    +0.251 C 
ATOM     27  H   UNL     1      -5.959  -7.270  10.541  0.00  0.00    +0.149 HD
BRANCH  15  18
ATOM      1  S   UNL     1      -9.248  -8.705   9.158  0.00  0.00    -0.092 S 
ATOM     18  C   UNL     1      -7.790  -7.882   8.800  0.00  0.00    +0.074 A 
ATOM     22  C   UNL     1      -8.017  -6.601   8.346  0.00  0.00    +0.021 A 
ATOM     23  C   UNL     1      -9.406  -6.291   8.291  0.00  0.00    +0.008 A 
ATOM     24  C   UNL     1     -10.189  -7.348   8.706  0.00  0.00    +0.046 A 
ENDBRANCH  15  18
ENDBRANCH  12   7
ENDBRANCH  10  12
TORSDOF 7
ENDMDL
MODEL 5
REMARK VINA RESULT:      -4.2      2.317      4.611
REMARK  Name = 75536610
REMARK  7 active torsions:
REMARK  status: ('A' for Active; 'I' for Inactive)
REMARK    1  A    between atoms: O_4  and  C_9
REMARK    2  A    between atoms: N_6  and  C_8
REMARK    3  A    between atoms: N_6  and  C_13
REMARK    4  A    between atoms: N_7  and  C_12
REMARK    5  A    between atoms: C_10  and  C_12
REMARK    6  A    between atoms: C_13  and  C_14
REMARK    7  A    between atoms: C_15  and  C_18
REMARK                            x       y       z     vdW  Elec       q    Type
REMARK                         _______ _______ _______ _____ _____    ______ ____
ROOT
ATOM      3  O   UNL     1      -3.895   3.512  26.731  0.00  0.00    -0.371 OA
ATOM      8  C   UNL     1      -2.272   4.313  25.192  0.00  0.00    +0.111 C 
ATOM      9  C   UNL     1      -3.444   3.735  24.419  0.00  0.00    +0.164 C 
ATOM     10  C   UNL     1      -4.541   3.779  25.475  0.00  0.00    +0.165 C 
ATOM     11  C   UNL     1      -2.477   3.687  26.562  0.00  0.00    +0.181 C 
ENDROOT
BRANCH   9   4
ATOM      4  O   UNL     1      -3.778   4.502  23.279  0.00  0.00    -0.388 OA
ATOM     26  H   UNL     1      -4.171   5.339  23.578  0.00  0.00    +0.210 HD
ENDBRANCH   9   4
BRANCH   8   6
ATOM      6  N   UNL     1      -0.977   3.995  24.612  0.00  0.00    -0.305 NA
ATOM     25  H   UNL     1      -0.438   4.855  24.509  0.00  0.00    +0.123 HD
BRANCH   6  13
ATOM     13  C   UNL     1      -0.235   3.070  25.461  0.00  0.00    +0.119 C 
BRANCH  13  14
ATOM      2  F   UNL     1      -1.423   0.621  26.243  0.00  0.00    -0.205 F 
ATOM     14  C   UNL     1       0.038   1.765  24.762  0.00  0.00    +0.002 A 
ATOM     16  C   UNL     1      -0.581   0.594  25.200  0.00  0.00    +0.128 A 
ATOM     17  C   UNL     1       0.912   1.727  23.676  0.00  0.00    +0.008 A 
ATOM     19  C   UNL     1      -0.326  -0.614  24.552  0.00  0.00    +0.038 A 
ATOM     20  C   UNL     1       1.168   0.518  23.027  0.00  0.00    +0.000 A 
ATOM     21  C   UNL     1       0.548  -0.652  23.465  0.00  0.00    +0.003 A 
ENDBRANCH  13  14
ENDBRANCH   6  13
ENDBRANCH   8   6
BRANCH  10  12
ATOM     12  C   UNL     1      -5.642   2.761  25.238  0.00  0.00    +0.138 C 
BRANCH  12   7
ATOM      5  O   UNL     1      -3.995   1.267  23.420  0.00  0.00    -0.270 OA
ATOM      7  N   UNL     1      -5.162   1.422  25.420  0.00  0.00    -0.308 N 
ATOM     15  C   UNL     1      -4.365   0.772  24.483  0.00  0.00    +0.251 C 
ATOM     27  H   UNL     1      -5.441   0.944  26.271  0.00  0.00    +0.149 HD
BRANCH  15  18
ATOM      1  S   UNL     1      -4.042  -1.817  23.583  0.00  0.00    -0.092 S 
ATOM     18  C   UNL     1      -3.972  -0.623  24.809  0.00  0.00    +0.074 A 
ATOM     22  C   UNL     1      -3.536  -1.139  26.009  0.00  0.00    +0.021 A 
ATOM     23  C   UNL     1      -3.255  -2.533  25.922  0.00  0.00    +0.008 A 
ATOM     24  C   UNL     1      -3.487  -3.030  24.657  0.00  0.00    +0.046 A 
ENDBRANCH  15  18
ENDBRANCH  12   7
ENDBRANCH  10  12
TORSDOF 7
ENDMDL
MODEL 6
REMARK VINA RESULT:      -4.0      3.033      4.948
REMARK  Name = 75536610
REMARK  7 active torsions:
REMARK  status: ('A' for Active; 'I' for Inactive)
REMARK    1  A    between atoms: O_4  and  C_9
REMARK    2  A    between atoms: N_6  and  C_8
REMARK    3  A    between atoms: N_6  and  C_13
REMARK    4  A    between atoms: N_7  and  C_12
REMARK    5  A    between atoms: C_10  and  C_12
REMARK    6  A    between atoms: C_13  and  C_14
REMARK    7  A    between atoms: C_15  and  C_18
REMARK                            x       y       z     vdW  Elec       q    Type
REMARK                         _______ _______ _______ _____ _____    ______ ____
ROOT
ATOM      3  O   UNL     1      -1.852   1.931  22.519  0.00  0.00    -0.371 OA
ATOM      8  C   UNL     1      -2.660   2.328  24.717  0.00  0.00    +0.111 C 
ATOM      9  C   UNL     1      -1.604   1.239  24.767  0.00  0.00    +0.164 C 
ATOM     10  C   UNL     1      -0.861   1.491  23.463  0.00  0.00    +0.165 C 
ATOM     11  C   UNL     1      -3.033   2.318  23.243  0.00  0.00    +0.181 C 
ENDROOT
BRANCH   9   4
ATOM      4  O   UNL     1      -0.752   1.355  25.890  0.00  0.00    -0.388 OA
ATOM     26  H   UNL     1      -1.032   2.129  26.407  0.00  0.00    +0.210 HD
ENDBRANCH   9   4
BRANCH   8   6
ATOM      6  N   UNL     1      -3.796   2.079  25.590  0.00  0.00    -0.305 NA
ATOM     25  H   UNL     1      -4.310   2.950  25.724  0.00  0.00    +0.123 HD
BRANCH   6  13
ATOM     13  C   UNL     1      -4.693   1.084  25.014  0.00  0.00    +0.119 C 
BRANCH  13  14
ATOM      2  F   UNL     1      -4.405  -0.651  22.794  0.00  0.00    -0.205 F 
ATOM     14  C   UNL     1      -4.132  -0.308  25.127  0.00  0.00    +0.002 A 
ATOM     16  C   UNL     1      -4.018  -1.111  23.992  0.00  0.00    +0.128 A 
ATOM     17  C   UNL     1      -3.726  -0.795  26.369  0.00  0.00    +0.008 A 
ATOM     19  C   UNL     1      -3.498  -2.401  24.099  0.00  0.00    +0.038 A 
ATOM     20  C   UNL     1      -3.206  -2.086  26.478  0.00  0.00    +0.000 A 
ATOM     21  C   UNL     1      -3.092  -2.889  25.342  0.00  0.00    +0.003 A 
ENDBRANCH  13  14
ENDBRANCH   6  13
ENDBRANCH   8   6
BRANCH  10  12
ATOM     12  C   UNL     1      -0.153   0.260  22.927  0.00  0.00    +0.138 C 
BRANCH  12   7
ATOM      5  O   UNL     1       2.121  -0.249  21.248  0.00  0.00    -0.270 OA
ATOM      7  N   UNL     1       1.222   0.230  23.334  0.00  0.00    -0.308 N 
ATOM     15  C   UNL     1       2.265  -0.025  22.448  0.00  0.00    +0.251 C 
ATOM     27  H   UNL     1       1.416   0.393  24.316  0.00  0.00    +0.149 HD
BRANCH  15  18
ATOM      1  S   UNL     1       4.184  -1.466  23.812  0.00  0.00    -0.092 S 
ATOM     18  C   UNL     1       3.632  -0.046  23.031  0.00  0.00    +0.074 A 
ATOM     22  C   UNL     1       4.579   0.954  23.046  0.00  0.00    +0.021 A 
ATOM     23  C   UNL     1       5.775   0.549  23.706  0.00  0.00    +0.008 A 
ATOM     24  C   UNL     1       5.696  -0.747  24.171  0.00  0.00    +0.046 A 
ENDBRANCH  15  18
ENDBRANCH  12   7
ENDBRANCH  10  12
TORSDOF 7
ENDMDL
MODEL 7
REMARK VINA RESULT:      -3.5      2.364      4.913
REMARK  Name = 75536610
REMARK  7 active torsions:
REMARK  status: ('A' for Active; 'I' for Inactive)
REMARK    1  A    between atoms: O_4  and  C_9
REMARK    2  A    between atoms: N_6  and  C_8
REMARK    3  A    between atoms: N_6  and  C_13
REMARK    4  A    between atoms: N_7  and  C_12
REMARK    5  A    between atoms: C_10  and  C_12
REMARK    6  A    between atoms: C_13  and  C_14
REMARK    7  A    between atoms: C_15  and  C_18
REMARK                            x       y       z     vdW  Elec       q    Type
REMARK                         _______ _______ _______ _____ _____    ______ ____
ROOT
ATOM      3  O   UNL     1       1.236   2.519  24.287  0.00  0.00    -0.371 OA
ATOM      8  C   UNL     1       0.415   0.729  22.959  0.00  0.00    +0.111 C 
ATOM      9  C   UNL     1      -0.760   1.493  23.542  0.00  0.00    +0.164 C 
ATOM     10  C   UNL     1      -0.106   2.826  23.876  0.00  0.00    +0.165 C 
ATOM     11  C   UNL     1       1.547   1.179  23.869  0.00  0.00    +0.181 C 
ENDROOT
BRANCH   9   4
ATOM      4  O   UNL     1      -1.824   1.642  22.623  0.00  0.00    -0.388 OA
ATOM     26  H   UNL     1      -1.651   2.429  22.080  0.00  0.00    +0.210 HD
ENDBRANCH   9   4
BRANCH   8   6
ATOM      6  N   UNL     1       0.230  -0.713  22.956  0.00  0.00    -0.305 NA
ATOM     25  H   UNL     1       1.018  -1.148  22.474  0.00  0.00    +0.123 HD
BRANCH   6  13
ATOM     13  C   UNL     1       0.159  -1.236  24.315  0.00  0.00    +0.119 C 
BRANCH  13  14
ATOM      2  F   UNL     1      -1.143   0.149  26.414  0.00  0.00    -0.205 F 
ATOM     14  C   UNL     1      -1.259  -1.521  24.732  0.00  0.00    +0.002 A 
ATOM     16  C   UNL     1      -1.840  -0.801  25.775  0.00  0.00    +0.128 A 
ATOM     17  C   UNL     1      -1.993  -2.507  24.073  0.00  0.00    +0.008 A 
ATOM     19  C   UNL     1      -3.154  -1.066  26.160  0.00  0.00    +0.038 A 
ATOM     20  C   UNL     1      -3.307  -2.774  24.457  0.00  0.00    +0.000 A 
ATOM     21  C   UNL     1      -3.888  -2.053  25.501  0.00  0.00    +0.003 A 
ENDBRANCH  13  14
ENDBRANCH   6  13
ENDBRANCH   8   6
BRANCH  10  12
ATOM     12  C   UNL     1      -0.820   3.584  24.981  0.00  0.00    +0.138 C 
BRANCH  12   7
ATOM      5  O   UNL     1      -3.333   4.220  23.743  0.00  0.00    -0.270 OA
ATOM      7  N   UNL     1      -2.094   2.996  25.278  0.00  0.00    -0.308 N 
ATOM     15  C   UNL     1      -3.266   3.366  24.625  0.00  0.00    +0.251 C 
ATOM     27  H   UNL     1      -2.117   2.291  26.008  0.00  0.00    +0.149 HD
BRANCH  15  18
ATOM      1  S   UNL     1      -5.521   3.446  26.215  0.00  0.00    -0.092 S 
ATOM     18  C   UNL     1      -4.508   2.680  25.066  0.00  0.00    +0.074 A 
ATOM     22  C   UNL     1      -5.003   1.455  24.676  0.00  0.00    +0.021 A 
ATOM     23  C   UNL     1      -6.230   1.141  25.329  0.00  0.00    +0.008 A 
ATOM     24  C   UNL     1      -6.626   2.139  26.193  0.00  0.00    +0.046 A 
ENDBRANCH  15  18
ENDBRANCH  12   7
ENDBRANCH  10  12
TORSDOF 7
ENDMDL
MODEL 8
REMARK VINA RESULT:      -3.3      2.860      4.264
REMARK  Name = 75536610
REMARK  7 active torsions:
REMARK  status: ('A' for Active; 'I' for Inactive)
REMARK    1  A    between atoms: O_4  and  C_9
REMARK    2  A    between atoms: N_6  and  C_8
REMARK    3  A    between atoms: N_6  and  C_13
REMARK    4  A    between atoms: N_7  and  C_12
REMARK    5  A    between atoms: C_10  and  C_12
REMARK    6  A    between atoms: C_13  and  C_14
REMARK    7  A    between atoms: C_15  and  C_18
REMARK                            x       y       z     vdW  Elec       q    Type
REMARK                         _______ _______ _______ _____ _____    ______ ____
ROOT
ATOM      3  O   UNL     1      -0.480   4.108  24.094  0.00  0.00    -0.371 OA
ATOM      8  C   UNL     1      -1.808   3.590  25.993  0.00  0.00    +0.111 C 
ATOM      9  C   UNL     1      -1.259   2.302  25.407  0.00  0.00    +0.164 C 
ATOM     10  C   UNL     1      -0.076   2.827  24.605  0.00  0.00    +0.165 C 
ATOM     11  C   UNL     1      -1.636   4.549  24.826  0.00  0.00    +0.181 C 
ENDROOT
BRANCH   9   4
ATOM      4  O   UNL     1      -0.855   1.380  26.400  0.00  0.00    -0.388 OA
ATOM     26  H   UNL     1      -0.531   0.577  25.958  0.00  0.00    +0.210 HD
ENDBRANCH   9   4
BRANCH   8   6
ATOM      6  N   UNL     1      -3.187   3.485  26.442  0.00  0.00    -0.305 NA
ATOM     25  H   UNL     1      -3.455   4.357  26.900  0.00  0.00    +0.123 HD
BRANCH   6  13
ATOM     13  C   UNL     1      -4.087   3.245  25.320  0.00  0.00    +0.119 C 
BRANCH  13  14
ATOM      2  F   UNL     1      -3.125   2.530  22.754  0.00  0.00    -0.205 F 
ATOM     14  C   UNL     1      -4.013   1.821  24.838  0.00  0.00    +0.002 A 
ATOM     16  C   UNL     1      -3.529   1.539  23.561  0.00  0.00    +0.128 A 
ATOM     17  C   UNL     1      -4.429   0.782  25.670  0.00  0.00    +0.008 A 
ATOM     19  C   UNL     1      -3.461   0.219  23.115  0.00  0.00    +0.038 A 
ATOM     20  C   UNL     1      -4.362  -0.539  25.226  0.00  0.00    +0.000 A 
ATOM     21  C   UNL     1      -3.877  -0.821  23.949  0.00  0.00    +0.003 A 
ENDBRANCH  13  14
ENDBRANCH   6  13
ENDBRANCH   8   6
BRANCH  10  12
ATOM     12  C   UNL     1       0.318   1.917  23.455  0.00  0.00    +0.138 C 
BRANCH  12   7
ATOM      5  O   UNL     1       1.470  -0.318  22.067  0.00  0.00    -0.270 OA
ATOM      7  N   UNL     1       1.632   1.375  23.647  0.00  0.00    -0.308 N 
ATOM     15  C   UNL     1       2.110   0.284  22.926  0.00  0.00    +0.251 C 
ATOM     27  H   UNL     1       2.214   1.815  24.352  0.00  0.00    +0.149 HD
BRANCH  15  18
ATOM      1  S   UNL     1       4.803   0.885  22.994  0.00  0.00    -0.092 S 
ATOM     18  C   UNL     1       3.483  -0.173  23.261  0.00  0.00    +0.074 A 
ATOM     22  C   UNL     1       3.889  -1.384  23.779  0.00  0.00    +0.021 A 
ATOM     23  C   UNL     1       5.300  -1.443  23.961  0.00  0.00    +0.008 A 
ATOM     24  C   UNL     1       5.921  -0.274  23.574  0.00  0.00    +0.046 A 
ENDBRANCH  15  18
ENDBRANCH  12   7
ENDBRANCH  10  12
TORSDOF 7
ENDMDL
MODEL 9
REMARK VINA RESULT:      -2.7      2.230      4.625
REMARK  Name = 75536610
REMARK  7 active torsions:
REMARK  status: ('A' for Active; 'I' for Inactive)
REMARK    1  A    between atoms: O_4  and  C_9
REMARK    2  A    between atoms: N_6  and  C_8
REMARK    3  A    between atoms: N_6  and  C_13
REMARK    4  A    between atoms: N_7  and  C_12
REMARK    5  A    between atoms: C_10  and  C_12
REMARK    6  A    between atoms: C_13  and  C_14
REMARK    7  A    between atoms: C_15  and  C_18
REMARK                            x       y       z     vdW  Elec       q    Type
REMARK                         _______ _______ _______ _____ _____    ______ ____
ROOT
ATOM      3  O   UNL     1      -4.922   0.334  25.253  0.00  0.00    -0.371 OA
ATOM      8  C   UNL     1      -4.826   2.519  24.327  0.00  0.00    +0.111 C 
ATOM      9  C   UNL     1      -3.520   1.801  24.038  0.00  0.00    +0.164 C 
ATOM     10  C   UNL     1      -3.943   0.348  24.201  0.00  0.00    +0.165 C 
ATOM     11  C   UNL     1      -5.387   1.679  25.463  0.00  0.00    +0.181 C 
ENDROOT
BRANCH   9   4
ATOM      4  O   UNL     1      -3.027   2.065  22.739  0.00  0.00    -0.388 OA
ATOM     26  H   UNL     1      -2.136   1.685  22.667  0.00  0.00    +0.210 HD
ENDBRANCH   9   4
BRANCH   8   6
ATOM      6  N   UNL     1      -4.655   3.918  24.687  0.00  0.00    -0.305 NA
ATOM     25  H   UNL     1      -5.574   4.351  24.782  0.00  0.00    +0.123 HD
BRANCH   6  13
ATOM     13  C   UNL     1      -3.936   4.051  25.949  0.00  0.00    +0.119 C 
BRANCH  13  14
ATOM      2  F   UNL     1      -2.335   5.910  24.534  0.00  0.00    -0.205 F 
ATOM     14  C   UNL     1      -2.451   3.884  25.767  0.00  0.00    +0.002 A 
ATOM     16  C   UNL     1      -1.722   4.839  25.058  0.00  0.00    +0.128 A 
ATOM     17  C   UNL     1      -1.805   2.774  26.308  0.00  0.00    +0.008 A 
ATOM     19  C   UNL     1      -0.346   4.683  24.890  0.00  0.00    +0.038 A 
ATOM     20  C   UNL     1      -0.428   2.616  26.140  0.00  0.00    +0.000 A 
ATOM     21  C   UNL     1       0.301   3.571  25.432  0.00  0.00    +0.003 A 
ENDBRANCH  13  14
ENDBRANCH   6  13
ENDBRANCH   8   6
BRANCH  10  12
ATOM     12  C   UNL     1      -2.792  -0.575  24.560  0.00  0.00    +0.138 C 
BRANCH  12   7
ATOM      5  O   UNL     1      -0.163  -1.624  25.049  0.00  0.00    -0.270 OA
ATOM      7  N   UNL     1      -1.572  -0.156  23.932  0.00  0.00    -0.308 N 
ATOM     15  C   UNL     1      -0.337  -0.723  24.231  0.00  0.00    +0.251 C 
ATOM     27  H   UNL     1      -1.638   0.596  23.254  0.00  0.00    +0.149 HD
BRANCH  15  18
ATOM      1  S   UNL     1       1.333  -0.878  22.040  0.00  0.00    -0.092 S 
ATOM     18  C   UNL     1       0.835  -0.160  23.513  0.00  0.00    +0.074 A 
ATOM     22  C   UNL     1       1.633   0.907  23.863  0.00  0.00    +0.021 A 
ATOM     23  C   UNL     1       2.665   1.140  22.910  0.00  0.00    +0.008 A 
ATOM     24  C   UNL     1       2.618   0.241  21.866  0.00  0.00    +0.046 A 
ENDBRANCH  15  18
ENDBRANCH  12   7
ENDBRANCH  10  12
TORSDOF 7
ENDMDL
MODEL 10
REMARK VINA RESULT:      -2.6      3.017      4.329
REMARK  Name = 75536610
REMARK  7 active torsions:
REMARK  status: ('A' for Active; 'I' for Inactive)
REMARK    1  A    between atoms: O_4  and  C_9
REMARK    2  A    between atoms: N_6  and  C_8
REMARK    3  A    between atoms: N_6  and  C_13
REMARK    4  A    between atoms: N_7  and  C_12
REMARK    5  A    between atoms: C_10  and  C_12
REMARK    6  A    between atoms: C_13  and  C_14
REMARK    7  A    between atoms: C_15  and  C_18
REMARK                            x       y       z     vdW  Elec       q    Type
REMARK                         _______ _______ _______ _____ _____    ______ ____
ROOT
ATOM      3  O   UNL     1      -2.081   1.690  22.486  0.00  0.00    -0.371 OA
ATOM      8  C   UNL     1      -1.904   3.620  23.859  0.00  0.00    +0.111 C 
ATOM      9  C   UNL     1      -0.977   2.545  24.396  0.00  0.00    +0.164 C 
ATOM     10  C   UNL     1      -0.816   1.658  23.169  0.00  0.00    +0.165 C 
ATOM     11  C   UNL     1      -2.843   2.802  22.989  0.00  0.00    +0.181 C 
ENDROOT
BRANCH   9   4
ATOM      4  O   UNL     1       0.262   3.063  24.838  0.00  0.00    -0.388 OA
ATOM     26  H   UNL     1       0.785   2.332  25.208  0.00  0.00    +0.210 HD
ENDBRANCH   9   4
BRANCH   8   6
ATOM      6  N   UNL     1      -2.598   4.364  24.898  0.00  0.00    -0.305 NA
ATOM     25  H   UNL     1      -3.436   4.788  24.500  0.00  0.00    +0.123 HD
BRANCH   6  13
ATOM     13  C   UNL     1      -2.987   3.490  25.998  0.00  0.00    +0.119 C 
BRANCH  13  14
ATOM      2  F   UNL     1      -5.663   4.337  25.623  0.00  0.00    -0.205 F 
ATOM     14  C   UNL     1      -4.097   2.553  25.603  0.00  0.00    +0.002 A 
ATOM     16  C   UNL     1      -5.394   3.038  25.436  0.00  0.00    +0.128 A 
ATOM     17  C   UNL     1      -3.828   1.199  25.405  0.00  0.00    +0.008 A 
ATOM     19  C   UNL     1      -6.422   2.169  25.070  0.00  0.00    +0.038 A 
ATOM     20  C   UNL     1      -4.855   0.329  25.039  0.00  0.00    +0.000 A 
ATOM     21  C   UNL     1      -6.153   0.814  24.871  0.00  0.00    +0.003 A 
ENDBRANCH  13  14
ENDBRANCH   6  13
ENDBRANCH   8   6
BRANCH  10  12
ATOM     12  C   UNL     1      -0.453   0.223  23.509  0.00  0.00    +0.138 C 
BRANCH  12   7
ATOM      5  O   UNL     1       1.555  -0.267  21.516  0.00  0.00    -0.270 OA
ATOM      7  N   UNL     1       0.957   0.081  23.731  0.00  0.00    -0.308 N 
ATOM     15  C   UNL     1       1.861  -0.157  22.701  0.00  0.00    +0.251 C 
ATOM     27  H   UNL     1       1.281   0.147  24.690  0.00  0.00    +0.149 HD
BRANCH  15  18
ATOM      1  S   UNL     1       4.391   0.948  22.724  0.00  0.00    -0.092 S 
ATOM     18  C   UNL     1       3.285  -0.305  23.099  0.00  0.00    +0.074 A 
ATOM     22  C   UNL     1       3.894  -1.351  23.757  0.00  0.00    +0.021 A 
ATOM     23  C   UNL     1       5.285  -1.121  23.958  0.00  0.00    +0.008 A 
ATOM     24  C   UNL     1       5.688   0.094  23.444  0.00  0.00    +0.046 A 
ENDBRANCH  15  18
ENDBRANCH  12   7
ENDBRANCH  10  12
TORSDOF 7
ENDMDL
