MODEL 1
REMARK VINA RESULT:      -3.8      0.000      0.000
REMARK  Name = 7127914
REMARK  11 active torsions:
REMARK  status: ('A' for Active; 'I' for Inactive)
REMARK    1  A    between atoms: S_1  and  C_27
REMARK    2  A    between atoms: S_1  and  C_29
REMARK    3  A    between atoms: O_2  and  C_14
REMARK    4  A    between atoms: O_3  and  C_15
REMARK    5  A    between atoms: N_9  and  C_13
REMARK    6  A    between atoms: N_11  and  C_25
REMARK    7  A    between atoms: C_16  and  C_23
REMARK    8  A    between atoms: C_21  and  C_24
REMARK    9  A    between atoms: C_25  and  C_26
REMARK   10  A    between atoms: C_25  and  C_28
REMARK   11  A    between atoms: C_26  and  C_27
REMARK                            x       y       z     vdW  Elec       q    Type
REMARK                         _______ _______ _______ _____ _____    ______ ____
ROOT
ATOM     13  C   UNL     1       0.039  -1.048  23.620  0.00  0.00    +0.127 C 
ATOM     14  C   UNL     1      -0.296  -2.122  24.673  0.00  0.00    +0.167 C 
ATOM     15  C   UNL     1      -1.692  -1.908  25.271  0.00  0.00    +0.149 C 
ATOM     17  C   UNL     1      -1.855  -0.502  25.873  0.00  0.00    +0.074 C 
ATOM     20  C   UNL     1      -0.342   0.344  24.047  0.00  0.00    +0.006 C 
ATOM     21  C   UNL     1      -1.186   0.574  25.064  0.00  0.00    +0.015 C 
ENDROOT
BRANCH  13   9
ATOM      4  O   UNL     1       1.758   1.240  23.141  0.00  0.00    -0.274 OA
ATOM      9  N   UNL     1       1.439  -1.062  23.272  0.00  0.00    -0.305 N 
ATOM     23  C   UNL     1       2.180   0.089  23.062  0.00  0.00    +0.231 C 
ATOM     30  H   UNL     1       1.891  -1.964  23.152  0.00  0.00    +0.149 HD
BRANCH  23  16
ATOM     10  N   UNL     1       4.040  -1.245  23.675  0.00  0.00    -0.306 NA
ATOM     16  C   UNL     1       3.608  -0.206  22.741  0.00  0.00    +0.140 C 
ATOM     18  C   UNL     1       4.515   0.994  22.984  0.00  0.00    +0.029 C 
ATOM     19  C   UNL     1       5.429   0.562  24.119  0.00  0.00    +0.017 C 
ATOM     22  C   UNL     1       5.431  -0.949  24.009  0.00  0.00    +0.081 C 
ATOM     31  H   UNL     1       3.951  -2.172  23.262  0.00  0.00    +0.123 HD
ENDBRANCH  23  16
ENDBRANCH  13   9
BRANCH  21  24
ATOM      5  O   UNL     1      -1.026   2.499  26.401  0.00  0.00    -0.271 OA
ATOM     11  N   UNL     1      -2.315   2.576  24.460  0.00  0.00    -0.300 N 
ATOM     24  C   UNL     1      -1.487   1.971  25.391  0.00  0.00    +0.241 C 
ATOM     34  H   UNL     1      -2.663   2.057  23.662  0.00  0.00    +0.150 HD
BRANCH  11  25
ATOM     25  C   UNL     1      -2.752   3.950  24.569  0.00  0.00    +0.160 C 
BRANCH  25  28
ATOM      8  O   UNL     1      -1.511   5.874  25.378  0.00  0.00    -0.274 OA
ATOM     12  N   UNL     1      -0.378   4.246  24.220  0.00  0.00    -0.328 N 
ATOM     28  C   UNL     1      -1.513   4.810  24.763  0.00  0.00    +0.231 C 
ATOM     35  H   UNL     1      -0.383   3.347  23.752  0.00  0.00    +0.145 HD
ATOM     36  H   UNL     1       0.519   4.715  24.291  0.00  0.00    +0.145 HD
ENDBRANCH  25  28
BRANCH  25  26
ATOM     26  C   UNL     1      -3.733   4.151  25.728  0.00  0.00    +0.054 C 
BRANCH  26  27
ATOM     27  C   UNL     1      -5.176   3.887  25.318  0.00  0.00    +0.168 C 
BRANCH  27   1
ATOM      1  S   UNL     1      -5.685   2.260  25.774  0.00  0.00    -0.034 S 
ATOM      6  O   UNL     1      -4.571   1.355  25.547  0.00  0.00    -0.175 OA
ATOM      7  O   UNL     1      -6.325   2.331  27.076  0.00  0.00    -0.175 OA
ATOM     29  C   UNL     1      -6.944   1.873  24.579  0.00  0.00    +0.194 C 
ENDBRANCH  27   1
ENDBRANCH  26  27
ENDBRANCH  25  26
ENDBRANCH  11  25
ENDBRANCH  21  24
BRANCH  14   2
ATOM      2  O   UNL     1       0.667  -2.076  25.728  0.00  0.00    -0.387 OA
ATOM     32  H   UNL     1       1.069  -2.955  25.826  0.00  0.00    +0.210 HD
ENDBRANCH  14   2
BRANCH  15   3
ATOM      3  O   UNL     1      -2.691  -2.133  24.277  0.00  0.00    -0.389 OA
ATOM     33  H   UNL     1      -3.532  -2.291  24.740  0.00  0.00    +0.210 HD
ENDBRANCH  15   3
TORSDOF 10
ENDMDL
MODEL 2
REMARK VINA RESULT:      -2.8      2.155      3.419
REMARK  Name = 7127914
REMARK  11 active torsions:
REMARK  status: ('A' for Active; 'I' for Inactive)
REMARK    1  A    between atoms: S_1  and  C_27
REMARK    2  A    between atoms: S_1  and  C_29
REMARK    3  A    between atoms: O_2  and  C_14
REMARK    4  A    between atoms: O_3  and  C_15
REMARK    5  A    between atoms: N_9  and  C_13
REMARK    6  A    between atoms: N_11  and  C_25
REMARK    7  A    between atoms: C_16  and  C_23
REMARK    8  A    between atoms: C_21  and  C_24
REMARK    9  A    between atoms: C_25  and  C_26
REMARK   10  A    between atoms: C_25  and  C_28
REMARK   11  A    between atoms: C_26  and  C_27
REMARK                            x       y       z     vdW  Elec       q    Type
REMARK                         _______ _______ _______ _____ _____    ______ ____
ROOT
ATOM     13  C   UNL     1      -1.341  -1.224  23.842  0.00  0.00    +0.127 C 
ATOM     14  C   UNL     1      -1.662  -2.578  24.504  0.00  0.00    +0.167 C 
ATOM     15  C   UNL     1      -3.172  -2.837  24.550  0.00  0.00    +0.149 C 
ATOM     17  C   UNL     1      -3.933  -1.704  25.259  0.00  0.00    +0.074 C 
ATOM     20  C   UNL     1      -2.237  -0.107  24.307  0.00  0.00    +0.006 C 
ATOM     21  C   UNL     1      -3.392  -0.337  24.948  0.00  0.00    +0.015 C 
ENDROOT
BRANCH  13   9
ATOM      4  O   UNL     1       0.538  -0.225  21.868  0.00  0.00    -0.274 OA
ATOM      9  N   UNL     1       0.033  -0.839  24.056  0.00  0.00    -0.305 N 
ATOM     23  C   UNL     1       0.857  -0.370  23.046  0.00  0.00    +0.231 C 
ATOM     30  H   UNL     1       0.416  -0.943  24.992  0.00  0.00    +0.149 HD
BRANCH  23  16
ATOM     10  N   UNL     1       2.446   1.381  23.188  0.00  0.00    -0.306 NA
ATOM     16  C   UNL     1       2.220  -0.020  23.542  0.00  0.00    +0.140 C 
ATOM     18  C   UNL     1       3.313  -0.820  22.844  0.00  0.00    +0.029 C 
ATOM     19  C   UNL     1       4.113   0.215  22.069  0.00  0.00    +0.017 C 
ATOM     22  C   UNL     1       3.859   1.496  22.836  0.00  0.00    +0.081 C 
ATOM     31  H   UNL     1       2.210   1.999  23.963  0.00  0.00    +0.123 HD
ENDBRANCH  23  16
ENDBRANCH  13   9
BRANCH  21  24
ATOM      5  O   UNL     1      -5.413   0.776  25.391  0.00  0.00    -0.271 OA
ATOM     11  N   UNL     1      -3.407   1.929  25.663  0.00  0.00    -0.300 N 
ATOM     24  C   UNL     1      -4.185   0.828  25.352  0.00  0.00    +0.241 C 
ATOM     34  H   UNL     1      -2.397   1.887  25.587  0.00  0.00    +0.150 HD
BRANCH  11  25
ATOM     25  C   UNL     1      -3.963   3.195  26.085  0.00  0.00    +0.160 C 
BRANCH  25  28
ATOM      8  O   UNL     1      -4.698   3.760  23.841  0.00  0.00    -0.274 OA
ATOM     12  N   UNL     1      -6.239   3.803  25.543  0.00  0.00    -0.328 N 
ATOM     28  C   UNL     1      -4.971   3.626  25.031  0.00  0.00    +0.231 C 
ATOM     35  H   UNL     1      -6.463   3.648  26.520  0.00  0.00    +0.145 HD
ATOM     36  H   UNL     1      -7.008   4.080  24.941  0.00  0.00    +0.145 HD
ENDBRANCH  25  28
BRANCH  25  26
ATOM     26  C   UNL     1      -2.883   4.266  26.265  0.00  0.00    +0.054 C 
BRANCH  26  27
ATOM     27  C   UNL     1      -1.487   3.666  26.384  0.00  0.00    +0.168 C 
BRANCH  27   1
ATOM      1  S   UNL     1      -0.697   3.565  24.809  0.00  0.00    -0.034 S 
ATOM      6  O   UNL     1       0.551   2.840  24.972  0.00  0.00    -0.175 OA
ATOM      7  O   UNL     1      -1.681   3.131  23.833  0.00  0.00    -0.175 OA
ATOM     29  C   UNL     1      -0.291   5.258  24.444  0.00  0.00    +0.194 C 
ENDBRANCH  27   1
ENDBRANCH  26  27
ENDBRANCH  25  26
ENDBRANCH  11  25
ENDBRANCH  21  24
BRANCH  14   2
ATOM      2  O   UNL     1      -1.152  -2.591  25.839  0.00  0.00    -0.387 OA
ATOM     32  H   UNL     1      -1.731  -3.143  26.391  0.00  0.00    +0.210 HD
ENDBRANCH  14   2
BRANCH  15   3
ATOM      3  O   UNL     1      -3.681  -3.016  23.229  0.00  0.00    -0.389 OA
ATOM     33  H   UNL     1      -4.495  -2.488  23.157  0.00  0.00    +0.210 HD
ENDBRANCH  15   3
TORSDOF 10
ENDMDL
MODEL 3
REMARK VINA RESULT:      -1.6      2.303      4.598
REMARK  Name = 7127914
REMARK  11 active torsions:
REMARK  status: ('A' for Active; 'I' for Inactive)
REMARK    1  A    between atoms: S_1  and  C_27
REMARK    2  A    between atoms: S_1  and  C_29
REMARK    3  A    between atoms: O_2  and  C_14
REMARK    4  A    between atoms: O_3  and  C_15
REMARK    5  A    between atoms: N_9  and  C_13
REMARK    6  A    between atoms: N_11  and  C_25
REMARK    7  A    between atoms: C_16  and  C_23
REMARK    8  A    between atoms: C_21  and  C_24
REMARK    9  A    between atoms: C_25  and  C_26
REMARK   10  A    between atoms: C_25  and  C_28
REMARK   11  A    between atoms: C_26  and  C_27
REMARK                            x       y       z     vdW  Elec       q    Type
REMARK                         _______ _______ _______ _____ _____    ______ ____
ROOT
ATOM     13  C   UNL     1       0.463   2.323  24.576  0.00  0.00    +0.127 C 
ATOM     14  C   UNL     1       0.470   3.858  24.441  0.00  0.00    +0.167 C 
ATOM     15  C   UNL     1      -0.851   4.471  24.919  0.00  0.00    +0.149 C 
ATOM     17  C   UNL     1      -2.065   3.876  24.183  0.00  0.00    +0.074 C 
ATOM     20  C   UNL     1      -0.820   1.691  24.109  0.00  0.00    +0.006 C 
ATOM     21  C   UNL     1      -1.944   2.400  23.929  0.00  0.00    +0.015 C 
ENDROOT
BRANCH  13   9
ATOM      4  O   UNL     1       0.580  -0.345  23.439  0.00  0.00    -0.274 OA
ATOM      9  N   UNL     1       1.565   1.721  23.866  0.00  0.00    -0.305 N 
ATOM     23  C   UNL     1       1.527   0.433  23.357  0.00  0.00    +0.231 C 
ATOM     30  H   UNL     1       2.417   2.264  23.760  0.00  0.00    +0.149 HD
BRANCH  23  16
ATOM     10  N   UNL     1       3.387  -1.035  23.397  0.00  0.00    -0.306 NA
ATOM     16  C   UNL     1       2.787   0.067  22.645  0.00  0.00    +0.140 C 
ATOM     18  C   UNL     1       3.808   1.200  22.657  0.00  0.00    +0.029 C 
ATOM     19  C   UNL     1       4.966   0.665  23.484  0.00  0.00    +0.017 C 
ATOM     22  C   UNL     1       4.833  -0.836  23.339  0.00  0.00    +0.081 C 
ATOM     31  H   UNL     1       3.124  -1.936  23.001  0.00  0.00    +0.123 HD
ENDBRANCH  23  16
ENDBRANCH  13   9
BRANCH  21  24
ATOM      5  O   UNL     1      -3.281   1.380  22.290  0.00  0.00    -0.271 OA
ATOM     11  N   UNL     1      -4.021   1.397  24.500  0.00  0.00    -0.300 N 
ATOM     24  C   UNL     1      -3.135   1.678  23.474  0.00  0.00    +0.241 C 
ATOM     34  H   UNL     1      -3.826   1.697  25.448  0.00  0.00    +0.150 HD
BRANCH  11  25
ATOM     25  C   UNL     1      -5.268   0.695  24.296  0.00  0.00    +0.160 C 
BRANCH  25  28
ATOM      8  O   UNL     1      -6.184   1.462  26.411  0.00  0.00    -0.274 OA
ATOM     12  N   UNL     1      -7.393   1.832  24.493  0.00  0.00    -0.328 N 
ATOM     28  C   UNL     1      -6.310   1.344  25.194  0.00  0.00    +0.231 C 
ATOM     35  H   UNL     1      -7.467   1.768  23.484  0.00  0.00    +0.145 HD
ATOM     36  H   UNL     1      -8.155   2.299  24.975  0.00  0.00    +0.145 HD
ENDBRANCH  25  28
BRANCH  25  26
ATOM     26  C   UNL     1      -5.145  -0.799  24.609  0.00  0.00    +0.054 C 
BRANCH  26  27
ATOM     27  C   UNL     1      -4.075  -1.481  23.765  0.00  0.00    +0.168 C 
BRANCH  27   1
ATOM      1  S   UNL     1      -2.868  -2.274  24.780  0.00  0.00    -0.034 S 
ATOM      6  O   UNL     1      -3.538  -3.289  25.574  0.00  0.00    -0.175 OA
ATOM      7  O   UNL     1      -1.729  -2.619  23.947  0.00  0.00    -0.175 OA
ATOM     29  C   UNL     1      -2.349  -0.982  25.886  0.00  0.00    +0.194 C 
ENDBRANCH  27   1
ENDBRANCH  26  27
ENDBRANCH  25  26
ENDBRANCH  11  25
ENDBRANCH  21  24
BRANCH  14   2
ATOM      2  O   UNL     1       0.675   4.218  23.073  0.00  0.00    -0.387 OA
ATOM     32  H   UNL     1       0.028   4.899  22.827  0.00  0.00    +0.210 HD
ENDBRANCH  14   2
BRANCH  15   3
ATOM      3  O   UNL     1      -0.996   4.289  26.327  0.00  0.00    -0.389 OA
ATOM     33  H   UNL     1      -0.701   5.109  26.759  0.00  0.00    +0.210 HD
ENDBRANCH  15   3
TORSDOF 10
ENDMDL
MODEL 4
REMARK VINA RESULT:      -1.4      2.435      7.293
REMARK  Name = 7127914
REMARK  11 active torsions:
REMARK  status: ('A' for Active; 'I' for Inactive)
REMARK    1  A    between atoms: S_1  and  C_27
REMARK    2  A    between atoms: S_1  and  C_29
REMARK    3  A    between atoms: O_2  and  C_14
REMARK    4  A    between atoms: O_3  and  C_15
REMARK    5  A    between atoms: N_9  and  C_13
REMARK    6  A    between atoms: N_11  and  C_25
REMARK    7  A    between atoms: C_16  and  C_23
REMARK    8  A    between atoms: C_21  and  C_24
REMARK    9  A    between atoms: C_25  and  C_26
REMARK   10  A    between atoms: C_25  and  C_28
REMARK   11  A    between atoms: C_26  and  C_27
REMARK                            x       y       z     vdW  Elec       q    Type
REMARK                         _______ _______ _______ _____ _____    ______ ____
ROOT
ATOM     13  C   UNL     1      -2.852   3.817  24.369  0.00  0.00    +0.127 C 
ATOM     14  C   UNL     1      -2.410   4.876  25.398  0.00  0.00    +0.167 C 
ATOM     15  C   UNL     1      -0.961   5.317  25.165  0.00  0.00    +0.149 C 
ATOM     17  C   UNL     1       0.015   4.128  25.172  0.00  0.00    +0.074 C 
ATOM     20  C   UNL     1      -1.817   2.750  24.132  0.00  0.00    +0.006 C 
ATOM     21  C   UNL     1      -0.537   2.900  24.504  0.00  0.00    +0.015 C 
ENDROOT
BRANCH  13   9
ATOM      4  O   UNL     1      -5.253   5.110  25.362  0.00  0.00    -0.274 OA
ATOM      9  N   UNL     1      -4.091   3.186  24.753  0.00  0.00    -0.305 N 
ATOM     23  C   UNL     1      -5.190   3.891  25.218  0.00  0.00    +0.231 C 
ATOM     30  H   UNL     1      -4.146   2.173  24.701  0.00  0.00    +0.149 HD
BRANCH  23  16
ATOM     10  N   UNL     1      -6.204   2.583  26.913  0.00  0.00    -0.306 NA
ATOM     16  C   UNL     1      -6.349   3.001  25.519  0.00  0.00    +0.140 C 
ATOM     18  C   UNL     1      -6.330   1.725  24.685  0.00  0.00    +0.029 C 
ATOM     19  C   UNL     1      -6.130   0.607  25.696  0.00  0.00    +0.017 C 
ATOM     22  C   UNL     1      -6.669   1.200  26.981  0.00  0.00    +0.081 C 
ATOM     31  H   UNL     1      -6.744   3.182  27.535  0.00  0.00    +0.123 HD
ENDBRANCH  23  16
ENDBRANCH  13   9
BRANCH  21  24
ATOM      5  O   UNL     1       1.575   2.005  23.998  0.00  0.00    -0.271 OA
ATOM     11  N   UNL     1      -0.236   0.558  24.234  0.00  0.00    -0.300 N 
ATOM     24  C   UNL     1       0.384   1.795  24.220  0.00  0.00    +0.241 C 
ATOM     34  H   UNL     1      -1.232   0.480  24.411  0.00  0.00    +0.150 HD
BRANCH  11  25
ATOM     25  C   UNL     1       0.465  -0.680  23.979  0.00  0.00    +0.160 C 
BRANCH  25  28
ATOM      8  O   UNL     1       0.785  -0.417  21.586  0.00  0.00    -0.274 OA
ATOM     12  N   UNL     1       2.630  -0.360  22.952  0.00  0.00    -0.328 N 
ATOM     28  C   UNL     1       1.279  -0.491  22.708  0.00  0.00    +0.231 C 
ATOM     35  H   UNL     1       3.024  -0.378  23.886  0.00  0.00    +0.145 HD
ATOM     36  H   UNL     1       3.284  -0.217  22.188  0.00  0.00    +0.145 HD
ENDBRANCH  25  28
BRANCH  25  26
ATOM     26  C   UNL     1      -0.494  -1.864  23.831  0.00  0.00    +0.054 C 
BRANCH  26  27
ATOM     27  C   UNL     1      -1.284  -2.133  25.106  0.00  0.00    +0.168 C 
BRANCH  27   1
ATOM      1  S   UNL     1      -2.938  -1.531  24.973  0.00  0.00    -0.034 S 
ATOM      6  O   UNL     1      -3.476  -1.381  26.314  0.00  0.00    -0.175 OA
ATOM      7  O   UNL     1      -2.942  -0.413  24.046  0.00  0.00    -0.175 OA
ATOM     29  C   UNL     1      -3.803  -2.876  24.195  0.00  0.00    +0.194 C 
ENDBRANCH  27   1
ENDBRANCH  26  27
ENDBRANCH  25  26
ENDBRANCH  11  25
ENDBRANCH  21  24
BRANCH  14   2
ATOM      2  O   UNL     1      -2.519   4.337  26.718  0.00  0.00    -0.387 OA
ATOM     32  H   UNL     1      -2.608   5.069  27.350  0.00  0.00    +0.210 HD
ENDBRANCH  14   2
BRANCH  15   3
ATOM      3  O   UNL     1      -0.856   6.028  23.932  0.00  0.00    -0.389 OA
ATOM     33  H   UNL     1       0.082   6.249  23.802  0.00  0.00    +0.210 HD
ENDBRANCH  15   3
TORSDOF 10
ENDMDL
MODEL 5
REMARK VINA RESULT:      -0.6      3.096      7.450
REMARK  Name = 7127914
REMARK  11 active torsions:
REMARK  status: ('A' for Active; 'I' for Inactive)
REMARK    1  A    between atoms: S_1  and  C_27
REMARK    2  A    between atoms: S_1  and  C_29
REMARK    3  A    between atoms: O_2  and  C_14
REMARK    4  A    between atoms: O_3  and  C_15
REMARK    5  A    between atoms: N_9  and  C_13
REMARK    6  A    between atoms: N_11  and  C_25
REMARK    7  A    between atoms: C_16  and  C_23
REMARK    8  A    between atoms: C_21  and  C_24
REMARK    9  A    between atoms: C_25  and  C_26
REMARK   10  A    between atoms: C_25  and  C_28
REMARK   11  A    between atoms: C_26  and  C_27
REMARK                            x       y       z     vdW  Elec       q    Type
REMARK                         _______ _______ _______ _____ _____    ______ ____
ROOT
ATOM     13  C   UNL     1      -3.811  -0.948  25.291  0.00  0.00    +0.127 C 
ATOM     14  C   UNL     1      -4.318  -1.989  24.274  0.00  0.00    +0.167 C 
ATOM     15  C   UNL     1      -3.442  -3.247  24.272  0.00  0.00    +0.149 C 
ATOM     17  C   UNL     1      -1.962  -2.921  24.008  0.00  0.00    +0.074 C 
ATOM     20  C   UNL     1      -2.317  -0.770  25.265  0.00  0.00    +0.006 C 
ATOM     21  C   UNL     1      -1.500  -1.659  24.679  0.00  0.00    +0.015 C 
ENDROOT
BRANCH  13   9
ATOM      4  O   UNL     1      -3.035   1.122  23.410  0.00  0.00    -0.274 OA
ATOM      9  N   UNL     1      -4.437   0.337  25.095  0.00  0.00    -0.305 N 
ATOM     23  C   UNL     1      -3.992   1.264  24.167  0.00  0.00    +0.231 C 
ATOM     30  H   UNL     1      -5.226   0.577  25.688  0.00  0.00    +0.149 HD
BRANCH  23  16
ATOM     10  N   UNL     1      -3.932   3.620  24.412  0.00  0.00    -0.306 NA
ATOM     16  C   UNL     1      -4.833   2.498  24.151  0.00  0.00    +0.140 C 
ATOM     18  C   UNL     1      -5.867   2.508  25.271  0.00  0.00    +0.029 C 
ATOM     19  C   UNL     1      -5.454   3.666  26.165  0.00  0.00    +0.017 C 
ATOM     22  C   UNL     1      -4.682   4.571  25.228  0.00  0.00    +0.081 C 
ATOM     31  H   UNL     1      -3.618   4.049  23.543  0.00  0.00    +0.123 HD
ENDBRANCH  23  16
ENDBRANCH  13   9
BRANCH  21  24
ATOM      5  O   UNL     1       0.694  -2.053  25.420  0.00  0.00    -0.271 OA
ATOM     11  N   UNL     1       0.308  -0.326  23.902  0.00  0.00    -0.300 N 
ATOM     24  C   UNL     1      -0.061  -1.383  24.717  0.00  0.00    +0.241 C 
ATOM     34  H   UNL     1      -0.388   0.182  23.368  0.00  0.00    +0.150 HD
BRANCH  11  25
ATOM     25  C   UNL     1       1.672   0.134  23.775  0.00  0.00    +0.160 C 
BRANCH  25  28
ATOM      8  O   UNL     1       2.382   2.392  23.231  0.00  0.00    -0.274 OA
ATOM     12  N   UNL     1       0.702   2.112  24.772  0.00  0.00    -0.328 N 
ATOM     28  C   UNL     1       1.656   1.651  23.889  0.00  0.00    +0.231 C 
ATOM     35  H   UNL     1       0.078   1.493  25.277  0.00  0.00    +0.145 HD
ATOM     36  H   UNL     1       0.581   3.107  24.931  0.00  0.00    +0.145 HD
ENDBRANCH  25  28
BRANCH  25  26
ATOM     26  C   UNL     1       2.303  -0.298  22.449  0.00  0.00    +0.054 C 
BRANCH  26  27
ATOM     27  C   UNL     1       3.713   0.251  22.272  0.00  0.00    +0.168 C 
BRANCH  27   1
ATOM      1  S   UNL     1       4.798  -0.354  23.526  0.00  0.00    -0.034 S 
ATOM      6  O   UNL     1       4.962   0.686  24.526  0.00  0.00    -0.175 OA
ATOM      7  O   UNL     1       4.355  -1.684  23.908  0.00  0.00    -0.175 OA
ATOM     29  C   UNL     1       6.350  -0.531  22.676  0.00  0.00    +0.194 C 
ENDBRANCH  27   1
ENDBRANCH  26  27
ENDBRANCH  25  26
ENDBRANCH  11  25
ENDBRANCH  21  24
BRANCH  14   2
ATOM      2  O   UNL     1      -4.309  -1.421  22.962  0.00  0.00    -0.387 OA
ATOM     32  H   UNL     1      -4.213  -0.457  23.037  0.00  0.00    +0.210 HD
ENDBRANCH  14   2
BRANCH  15   3
ATOM      3  O   UNL     1      -3.576  -3.942  25.511  0.00  0.00    -0.389 OA
ATOM     33  H   UNL     1      -3.143  -3.403  26.195  0.00  0.00    +0.210 HD
ENDBRANCH  15   3
TORSDOF 10
ENDMDL
MODEL 6
REMARK VINA RESULT:      -0.6      2.410      6.492
REMARK  Name = 7127914
REMARK  11 active torsions:
REMARK  status: ('A' for Active; 'I' for Inactive)
REMARK    1  A    between atoms: S_1  and  C_27
REMARK    2  A    between atoms: S_1  and  C_29
REMARK    3  A    between atoms: O_2  and  C_14
REMARK    4  A    between atoms: O_3  and  C_15
REMARK    5  A    between atoms: N_9  and  C_13
REMARK    6  A    between atoms: N_11  and  C_25
REMARK    7  A    between atoms: C_16  and  C_23
REMARK    8  A    between atoms: C_21  and  C_24
REMARK    9  A    between atoms: C_25  and  C_26
REMARK   10  A    between atoms: C_25  and  C_28
REMARK   11  A    between atoms: C_26  and  C_27
REMARK                            x       y       z     vdW  Elec       q    Type
REMARK                         _______ _______ _______ _____ _____    ______ ____
ROOT
ATOM     13  C   UNL     1      -3.678  -1.056  25.629  0.00  0.00    +0.127 C 
ATOM     14  C   UNL     1      -4.147  -2.258  24.786  0.00  0.00    +0.167 C 
ATOM     15  C   UNL     1      -3.027  -3.289  24.605  0.00  0.00    +0.149 C 
ATOM     17  C   UNL     1      -1.762  -2.667  23.989  0.00  0.00    +0.074 C 
ATOM     20  C   UNL     1      -2.312  -0.556  25.244  0.00  0.00    +0.006 C 
ATOM     21  C   UNL     1      -1.466  -1.286  24.501  0.00  0.00    +0.015 C 
ENDROOT
BRANCH  13   9
ATOM      4  O   UNL     1      -3.790   1.037  23.621  0.00  0.00    -0.274 OA
ATOM      9  N   UNL     1      -4.613   0.040  25.558  0.00  0.00    -0.305 N 
ATOM     23  C   UNL     1      -4.587   0.996  24.555  0.00  0.00    +0.231 C 
ATOM     30  H   UNL     1      -5.305   0.125  26.297  0.00  0.00    +0.149 HD
BRANCH  23  16
ATOM     10  N   UNL     1      -5.068   3.316  24.497  0.00  0.00    -0.306 NA
ATOM     16  C   UNL     1      -5.679   2.003  24.704  0.00  0.00    +0.140 C 
ATOM     18  C   UNL     1      -6.263   2.020  26.112  0.00  0.00    +0.029 C 
ATOM     19  C   UNL     1      -5.902   3.390  26.663  0.00  0.00    +0.017 C 
ATOM     22  C   UNL     1      -5.737   4.233  25.415  0.00  0.00    +0.081 C 
ATOM     31  H   UNL     1      -5.173   3.622  23.531  0.00  0.00    +0.123 HD
ENDBRANCH  23  16
ENDBRANCH  13   9
BRANCH  21  24
ATOM      5  O   UNL     1       0.882  -1.244  24.547  0.00  0.00    -0.271 OA
ATOM     11  N   UNL     1      -0.257   0.487  23.480  0.00  0.00    -0.300 N 
ATOM     24  C   UNL     1      -0.160  -0.698  24.189  0.00  0.00    +0.241 C 
ATOM     34  H   UNL     1      -1.163   0.874  23.242  0.00  0.00    +0.150 HD
BRANCH  11  25
ATOM     25  C   UNL     1       0.895   1.252  23.061  0.00  0.00    +0.160 C 
BRANCH  25  28
ATOM      8  O   UNL     1       1.826  -0.547  21.721  0.00  0.00    -0.274 OA
ATOM     12  N   UNL     1       3.143   0.407  23.343  0.00  0.00    -0.328 N 
ATOM     28  C   UNL     1       1.970   0.264  22.633  0.00  0.00    +0.231 C 
ATOM     35  H   UNL     1       3.266   1.109  24.064  0.00  0.00    +0.145 HD
ATOM     36  H   UNL     1       3.944  -0.186  23.147  0.00  0.00    +0.145 HD
ENDBRANCH  25  28
BRANCH  25  26
ATOM     26  C   UNL     1       1.418   2.162  24.176  0.00  0.00    +0.054 C 
BRANCH  26  27
ATOM     27  C   UNL     1       0.386   2.381  25.276  0.00  0.00    +0.168 C 
BRANCH  27   1
ATOM      1  S   UNL     1      -0.856   3.529  24.770  0.00  0.00    -0.034 S 
ATOM      6  O   UNL     1      -0.261   4.853  24.727  0.00  0.00    -0.175 OA
ATOM      7  O   UNL     1      -1.531   2.984  23.605  0.00  0.00    -0.175 OA
ATOM     29  C   UNL     1      -2.013   3.503  26.120  0.00  0.00    +0.194 C 
ENDBRANCH  27   1
ENDBRANCH  26  27
ENDBRANCH  25  26
ENDBRANCH  11  25
ENDBRANCH  21  24
BRANCH  14   2
ATOM      2  O   UNL     1      -4.567  -1.805  23.497  0.00  0.00    -0.387 OA
ATOM     32  H   UNL     1      -3.831  -1.909  22.872  0.00  0.00    +0.210 HD
ENDBRANCH  14   2
BRANCH  15   3
ATOM      3  O   UNL     1      -2.712  -3.898  25.856  0.00  0.00    -0.389 OA
ATOM     33  H   UNL     1      -2.527  -3.184  26.490  0.00  0.00    +0.210 HD
ENDBRANCH  15   3
TORSDOF 10
ENDMDL
