MODEL 1
REMARK VINA RESULT:       1.5      0.000      0.000
REMARK  Name = 45361387
REMARK  12 active torsions:
REMARK  status: ('A' for Active; 'I' for Inactive)
REMARK    1  A    between atoms: O_1  and  C_11
REMARK    2  A    between atoms: O_4  and  C_31
REMARK    3  A    between atoms: O_4  and  C_36
REMARK    4  A    between atoms: N_5  and  C_15
REMARK    5  A    between atoms: N_6  and  C_25
REMARK    6  A    between atoms: C_8  and  C_18
REMARK    7  A    between atoms: C_10  and  C_20
REMARK    8  A    between atoms: C_14  and  C_19
REMARK    9  A    between atoms: C_19  and  C_21
REMARK   10  A    between atoms: C_19  and  C_22
REMARK   11  A    between atoms: C_23  and  C_24
REMARK   12  A    between atoms: C_25  and  C_28
REMARK                            x       y       z     vdW  Elec       q    Type
REMARK                         _______ _______ _______ _____ _____    ______ ____
ROOT
ATOM      8  C   UNL     1      -3.057  -1.305  24.878  0.00  0.00    -0.027 C 
ATOM      9  C   UNL     1      -2.702   0.028  24.140  0.00  0.00    +0.028 C 
ATOM     10  C   UNL     1      -1.158   0.310  24.205  0.00  0.00    +0.012 C 
ATOM     11  C   UNL     1      -3.616   1.195  24.613  0.00  0.00    +0.122 C 
ATOM     12  C   UNL     1      -4.563  -1.611  24.698  0.00  0.00    +0.007 C 
ATOM     13  C   UNL     1      -2.261  -2.465  24.237  0.00  0.00    +0.009 C 
ATOM     14  C   UNL     1      -5.120   0.845  24.527  0.00  0.00    +0.029 C 
ATOM     15  C   UNL     1      -0.366  -0.895  23.626  0.00  0.00    +0.076 C 
ATOM     16  C   UNL     1      -5.461  -0.487  25.196  0.00  0.00    +0.007 C 
ATOM     17  C   UNL     1      -0.756  -2.236  24.248  0.00  0.00    +0.023 C 
ATOM     18  C   UNL     1      -2.739  -1.247  26.395  0.00  0.00    +0.011 C 
ATOM     20  C   UNL     1      -0.736   1.594  23.472  0.00  0.00    +0.010 C 
ENDROOT
BRANCH  15   5
ATOM      3  O   UNL     1       1.514  -0.271  21.547  0.00  0.00    -0.270 OA
ATOM      5  N   UNL     1       1.064  -0.719  23.777  0.00  0.00    -0.308 N 
ATOM     23  C   UNL     1       1.890  -0.417  22.708  0.00  0.00    +0.244 C 
ATOM     37  H   UNL     1       1.458  -0.939  24.685  0.00  0.00    +0.149 HD
BRANCH  23  24
ATOM     24  C   UNL     1       3.336  -0.295  23.024  0.00  0.00    +0.037 A 
ATOM     26  C   UNL     1       4.015  -1.365  23.607  0.00  0.00    +0.016 A 
ATOM     27  C   UNL     1       4.014   0.890  22.741  0.00  0.00    +0.016 A 
ATOM     29  C   UNL     1       5.373  -1.250  23.907  0.00  0.00    +0.046 A 
ATOM     30  C   UNL     1       5.372   1.006  23.040  0.00  0.00    +0.046 A 
ATOM     31  C   UNL     1       6.051  -0.065  23.624  0.00  0.00    +0.120 A 
BRANCH  31   4
ATOM      4  O   UNL     1       7.376   0.048  23.914  0.00  0.00    -0.495 OA
ATOM     36  C   UNL     1       8.297  -0.407  22.924  0.00  0.00    +0.277 C 
ENDBRANCH  31   4
ENDBRANCH  23  24
ENDBRANCH  15   5
BRANCH  11   1
ATOM      1  O   UNL     1      -3.414   2.330  23.771  0.00  0.00    -0.391 OA
ATOM     38  H   UNL     1      -2.499   2.305  23.442  0.00  0.00    +0.210 HD
ENDBRANCH  11   1
BRANCH  14  19
ATOM     19  C   UNL     1      -5.997   1.955  25.119  0.00  0.00    +0.077 C 
ATOM     21  C   UNL     1      -7.218   2.186  24.237  0.00  0.00    +0.017 C 
BRANCH  19  22
ATOM      2  O   UNL     1      -5.194   4.141  24.454  0.00  0.00    -0.276 OA
ATOM      6  N   UNL     1      -4.433   3.240  26.452  0.00  0.00    -0.309 N 
ATOM     22  C   UNL     1      -5.179   3.232  25.282  0.00  0.00    +0.217 C 
ATOM     39  H   UNL     1      -4.517   2.474  27.111  0.00  0.00    +0.149 HD
BRANCH   6  25
ATOM     25  C   UNL     1      -3.577   4.342  26.825  0.00  0.00    +0.159 C 
BRANCH  25  28
ATOM      7  N   UNL     1      -1.447   3.237  26.450  0.00  0.00    -0.258 NA
ATOM     28  C   UNL     1      -2.247   4.280  26.133  0.00  0.00    +0.058 A 
ATOM     32  C   UNL     1      -1.908   5.270  25.225  0.00  0.00    +0.025 A 
ATOM     33  C   UNL     1      -0.669   5.183  24.600  0.00  0.00    +0.003 A 
ATOM     34  C   UNL     1      -0.250   3.186  25.823  0.00  0.00    +0.111 A 
ATOM     35  C   UNL     1       0.182   4.124  24.899  0.00  0.00    +0.020 A 
ENDBRANCH  25  28
ENDBRANCH   6  25
ENDBRANCH  19  22
ENDBRANCH  14  19
TORSDOF 8
ENDMDL
