MODEL 1
REMARK VINA RESULT:      -5.5      0.000      0.000
REMARK  Name = 56775516
REMARK  11 active torsions:
REMARK  status: ('A' for Active; 'I' for Inactive)
REMARK    1  A    between atoms: O_3  and  C_16
REMARK    2  A    between atoms: O_4  and  C_21
REMARK    3  A    between atoms: O_4  and  C_24
REMARK    4  A    between atoms: N_5  and  C_7
REMARK    5  A    between atoms: N_5  and  C_12
REMARK    6  A    between atoms: C_7  and  C_10
REMARK    7  A    between atoms: C_10  and  C_11
REMARK    8  A    between atoms: C_12  and  C_14
REMARK    9  A    between atoms: C_15  and  C_16
REMARK   10  A    between atoms: C_16  and  C_19
REMARK   11  A    between atoms: C_16  and  C_20
REMARK                            x       y       z     vdW  Elec       q    Type
REMARK                         _______ _______ _______ _____ _____    ______ ____
ROOT
ATOM      1  O   UNL     1      -3.177  -3.259  24.878  0.00  0.00    -0.376 OA
ATOM      7  C   UNL     1      -2.556  -1.216  24.850  0.00  0.00    +0.072 C 
ATOM      8  C   UNL     1      -3.611  -2.059  25.559  0.00  0.00    +0.184 C 
ATOM      9  C   UNL     1      -2.095  -2.537  24.245  0.00  0.00    +0.184 C 
ENDROOT
BRANCH   7   5
ATOM      5  N   UNL     1      -3.210  -0.422  23.808  0.00  0.00    -0.302 NA
ATOM     25  H   UNL     1      -3.272  -0.873  22.896  0.00  0.00    +0.123 HD
BRANCH   5  12
ATOM     12  C   UNL     1      -4.549  -0.042  24.264  0.00  0.00    +0.117 C 
BRANCH  12  14
ATOM     14  C   UNL     1      -4.623   1.391  24.668  0.00  0.00    -0.030 A 
ATOM     17  C   UNL     1      -3.590   2.266  24.335  0.00  0.00    +0.050 A 
ATOM     18  C   UNL     1      -5.727   1.857  25.384  0.00  0.00    +0.005 A 
ATOM     21  C   UNL     1      -3.660   3.606  24.714  0.00  0.00    +0.120 A 
ATOM     22  C   UNL     1      -5.797   3.197  25.764  0.00  0.00    +0.004 A 
ATOM     23  C   UNL     1      -4.763   4.072  25.430  0.00  0.00    +0.045 A 
BRANCH  21   4
ATOM      4  O   UNL     1      -2.650   4.459  24.389  0.00  0.00    -0.495 OA
ATOM     24  C   UNL     1      -1.567   4.564  25.311  0.00  0.00    +0.277 C 
ENDBRANCH  21   4
ENDBRANCH  12  14
ENDBRANCH   5  12
ENDBRANCH   7   5
BRANCH   7  10
ATOM     10  C   UNL     1      -1.590  -0.420  25.672  0.00  0.00    +0.085 C 
BRANCH  10  11
ATOM      2  O   UNL     1       0.861   1.487  23.826  0.00  0.00    -0.356 OA
ATOM      6  N   UNL     1      -0.263   1.386  24.636  0.00  0.00    -0.083 NA
ATOM     11  C   UNL     1      -0.438   0.075  24.821  0.00  0.00    +0.086 A 
ATOM     13  C   UNL     1       0.535  -0.693  24.159  0.00  0.00    +0.074 A 
ATOM     15  C   UNL     1       1.327   0.243  23.548  0.00  0.00    +0.168 A 
BRANCH  15  16
ATOM     16  C   UNL     1       2.521   0.164  22.696  0.00  0.00    +0.120 C 
ATOM     19  C   UNL     1       3.462  -1.015  23.077  0.00  0.00    +0.049 C 
ATOM     20  C   UNL     1       3.356   1.478  22.700  0.00  0.00    +0.049 C 
BRANCH  16   3
ATOM      3  O   UNL     1       2.195  -0.062  21.297  0.00  0.00    -0.381 OA
ATOM     26  H   UNL     1       1.226  -0.087  21.210  0.00  0.00    +0.211 HD
ENDBRANCH  16   3
ENDBRANCH  15  16
ENDBRANCH  10  11
ENDBRANCH   7  10
TORSDOF 8
ENDMDL
MODEL 2
REMARK VINA RESULT:      -4.9      2.100      3.102
REMARK  Name = 56775516
REMARK  11 active torsions:
REMARK  status: ('A' for Active; 'I' for Inactive)
REMARK    1  A    between atoms: O_3  and  C_16
REMARK    2  A    between atoms: O_4  and  C_21
REMARK    3  A    between atoms: O_4  and  C_24
REMARK    4  A    between atoms: N_5  and  C_7
REMARK    5  A    between atoms: N_5  and  C_12
REMARK    6  A    between atoms: C_7  and  C_10
REMARK    7  A    between atoms: C_10  and  C_11
REMARK    8  A    between atoms: C_12  and  C_14
REMARK    9  A    between atoms: C_15  and  C_16
REMARK   10  A    between atoms: C_16  and  C_19
REMARK   11  A    between atoms: C_16  and  C_20
REMARK                            x       y       z     vdW  Elec       q    Type
REMARK                         _______ _______ _______ _____ _____    ______ ____
ROOT
ATOM      1  O   UNL     1      -3.964  -3.731  24.963  0.00  0.00    -0.376 OA
ATOM      7  C   UNL     1      -2.537  -2.262  24.361  0.00  0.00    +0.072 C 
ATOM      8  C   UNL     1      -3.447  -2.519  25.558  0.00  0.00    +0.184 C 
ATOM      9  C   UNL     1      -3.058  -3.598  23.844  0.00  0.00    +0.184 C 
ENDROOT
BRANCH   7   5
ATOM      5  N   UNL     1      -3.113  -1.186  23.553  0.00  0.00    -0.302 NA
ATOM     25  H   UNL     1      -3.429  -1.463  22.624  0.00  0.00    +0.123 HD
BRANCH   5  12
ATOM     12  C   UNL     1      -4.222  -0.574  24.289  0.00  0.00    +0.117 C 
BRANCH  12  14
ATOM     14  C   UNL     1      -4.173   0.916  24.253  0.00  0.00    -0.030 A 
ATOM     17  C   UNL     1      -4.933   1.661  25.153  0.00  0.00    +0.050 A 
ATOM     18  C   UNL     1      -3.368   1.564  23.316  0.00  0.00    +0.005 A 
ATOM     21  C   UNL     1      -4.887   3.055  25.118  0.00  0.00    +0.120 A 
ATOM     22  C   UNL     1      -3.323   2.957  23.280  0.00  0.00    +0.004 A 
ATOM     23  C   UNL     1      -4.082   3.703  24.181  0.00  0.00    +0.045 A 
BRANCH  21   4
ATOM      4  O   UNL     1      -5.630   3.782  25.996  0.00  0.00    -0.495 OA
ATOM     24  C   UNL     1      -6.137   5.034  25.537  0.00  0.00    +0.277 C 
ENDBRANCH  21   4
ENDBRANCH  12  14
ENDBRANCH   5  12
ENDBRANCH   7   5
BRANCH   7  10
ATOM     10  C   UNL     1      -1.066  -2.098  24.589  0.00  0.00    +0.085 C 
BRANCH  10  11
ATOM      2  O   UNL     1       0.128   1.258  23.984  0.00  0.00    -0.356 OA
ATOM      6  N   UNL     1      -0.060  -0.067  23.610  0.00  0.00    -0.083 NA
ATOM     11  C   UNL     1      -0.690  -0.631  24.644  0.00  0.00    +0.086 A 
ATOM     13  C   UNL     1      -0.923   0.279  25.689  0.00  0.00    +0.074 A 
ATOM     15  C   UNL     1      -0.390   1.453  25.223  0.00  0.00    +0.168 A 
BRANCH  15  16
ATOM     16  C   UNL     1      -0.277   2.807  25.777  0.00  0.00    +0.120 C 
ATOM     19  C   UNL     1      -1.547   3.252  26.558  0.00  0.00    +0.049 C 
ATOM     20  C   UNL     1       0.032   3.881  24.693  0.00  0.00    +0.049 C 
BRANCH  16   3
ATOM      3  O   UNL     1       0.808   2.930  26.737  0.00  0.00    -0.381 OA
ATOM     26  H   UNL     1       1.240   2.062  26.821  0.00  0.00    +0.211 HD
ENDBRANCH  16   3
ENDBRANCH  15  16
ENDBRANCH  10  11
ENDBRANCH   7  10
TORSDOF 8
ENDMDL
MODEL 3
REMARK VINA RESULT:      -4.8      1.544      4.217
REMARK  Name = 56775516
REMARK  11 active torsions:
REMARK  status: ('A' for Active; 'I' for Inactive)
REMARK    1  A    between atoms: O_3  and  C_16
REMARK    2  A    between atoms: O_4  and  C_21
REMARK    3  A    between atoms: O_4  and  C_24
REMARK    4  A    between atoms: N_5  and  C_7
REMARK    5  A    between atoms: N_5  and  C_12
REMARK    6  A    between atoms: C_7  and  C_10
REMARK    7  A    between atoms: C_10  and  C_11
REMARK    8  A    between atoms: C_12  and  C_14
REMARK    9  A    between atoms: C_15  and  C_16
REMARK   10  A    between atoms: C_16  and  C_19
REMARK   11  A    between atoms: C_16  and  C_20
REMARK                            x       y       z     vdW  Elec       q    Type
REMARK                         _______ _______ _______ _____ _____    ______ ____
ROOT
ATOM      1  O   UNL     1      -1.647   5.752  25.252  0.00  0.00    -0.376 OA
ATOM      7  C   UNL     1      -1.461   3.650  24.923  0.00  0.00    +0.072 C 
ATOM      8  C   UNL     1      -0.577   4.887  24.805  0.00  0.00    +0.184 C 
ATOM      9  C   UNL     1      -2.507   4.611  25.476  0.00  0.00    +0.184 C 
ENDROOT
BRANCH   7   5
ATOM      5  N   UNL     1      -1.869   3.232  23.580  0.00  0.00    -0.302 NA
ATOM     25  H   UNL     1      -1.519   2.321  23.285  0.00  0.00    +0.123 HD
BRANCH   5  12
ATOM     12  C   UNL     1      -3.331   3.252  23.494  0.00  0.00    +0.117 C 
BRANCH  12  14
ATOM     14  C   UNL     1      -3.949   2.020  24.061  0.00  0.00    -0.030 A 
ATOM     17  C   UNL     1      -3.524   0.764  23.629  0.00  0.00    +0.050 A 
ATOM     18  C   UNL     1      -4.954   2.124  25.024  0.00  0.00    +0.005 A 
ATOM     21  C   UNL     1      -4.103  -0.389  24.160  0.00  0.00    +0.120 A 
ATOM     22  C   UNL     1      -5.533   0.971  25.554  0.00  0.00    +0.004 A 
ATOM     23  C   UNL     1      -5.108  -0.285  25.123  0.00  0.00    +0.045 A 
BRANCH  21   4
ATOM      4  O   UNL     1      -3.690  -1.615  23.738  0.00  0.00    -0.495 OA
ATOM     24  C   UNL     1      -3.345  -2.566  24.743  0.00  0.00    +0.277 C 
ENDBRANCH  21   4
ENDBRANCH  12  14
ENDBRANCH   5  12
ENDBRANCH   7   5
BRANCH   7  10
ATOM     10  C   UNL     1      -1.003   2.509  25.776  0.00  0.00    +0.085 C 
BRANCH  10  11
ATOM      2  O   UNL     1       0.315  -0.386  24.062  0.00  0.00    -0.356 OA
ATOM      6  N   UNL     1      -0.622   0.243  24.872  0.00  0.00    -0.083 NA
ATOM     11  C   UNL     1      -0.209   1.510  24.959  0.00  0.00    +0.086 A 
ATOM     13  C   UNL     1       0.972   1.738  24.231  0.00  0.00    +0.074 A 
ATOM     15  C   UNL     1       1.260   0.514  23.687  0.00  0.00    +0.168 A 
BRANCH  15  16
ATOM     16  C   UNL     1       2.334   0.014  22.820  0.00  0.00    +0.120 C 
ATOM     19  C   UNL     1       3.472   1.053  22.604  0.00  0.00    +0.049 C 
ATOM     20  C   UNL     1       1.823  -0.450  21.425  0.00  0.00    +0.049 C 
BRANCH  16   3
ATOM      3  O   UNL     1       3.002  -1.153  23.375  0.00  0.00    -0.381 OA
ATOM     26  H   UNL     1       3.461  -1.614  22.652  0.00  0.00    +0.211 HD
ENDBRANCH  16   3
ENDBRANCH  15  16
ENDBRANCH  10  11
ENDBRANCH   7  10
TORSDOF 8
ENDMDL
MODEL 4
REMARK VINA RESULT:      -4.6      1.670      6.095
REMARK  Name = 56775516
REMARK  11 active torsions:
REMARK  status: ('A' for Active; 'I' for Inactive)
REMARK    1  A    between atoms: O_3  and  C_16
REMARK    2  A    between atoms: O_4  and  C_21
REMARK    3  A    between atoms: O_4  and  C_24
REMARK    4  A    between atoms: N_5  and  C_7
REMARK    5  A    between atoms: N_5  and  C_12
REMARK    6  A    between atoms: C_7  and  C_10
REMARK    7  A    between atoms: C_10  and  C_11
REMARK    8  A    between atoms: C_12  and  C_14
REMARK    9  A    between atoms: C_15  and  C_16
REMARK   10  A    between atoms: C_16  and  C_19
REMARK   11  A    between atoms: C_16  and  C_20
REMARK                            x       y       z     vdW  Elec       q    Type
REMARK                         _______ _______ _______ _____ _____    ______ ____
ROOT
ATOM      1  O   UNL     1      -1.680   5.760  25.206  0.00  0.00    -0.376 OA
ATOM      7  C   UNL     1      -2.584   3.835  25.016  0.00  0.00    +0.072 C 
ATOM      8  C   UNL     1      -2.904   5.163  25.694  0.00  0.00    +0.184 C 
ATOM      9  C   UNL     1      -1.364   4.561  24.461  0.00  0.00    +0.184 C 
ENDROOT
BRANCH   7   5
ATOM      5  N   UNL     1      -2.142   2.880  26.035  0.00  0.00    -0.302 NA
ATOM     25  H   UNL     1      -2.626   1.983  26.026  0.00  0.00    +0.123 HD
BRANCH   5  12
ATOM     12  C   UNL     1      -0.700   2.665  25.897  0.00  0.00    +0.117 C 
BRANCH  12  14
ATOM     14  C   UNL     1      -0.379   1.333  25.307  0.00  0.00    -0.030 A 
ATOM     17  C   UNL     1       0.315   1.253  24.101  0.00  0.00    +0.050 A 
ATOM     18  C   UNL     1      -0.777   0.167  25.962  0.00  0.00    +0.005 A 
ATOM     21  C   UNL     1       0.614   0.007  23.549  0.00  0.00    +0.120 A 
ATOM     22  C   UNL     1      -0.479  -1.079  25.410  0.00  0.00    +0.004 A 
ATOM     23  C   UNL     1       0.216  -1.159  24.204  0.00  0.00    +0.045 A 
BRANCH  21   4
ATOM      4  O   UNL     1       1.291  -0.070  22.372  0.00  0.00    -0.495 OA
ATOM     24  C   UNL     1       2.697   0.172  22.413  0.00  0.00    +0.277 C 
ENDBRANCH  21   4
ENDBRANCH  12  14
ENDBRANCH   5  12
ENDBRANCH   7   5
BRANCH   7  10
ATOM     10  C   UNL     1      -3.577   3.251  24.059  0.00  0.00    +0.085 C 
BRANCH  10  11
ATOM      2  O   UNL     1      -4.640   0.055  25.367  0.00  0.00    -0.356 OA
ATOM      6  N   UNL     1      -4.638   1.444  25.364  0.00  0.00    -0.083 NA
ATOM     11  C   UNL     1      -3.823   1.787  24.364  0.00  0.00    +0.086 A 
ATOM     13  C   UNL     1      -3.286   0.668  23.706  0.00  0.00    +0.074 A 
ATOM     15  C   UNL     1      -3.831  -0.396  24.375  0.00  0.00    +0.168 A 
BRANCH  15  16
ATOM     16  C   UNL     1      -3.716  -1.852  24.233  0.00  0.00    +0.120 C 
ATOM     19  C   UNL     1      -4.946  -2.494  23.528  0.00  0.00    +0.049 C 
ATOM     20  C   UNL     1      -3.498  -2.579  25.593  0.00  0.00    +0.049 C 
BRANCH  16   3
ATOM      3  O   UNL     1      -2.577  -2.246  23.419  0.00  0.00    -0.381 OA
ATOM     26  H   UNL     1      -2.742  -1.957  22.505  0.00  0.00    +0.211 HD
ENDBRANCH  16   3
ENDBRANCH  15  16
ENDBRANCH  10  11
ENDBRANCH   7  10
TORSDOF 8
ENDMDL
MODEL 5
REMARK VINA RESULT:      -4.5      2.223      5.425
REMARK  Name = 56775516
REMARK  11 active torsions:
REMARK  status: ('A' for Active; 'I' for Inactive)
REMARK    1  A    between atoms: O_3  and  C_16
REMARK    2  A    between atoms: O_4  and  C_21
REMARK    3  A    between atoms: O_4  and  C_24
REMARK    4  A    between atoms: N_5  and  C_7
REMARK    5  A    between atoms: N_5  and  C_12
REMARK    6  A    between atoms: C_7  and  C_10
REMARK    7  A    between atoms: C_10  and  C_11
REMARK    8  A    between atoms: C_12  and  C_14
REMARK    9  A    between atoms: C_15  and  C_16
REMARK   10  A    between atoms: C_16  and  C_19
REMARK   11  A    between atoms: C_16  and  C_20
REMARK                            x       y       z     vdW  Elec       q    Type
REMARK                         _______ _______ _______ _____ _____    ______ ____
ROOT
ATOM      1  O   UNL     1      -2.839  -3.819  24.304  0.00  0.00    -0.376 OA
ATOM      7  C   UNL     1      -3.094  -1.703  24.433  0.00  0.00    +0.072 C 
ATOM      8  C   UNL     1      -2.015  -2.677  23.973  0.00  0.00    +0.184 C 
ATOM      9  C   UNL     1      -3.937  -2.951  24.667  0.00  0.00    +0.184 C 
ENDROOT
BRANCH   7   5
ATOM      5  N   UNL     1      -2.705  -1.147  25.731  0.00  0.00    -0.302 NA
ATOM     25  H   UNL     1      -3.082  -1.635  26.542  0.00  0.00    +0.123 HD
BRANCH   5  12
ATOM     12  C   UNL     1      -1.243  -1.103  25.815  0.00  0.00    +0.117 C 
BRANCH  12  14
ATOM     14  C   UNL     1      -0.677   0.135  25.208  0.00  0.00    -0.030 A 
ATOM     17  C   UNL     1      -0.981   1.382  25.754  0.00  0.00    +0.050 A 
ATOM     18  C   UNL     1       0.155   0.047  24.091  0.00  0.00    +0.005 A 
ATOM     21  C   UNL     1      -0.452   2.540  25.185  0.00  0.00    +0.120 A 
ATOM     22  C   UNL     1       0.683   1.205  23.522  0.00  0.00    +0.004 A 
ATOM     23  C   UNL     1       0.380   2.452  24.069  0.00  0.00    +0.045 A 
BRANCH  21   4
ATOM      4  O   UNL     1      -0.750   3.757  25.718  0.00  0.00    -0.495 OA
ATOM     24  C   UNL     1      -0.675   4.883  24.846  0.00  0.00    +0.277 C 
ENDBRANCH  21   4
ENDBRANCH  12  14
ENDBRANCH   5  12
ENDBRANCH   7   5
BRANCH   7  10
ATOM     10  C   UNL     1      -3.590  -0.662  23.477  0.00  0.00    +0.085 C 
BRANCH  10  11
ATOM      2  O   UNL     1      -5.355   1.652  25.617  0.00  0.00    -0.356 OA
ATOM      6  N   UNL     1      -5.096   0.375  25.135  0.00  0.00    -0.083 NA
ATOM     11  C   UNL     1      -4.135   0.539  24.222  0.00  0.00    +0.086 A 
ATOM     13  C   UNL     1      -3.751   1.884  24.086  0.00  0.00    +0.074 A 
ATOM     15  C   UNL     1      -4.549   2.542  24.985  0.00  0.00    +0.168 A 
BRANCH  15  16
ATOM     16  C   UNL     1      -4.691   3.950  25.376  0.00  0.00    +0.120 C 
ATOM     19  C   UNL     1      -4.318   4.939  24.234  0.00  0.00    +0.049 C 
ATOM     20  C   UNL     1      -3.853   4.317  26.635  0.00  0.00    +0.049 C 
BRANCH  16   3
ATOM      3  O   UNL     1      -6.059   4.296  25.730  0.00  0.00    -0.381 OA
ATOM     26  H   UNL     1      -6.631   4.093  24.970  0.00  0.00    +0.211 HD
ENDBRANCH  16   3
ENDBRANCH  15  16
ENDBRANCH  10  11
ENDBRANCH   7  10
TORSDOF 8
ENDMDL
MODEL 6
REMARK VINA RESULT:      -4.3      1.635      4.535
REMARK  Name = 56775516
REMARK  11 active torsions:
REMARK  status: ('A' for Active; 'I' for Inactive)
REMARK    1  A    between atoms: O_3  and  C_16
REMARK    2  A    between atoms: O_4  and  C_21
REMARK    3  A    between atoms: O_4  and  C_24
REMARK    4  A    between atoms: N_5  and  C_7
REMARK    5  A    between atoms: N_5  and  C_12
REMARK    6  A    between atoms: C_7  and  C_10
REMARK    7  A    between atoms: C_10  and  C_11
REMARK    8  A    between atoms: C_12  and  C_14
REMARK    9  A    between atoms: C_15  and  C_16
REMARK   10  A    between atoms: C_16  and  C_19
REMARK   11  A    between atoms: C_16  and  C_20
REMARK                            x       y       z     vdW  Elec       q    Type
REMARK                         _______ _______ _______ _____ _____    ______ ____
ROOT
ATOM      1  O   UNL     1      -5.047   4.223  25.384  0.00  0.00    -0.376 OA
ATOM      7  C   UNL     1      -3.092   3.407  25.114  0.00  0.00    +0.072 C 
ATOM      8  C   UNL     1      -4.306   3.725  24.246  0.00  0.00    +0.184 C 
ATOM      9  C   UNL     1      -3.900   4.034  26.244  0.00  0.00    +0.184 C 
ENDROOT
BRANCH   7   5
ATOM      5  N   UNL     1      -3.030   1.959  25.325  0.00  0.00    -0.302 NA
ATOM     25  H   UNL     1      -3.339   1.642  26.243  0.00  0.00    +0.123 HD
BRANCH   5  12
ATOM     12  C   UNL     1      -3.811   1.289  24.282  0.00  0.00    +0.117 C 
BRANCH  12  14
ATOM     14  C   UNL     1      -3.589  -0.186  24.268  0.00  0.00    -0.030 A 
ATOM     17  C   UNL     1      -2.348  -0.708  24.630  0.00  0.00    +0.050 A 
ATOM     18  C   UNL     1      -4.623  -1.042  23.890  0.00  0.00    +0.005 A 
ATOM     21  C   UNL     1      -2.140  -2.087  24.616  0.00  0.00    +0.120 A 
ATOM     22  C   UNL     1      -4.416  -2.421  23.874  0.00  0.00    +0.004 A 
ATOM     23  C   UNL     1      -3.175  -2.944  24.237  0.00  0.00    +0.045 A 
BRANCH  21   4
ATOM      4  O   UNL     1      -0.929  -2.597  24.968  0.00  0.00    -0.495 OA
ATOM     24  C   UNL     1      -0.180  -1.875  25.945  0.00  0.00    +0.277 C 
ENDBRANCH  21   4
ENDBRANCH  12  14
ENDBRANCH   5  12
ENDBRANCH   7   5
BRANCH   7  10
ATOM     10  C   UNL     1      -1.766   4.002  24.753  0.00  0.00    +0.085 C 
BRANCH  10  11
ATOM      2  O   UNL     1       0.887   1.576  25.107  0.00  0.00    -0.356 OA
ATOM      6  N   UNL     1       0.061   2.576  25.603  0.00  0.00    -0.083 NA
ATOM     11  C   UNL     1      -0.721   2.920  24.576  0.00  0.00    +0.086 A 
ATOM     13  C   UNL     1      -0.437   2.177  23.417  0.00  0.00    +0.074 A 
ATOM     15  C   UNL     1       0.582   1.346  23.804  0.00  0.00    +0.168 A 
BRANCH  15  16
ATOM     16  C   UNL     1       1.364   0.311  23.119  0.00  0.00    +0.120 C 
ATOM     19  C   UNL     1       2.836   0.738  22.852  0.00  0.00    +0.049 C 
ATOM     20  C   UNL     1       0.730  -0.133  21.768  0.00  0.00    +0.049 C 
BRANCH  16   3
ATOM      3  O   UNL     1       1.471  -0.914  23.896  0.00  0.00    -0.381 OA
ATOM     26  H   UNL     1       1.709  -0.676  24.808  0.00  0.00    +0.211 HD
ENDBRANCH  16   3
ENDBRANCH  15  16
ENDBRANCH  10  11
ENDBRANCH   7  10
TORSDOF 8
ENDMDL
MODEL 7
REMARK VINA RESULT:      -4.2      1.261      5.448
REMARK  Name = 56775516
REMARK  11 active torsions:
REMARK  status: ('A' for Active; 'I' for Inactive)
REMARK    1  A    between atoms: O_3  and  C_16
REMARK    2  A    between atoms: O_4  and  C_21
REMARK    3  A    between atoms: O_4  and  C_24
REMARK    4  A    between atoms: N_5  and  C_7
REMARK    5  A    between atoms: N_5  and  C_12
REMARK    6  A    between atoms: C_7  and  C_10
REMARK    7  A    between atoms: C_10  and  C_11
REMARK    8  A    between atoms: C_12  and  C_14
REMARK    9  A    between atoms: C_15  and  C_16
REMARK   10  A    between atoms: C_16  and  C_19
REMARK   11  A    between atoms: C_16  and  C_20
REMARK                            x       y       z     vdW  Elec       q    Type
REMARK                         _______ _______ _______ _____ _____    ______ ____
ROOT
ATOM      1  O   UNL     1      -2.432  -3.757  24.437  0.00  0.00    -0.376 OA
ATOM      7  C   UNL     1      -3.306  -1.820  24.637  0.00  0.00    +0.072 C 
ATOM      8  C   UNL     1      -2.088  -2.437  23.959  0.00  0.00    +0.184 C 
ATOM      9  C   UNL     1      -3.654  -3.253  25.023  0.00  0.00    +0.184 C 
ENDROOT
BRANCH   7   5
ATOM      5  N   UNL     1      -2.865  -1.102  25.835  0.00  0.00    -0.302 NA
ATOM     25  H   UNL     1      -3.326  -1.380  26.700  0.00  0.00    +0.123 HD
BRANCH   5  12
ATOM     12  C   UNL     1      -1.415  -1.250  25.977  0.00  0.00    +0.117 C 
BRANCH  12  14
ATOM     14  C   UNL     1      -0.664  -0.169  25.278  0.00  0.00    -0.030 A 
ATOM     17  C   UNL     1       0.143  -0.475  24.182  0.00  0.00    +0.050 A 
ATOM     18  C   UNL     1      -0.766   1.150  25.722  0.00  0.00    +0.005 A 
ATOM     21  C   UNL     1       0.847   0.537  23.529  0.00  0.00    +0.120 A 
ATOM     22  C   UNL     1      -0.062   2.162  25.069  0.00  0.00    +0.004 A 
ATOM     23  C   UNL     1       0.744   1.856  23.973  0.00  0.00    +0.045 A 
BRANCH  21   4
ATOM      4  O   UNL     1       1.635   0.238  22.461  0.00  0.00    -0.495 OA
ATOM     24  C   UNL     1       3.039   0.435  22.615  0.00  0.00    +0.277 C 
ENDBRANCH  21   4
ENDBRANCH  12  14
ENDBRANCH   5  12
ENDBRANCH   7   5
BRANCH   7  10
ATOM     10  C   UNL     1      -4.278  -1.036  23.811  0.00  0.00    +0.085 C 
BRANCH  10  11
ATOM      2  O   UNL     1      -3.157   2.385  23.509  0.00  0.00    -0.356 OA
ATOM      6  N   UNL     1      -3.151   1.051  23.124  0.00  0.00    -0.083 NA
ATOM     11  C   UNL     1      -4.020   0.451  23.942  0.00  0.00    +0.086 A 
ATOM     13  C   UNL     1      -4.599   1.349  24.855  0.00  0.00    +0.074 A 
ATOM     15  C   UNL     1      -4.023   2.551  24.540  0.00  0.00    +0.168 A 
BRANCH  15  16
ATOM     16  C   UNL     1      -4.154   3.912  25.074  0.00  0.00    +0.120 C 
ATOM     19  C   UNL     1      -3.139   4.219  26.214  0.00  0.00    +0.049 C 
ATOM     20  C   UNL     1      -5.587   4.222  25.599  0.00  0.00    +0.049 C 
BRANCH  16   3
ATOM      3  O   UNL     1      -3.901   4.933  24.070  0.00  0.00    -0.381 OA
ATOM     26  H   UNL     1      -3.071   5.386  24.299  0.00  0.00    +0.211 HD
ENDBRANCH  16   3
ENDBRANCH  15  16
ENDBRANCH  10  11
ENDBRANCH   7  10
TORSDOF 8
ENDMDL
MODEL 8
REMARK VINA RESULT:      -4.0      1.630      6.329
REMARK  Name = 56775516
REMARK  11 active torsions:
REMARK  status: ('A' for Active; 'I' for Inactive)
REMARK    1  A    between atoms: O_3  and  C_16
REMARK    2  A    between atoms: O_4  and  C_21
REMARK    3  A    between atoms: O_4  and  C_24
REMARK    4  A    between atoms: N_5  and  C_7
REMARK    5  A    between atoms: N_5  and  C_12
REMARK    6  A    between atoms: C_7  and  C_10
REMARK    7  A    between atoms: C_10  and  C_11
REMARK    8  A    between atoms: C_12  and  C_14
REMARK    9  A    between atoms: C_15  and  C_16
REMARK   10  A    between atoms: C_16  and  C_19
REMARK   11  A    between atoms: C_16  and  C_20
REMARK                            x       y       z     vdW  Elec       q    Type
REMARK                         _______ _______ _______ _____ _____    ______ ____
ROOT
ATOM      1  O   UNL     1      -1.692   5.430  25.371  0.00  0.00    -0.376 OA
ATOM      7  C   UNL     1      -2.437   3.488  24.892  0.00  0.00    +0.072 C 
ATOM      8  C   UNL     1      -1.587   4.125  25.986  0.00  0.00    +0.184 C 
ATOM      9  C   UNL     1      -2.581   4.908  24.357  0.00  0.00    +0.184 C 
ENDROOT
BRANCH   7   5
ATOM      5  N   UNL     1      -1.561   2.732  23.995  0.00  0.00    -0.302 NA
ATOM     25  H   UNL     1      -1.140   3.275  23.242  0.00  0.00    +0.123 HD
BRANCH   5  12
ATOM     12  C   UNL     1      -0.512   2.082  24.783  0.00  0.00    +0.117 C 
BRANCH  12  14
ATOM     14  C   UNL     1       0.418   1.280  23.938  0.00  0.00    -0.030 A 
ATOM     17  C   UNL     1       1.759   1.648  23.832  0.00  0.00    +0.050 A 
ATOM     18  C   UNL     1      -0.054   0.162  23.250  0.00  0.00    +0.005 A 
ATOM     21  C   UNL     1       2.628   0.898  23.041  0.00  0.00    +0.120 A 
ATOM     22  C   UNL     1       0.815  -0.588  22.458  0.00  0.00    +0.004 A 
ATOM     23  C   UNL     1       2.156  -0.220  22.353  0.00  0.00    +0.045 A 
BRANCH  21   4
ATOM      4  O   UNL     1       3.936   1.258  22.937  0.00  0.00    -0.495 OA
ATOM     24  C   UNL     1       4.909   0.297  23.343  0.00  0.00    +0.277 C 
ENDBRANCH  21   4
ENDBRANCH  12  14
ENDBRANCH   5  12
ENDBRANCH   7   5
BRANCH   7  10
ATOM     10  C   UNL     1      -3.670   2.731  25.280  0.00  0.00    +0.085 C 
BRANCH  10  11
ATOM      2  O   UNL     1      -3.722  -0.329  23.359  0.00  0.00    -0.356 OA
ATOM      6  N   UNL     1      -3.864   1.048  23.484  0.00  0.00    -0.083 NA
ATOM     11  C   UNL     1      -3.610   1.306  24.770  0.00  0.00    +0.086 A 
ATOM     13  C   UNL     1      -3.304   0.143  25.497  0.00  0.00    +0.074 A 
ATOM     15  C   UNL     1      -3.389  -0.857  24.564  0.00  0.00    +0.168 A 
BRANCH  15  16
ATOM     16  C   UNL     1      -3.198  -2.311  24.612  0.00  0.00    +0.120 C 
ATOM     19  C   UNL     1      -1.744  -2.745  24.266  0.00  0.00    +0.049 C 
ATOM     20  C   UNL     1      -4.175  -3.083  23.678  0.00  0.00    +0.049 C 
BRANCH  16   3
ATOM      3  O   UNL     1      -3.441  -2.863  25.936  0.00  0.00    -0.381 OA
ATOM     26  H   UNL     1      -4.044  -3.620  25.844  0.00  0.00    +0.211 HD
ENDBRANCH  16   3
ENDBRANCH  15  16
ENDBRANCH  10  11
ENDBRANCH   7  10
TORSDOF 8
ENDMDL
MODEL 9
REMARK VINA RESULT:      -4.0      2.270      4.854
REMARK  Name = 56775516
REMARK  11 active torsions:
REMARK  status: ('A' for Active; 'I' for Inactive)
REMARK    1  A    between atoms: O_3  and  C_16
REMARK    2  A    between atoms: O_4  and  C_21
REMARK    3  A    between atoms: O_4  and  C_24
REMARK    4  A    between atoms: N_5  and  C_7
REMARK    5  A    between atoms: N_5  and  C_12
REMARK    6  A    between atoms: C_7  and  C_10
REMARK    7  A    between atoms: C_10  and  C_11
REMARK    8  A    between atoms: C_12  and  C_14
REMARK    9  A    between atoms: C_15  and  C_16
REMARK   10  A    between atoms: C_16  and  C_19
REMARK   11  A    between atoms: C_16  and  C_20
REMARK                            x       y       z     vdW  Elec       q    Type
REMARK                         _______ _______ _______ _____ _____    ______ ____
ROOT
ATOM      1  O   UNL     1      -1.728   6.023  25.174  0.00  0.00    -0.376 OA
ATOM      7  C   UNL     1      -1.118   3.983  25.017  0.00  0.00    +0.072 C 
ATOM      8  C   UNL     1      -0.565   5.353  24.638  0.00  0.00    +0.184 C 
ATOM      9  C   UNL     1      -2.266   4.766  25.644  0.00  0.00    +0.184 C 
ENDROOT
BRANCH   7   5
ATOM      5  N   UNL     1      -1.606   3.320  23.805  0.00  0.00    -0.302 NA
ATOM     25  H   UNL     1      -1.356   2.336  23.720  0.00  0.00    +0.123 HD
BRANCH   5  12
ATOM     12  C   UNL     1      -3.061   3.470  23.730  0.00  0.00    +0.117 C 
BRANCH  12  14
ATOM     14  C   UNL     1      -3.780   2.230  24.140  0.00  0.00    -0.030 A 
ATOM     17  C   UNL     1      -3.487   1.016  23.520  0.00  0.00    +0.050 A 
ATOM     18  C   UNL     1      -4.749   2.285  25.142  0.00  0.00    +0.005 A 
ATOM     21  C   UNL     1      -4.160  -0.144  23.903  0.00  0.00    +0.120 A 
ATOM     22  C   UNL     1      -5.423   1.125  25.525  0.00  0.00    +0.004 A 
ATOM     23  C   UNL     1      -5.129  -0.089  24.905  0.00  0.00    +0.045 A 
BRANCH  21   4
ATOM      4  O   UNL     1      -3.874  -1.329  23.297  0.00  0.00    -0.495 OA
ATOM     24  C   UNL     1      -4.657  -2.459  23.679  0.00  0.00    +0.277 C 
ENDBRANCH  21   4
ENDBRANCH  12  14
ENDBRANCH   5  12
ENDBRANCH   7   5
BRANCH   7  10
ATOM     10  C   UNL     1      -0.296   3.082  25.885  0.00  0.00    +0.085 C 
BRANCH  10  11
ATOM      2  O   UNL     1       0.109   0.005  24.036  0.00  0.00    -0.356 OA
ATOM      6  N   UNL     1       0.323   1.364  24.223  0.00  0.00    -0.083 NA
ATOM     11  C   UNL     1      -0.315   1.662  25.358  0.00  0.00    +0.086 A 
ATOM     13  C   UNL     1      -0.944   0.541  25.926  0.00  0.00    +0.074 A 
ATOM     15  C   UNL     1      -0.647  -0.475  25.055  0.00  0.00    +0.168 A 
BRANCH  15  16
ATOM     16  C   UNL     1      -0.971  -1.906  25.016  0.00  0.00    +0.120 C 
ATOM     19  C   UNL     1      -2.229  -2.268  25.858  0.00  0.00    +0.049 C 
ATOM     20  C   UNL     1       0.208  -2.808  25.485  0.00  0.00    +0.049 C 
BRANCH  16   3
ATOM      3  O   UNL     1      -1.280  -2.372  23.673  0.00  0.00    -0.381 OA
ATOM     26  H   UNL     1      -0.800  -1.813  23.039  0.00  0.00    +0.211 HD
ENDBRANCH  16   3
ENDBRANCH  15  16
ENDBRANCH  10  11
ENDBRANCH   7  10
TORSDOF 8
ENDMDL
MODEL 10
REMARK VINA RESULT:      -4.0      2.007      5.504
REMARK  Name = 56775516
REMARK  11 active torsions:
REMARK  status: ('A' for Active; 'I' for Inactive)
REMARK    1  A    between atoms: O_3  and  C_16
REMARK    2  A    between atoms: O_4  and  C_21
REMARK    3  A    between atoms: O_4  and  C_24
REMARK    4  A    between atoms: N_5  and  C_7
REMARK    5  A    between atoms: N_5  and  C_12
REMARK    6  A    between atoms: C_7  and  C_10
REMARK    7  A    between atoms: C_10  and  C_11
REMARK    8  A    between atoms: C_12  and  C_14
REMARK    9  A    between atoms: C_15  and  C_16
REMARK   10  A    between atoms: C_16  and  C_19
REMARK   11  A    between atoms: C_16  and  C_20
REMARK                            x       y       z     vdW  Elec       q    Type
REMARK                         _______ _______ _______ _____ _____    ______ ____
ROOT
ATOM      1  O   UNL     1      -6.680   4.404  25.968  0.00  0.00    -0.376 OA
ATOM      7  C   UNL     1      -4.928   3.402  25.271  0.00  0.00    +0.072 C 
ATOM      8  C   UNL     1      -6.352   3.027  25.668  0.00  0.00    +0.184 C 
ATOM      9  C   UNL     1      -5.377   4.838  25.517  0.00  0.00    +0.184 C 
ENDROOT
BRANCH   7   5
ATOM      5  N   UNL     1      -4.018   3.001  26.346  0.00  0.00    -0.302 NA
ATOM     25  H   UNL     1      -3.512   2.132  26.183  0.00  0.00    +0.123 HD
BRANCH   5  12
ATOM     12  C   UNL     1      -3.068   4.086  26.599  0.00  0.00    +0.117 C 
BRANCH  12  14
ATOM     14  C   UNL     1      -1.862   3.999  25.726  0.00  0.00    -0.030 A 
ATOM     17  C   UNL     1      -1.107   2.828  25.694  0.00  0.00    +0.050 A 
ATOM     18  C   UNL     1      -1.488   5.092  24.943  0.00  0.00    +0.005 A 
ATOM     21  C   UNL     1       0.021   2.747  24.878  0.00  0.00    +0.120 A 
ATOM     22  C   UNL     1      -0.360   5.012  24.128  0.00  0.00    +0.004 A 
ATOM     23  C   UNL     1       0.395   3.839  24.095  0.00  0.00    +0.045 A 
BRANCH  21   4
ATOM      4  O   UNL     1       0.758   1.604  24.848  0.00  0.00    -0.495 OA
ATOM     24  C   UNL     1       0.742   0.852  23.635  0.00  0.00    +0.277 C 
ENDBRANCH  21   4
ENDBRANCH  12  14
ENDBRANCH   5  12
ENDBRANCH   7   5
BRANCH   7  10
ATOM     10  C   UNL     1      -4.430   3.021  23.911  0.00  0.00    +0.085 C 
BRANCH  10  11
ATOM      2  O   UNL     1      -2.439   0.045  23.428  0.00  0.00    -0.356 OA
ATOM      6  N   UNL     1      -2.746   1.375  23.169  0.00  0.00    -0.083 NA
ATOM     11  C   UNL     1      -3.810   1.639  23.932  0.00  0.00    +0.086 A 
ATOM     13  C   UNL     1      -4.215   0.524  24.687  0.00  0.00    +0.074 A 
ATOM     15  C   UNL     1      -3.321  -0.451  24.333  0.00  0.00    +0.168 A 
BRANCH  15  16
ATOM     16  C   UNL     1      -3.141  -1.855  24.723  0.00  0.00    +0.120 C 
ATOM     19  C   UNL     1      -1.674  -2.349  24.557  0.00  0.00    +0.049 C 
ATOM     20  C   UNL     1      -4.076  -2.826  23.944  0.00  0.00    +0.049 C 
BRANCH  16   3
ATOM      3  O   UNL     1      -3.452  -2.089  26.125  0.00  0.00    -0.381 OA
ATOM     26  H   UNL     1      -3.276  -1.269  26.617  0.00  0.00    +0.211 HD
ENDBRANCH  16   3
ENDBRANCH  15  16
ENDBRANCH  10  11
ENDBRANCH   7  10
TORSDOF 8
ENDMDL
