MODEL 1
REMARK VINA RESULT:      -2.7      0.000      0.000
REMARK  Name = 26743151
REMARK  10 active torsions:
REMARK  status: ('A' for Active; 'I' for Inactive)
REMARK    1  A    between atoms: O_3  and  C_21
REMARK    2  A    between atoms: O_3  and  C_27
REMARK    3  A    between atoms: N_5  and  C_17
REMARK    4  A    between atoms: N_5  and  C_19
REMARK    5  A    between atoms: C_7  and  C_12
REMARK    6  A    between atoms: C_8  and  C_13
REMARK    7  A    between atoms: C_12  and  C_15
REMARK    8  A    between atoms: C_13  and  C_14
REMARK    9  A    between atoms: C_17  and  C_20
REMARK   10  A    between atoms: C_18  and  C_21
REMARK                            x       y       z     vdW  Elec       q    Type
REMARK                         _______ _______ _______ _____ _____    ______ ____
ROOT
ATOM      4  N   UNL     1      -3.620  -3.653  24.831  0.00  0.00    -0.316 NA
ATOM      7  C   UNL     1      -3.602  -0.826  23.982  0.00  0.00    +0.004 C 
ATOM      8  C   UNL     1      -2.583  -1.403  24.994  0.00  0.00    +0.012 C 
ATOM      9  C   UNL     1      -4.131  -1.969  23.098  0.00  0.00    +0.019 C 
ATOM     10  C   UNL     1      -3.155  -2.614  25.750  0.00  0.00    +0.085 C 
ATOM     11  C   UNL     1      -4.645  -3.152  23.917  0.00  0.00    +0.081 C 
ATOM     33  H   UNL     1      -3.999  -4.433  25.367  0.00  0.00    +0.122 HD
ENDROOT
BRANCH   7  12
ATOM     12  C   UNL     1      -4.759  -0.059  24.632  0.00  0.00    +0.100 C 
BRANCH  12  15
ATOM      1  O   UNL     1      -3.876   1.927  23.621  0.00  0.00    -0.276 OA
ATOM      5  N   UNL     1      -5.337   2.222  25.397  0.00  0.00    -0.300 N 
ATOM     15  C   UNL     1      -4.607   1.446  24.491  0.00  0.00    +0.216 C 
ATOM     19  C   UNL     1      -6.195   1.632  26.418  0.00  0.00    +0.132 C 
BRANCH   5  17
ATOM     17  C   UNL     1      -5.295   3.682  25.390  0.00  0.00    +0.142 C 
BRANCH  17  20
ATOM     20  C   UNL     1      -3.894   4.205  25.275  0.00  0.00    -0.030 A 
ATOM     22  C   UNL     1      -2.954   3.903  26.261  0.00  0.00    +0.005 A 
ATOM     23  C   UNL     1      -3.530   4.991  24.182  0.00  0.00    +0.005 A 
ATOM     24  C   UNL     1      -1.651   4.389  26.154  0.00  0.00    +0.000 A 
ATOM     25  C   UNL     1      -2.227   5.476  24.075  0.00  0.00    +0.000 A 
ATOM     26  C   UNL     1      -1.287   5.175  25.061  0.00  0.00    +0.000 A 
ENDBRANCH  17  20
ENDBRANCH   5  17
ENDBRANCH  12  15
ENDBRANCH   7  12
BRANCH   8  13
ATOM     13  C   UNL     1      -2.056  -0.356  25.977  0.00  0.00    +0.064 C 
BRANCH  13  14
ATOM      2  O   UNL     1       0.548   2.006  25.203  0.00  0.00    -0.356 OA
ATOM      6  N   UNL     1      -0.457   1.508  26.024  0.00  0.00    -0.083 NA
ATOM     14  C   UNL     1      -0.938   0.445  25.375  0.00  0.00    +0.084 A 
ATOM     16  C   UNL     1      -0.283   0.226  24.150  0.00  0.00    +0.074 A 
ATOM     18  C   UNL     1       0.643   1.234  24.092  0.00  0.00    +0.175 A 
BRANCH  18  21
ATOM     21  C   UNL     1       1.663   1.621  23.110  0.00  0.00    +0.306 C 
BRANCH  21   3
ATOM      3  O   UNL     1       2.242   0.459  22.510  0.00  0.00    -0.484 OA
BRANCH   3  27
ATOM     27  C   UNL     1       3.438   0.042  23.022  0.00  0.00    +0.121 A 
ATOM     28  C   UNL     1       3.581  -1.268  23.482  0.00  0.00    +0.045 A 
ATOM     29  C   UNL     1       4.517   0.924  23.085  0.00  0.00    +0.045 A 
ATOM     30  C   UNL     1       4.801  -1.695  24.005  0.00  0.00    +0.004 A 
ATOM     31  C   UNL     1       5.737   0.497  23.607  0.00  0.00    +0.004 A 
ATOM     32  C   UNL     1       5.879  -0.813  24.067  0.00  0.00    +0.000 A 
ENDBRANCH   3  27
ENDBRANCH  21   3
ENDBRANCH  18  21
ENDBRANCH  13  14
ENDBRANCH   8  13
TORSDOF 9
ENDMDL
MODEL 2
REMARK VINA RESULT:      -2.2      1.588      6.934
REMARK  Name = 26743151
REMARK  10 active torsions:
REMARK  status: ('A' for Active; 'I' for Inactive)
REMARK    1  A    between atoms: O_3  and  C_21
REMARK    2  A    between atoms: O_3  and  C_27
REMARK    3  A    between atoms: N_5  and  C_17
REMARK    4  A    between atoms: N_5  and  C_19
REMARK    5  A    between atoms: C_7  and  C_12
REMARK    6  A    between atoms: C_8  and  C_13
REMARK    7  A    between atoms: C_12  and  C_15
REMARK    8  A    between atoms: C_13  and  C_14
REMARK    9  A    between atoms: C_17  and  C_20
REMARK   10  A    between atoms: C_18  and  C_21
REMARK                            x       y       z     vdW  Elec       q    Type
REMARK                         _______ _______ _______ _____ _____    ______ ____
ROOT
ATOM      4  N   UNL     1      -1.698  -3.322  25.326  0.00  0.00    -0.316 NA
ATOM      7  C   UNL     1      -1.523  -0.433  24.747  0.00  0.00    +0.004 C 
ATOM      8  C   UNL     1      -2.852  -1.224  24.669  0.00  0.00    +0.012 C 
ATOM      9  C   UNL     1      -0.563  -1.161  25.702  0.00  0.00    +0.019 C 
ATOM     10  C   UNL     1      -2.611  -2.711  24.359  0.00  0.00    +0.085 C 
ATOM     11  C   UNL     1      -0.405  -2.641  25.358  0.00  0.00    +0.081 C 
ATOM     33  H   UNL     1      -1.556  -4.302  25.083  0.00  0.00    +0.122 HD
ENDROOT
BRANCH   7  12
ATOM     12  C   UNL     1      -0.861  -0.193  23.385  0.00  0.00    +0.100 C 
BRANCH  12  15
ATOM      1  O   UNL     1       0.545   1.468  24.390  0.00  0.00    -0.276 OA
ATOM      5  N   UNL     1       1.398   0.358  22.541  0.00  0.00    -0.300 N 
ATOM     15  C   UNL     1       0.414   0.625  23.498  0.00  0.00    +0.216 C 
ATOM     19  C   UNL     1       1.221  -0.643  21.495  0.00  0.00    +0.132 C 
BRANCH   5  17
ATOM     17  C   UNL     1       2.678   1.061  22.515  0.00  0.00    +0.142 C 
BRANCH  17  20
ATOM     20  C   UNL     1       3.781   0.244  23.122  0.00  0.00    -0.030 A 
ATOM     22  C   UNL     1       5.031   0.821  23.350  0.00  0.00    +0.005 A 
ATOM     23  C   UNL     1       3.557  -1.090  23.457  0.00  0.00    +0.005 A 
ATOM     24  C   UNL     1       6.056   0.062  23.914  0.00  0.00    +0.000 A 
ATOM     25  C   UNL     1       4.582  -1.849  24.021  0.00  0.00    +0.000 A 
ATOM     26  C   UNL     1       5.832  -1.273  24.250  0.00  0.00    +0.000 A 
ENDBRANCH  17  20
ENDBRANCH   5  17
ENDBRANCH  12  15
ENDBRANCH   7  12
BRANCH   8  13
ATOM     13  C   UNL     1      -3.849  -0.624  23.677  0.00  0.00    +0.064 C 
BRANCH  13  14
ATOM      2  O   UNL     1      -4.146   2.964  23.719  0.00  0.00    -0.356 OA
ATOM      6  N   UNL     1      -3.736   1.770  23.136  0.00  0.00    -0.083 NA
ATOM     14  C   UNL     1      -4.128   0.818  23.988  0.00  0.00    +0.084 A 
ATOM     16  C   UNL     1      -4.783   1.347  25.115  0.00  0.00    +0.074 A 
ATOM     18  C   UNL     1      -4.768   2.698  24.895  0.00  0.00    +0.175 A 
BRANCH  18  21
ATOM     21  C   UNL     1      -5.267   3.856  25.648  0.00  0.00    +0.306 C 
BRANCH  21   3
ATOM      3  O   UNL     1      -4.259   4.342  26.538  0.00  0.00    -0.484 OA
BRANCH   3  27
ATOM     27  C   UNL     1      -2.978   4.351  26.061  0.00  0.00    +0.121 A 
ATOM     28  C   UNL     1      -2.524   5.433  25.305  0.00  0.00    +0.045 A 
ATOM     29  C   UNL     1      -2.125   3.280  26.328  0.00  0.00    +0.045 A 
ATOM     30  C   UNL     1      -1.216   5.444  24.818  0.00  0.00    +0.004 A 
ATOM     31  C   UNL     1      -0.819   3.291  25.841  0.00  0.00    +0.004 A 
ATOM     32  C   UNL     1      -0.365   4.373  25.086  0.00  0.00    +0.000 A 
ENDBRANCH   3  27
ENDBRANCH  21   3
ENDBRANCH  18  21
ENDBRANCH  13  14
ENDBRANCH   8  13
TORSDOF 9
ENDMDL
