MODEL 1
REMARK VINA RESULT:      -3.4      0.000      0.000
REMARK  Name = 45784343
REMARK  4 active torsions:
REMARK  status: ('A' for Active; 'I' for Inactive)
REMARK    1  A    between atoms: N_3  and  C_9
REMARK    2  A    between atoms: C_5  and  C_10
REMARK    3  A    between atoms: C_9  and  C_11
REMARK    4  A    between atoms: C_12  and  C_17
REMARK                            x       y       z     vdW  Elec       q    Type
REMARK                         _______ _______ _______ _____ _____    ______ ____
ROOT
ATOM      3  N   UNL     1       0.828  -0.496  23.781  0.00  0.00    -0.297 NA
ATOM      5  C   UNL     1      -0.971   0.124  25.151  0.00  0.00    +0.090 C 
ATOM      6  C   UNL     1       0.175   0.703  24.312  0.00  0.00    +0.097 C 
ATOM      7  C   UNL     1      -1.247  -1.258  24.534  0.00  0.00    +0.029 C 
ATOM      8  C   UNL     1      -0.270  -1.373  23.371  0.00  0.00    +0.085 C 
ENDROOT
BRANCH   5  10
ATOM      1  F   UNL     1      -6.305   4.983  25.549  0.00  0.00    -0.205 F 
ATOM      2  O   UNL     1      -3.389   0.435  25.106  0.00  0.00    -0.439 OA
ATOM      4  N   UNL     1      -2.197   2.346  25.373  0.00  0.00    -0.213 NA
ATOM     10  C   UNL     1      -2.172   1.040  25.219  0.00  0.00    +0.201 A 
ATOM     13  C   UNL     1      -3.539   2.639  25.364  0.00  0.00    +0.112 A 
ATOM     14  C   UNL     1      -4.272   1.473  25.200  0.00  0.00    +0.156 A 
ATOM     18  C   UNL     1      -4.223   3.857  25.485  0.00  0.00    +0.070 A 
ATOM     19  C   UNL     1      -5.659   1.410  25.146  0.00  0.00    +0.051 A 
ATOM     22  C   UNL     1      -5.624   3.835  25.435  0.00  0.00    +0.126 A 
ATOM     23  C   UNL     1      -6.326   2.633  25.269  0.00  0.00    +0.042 A 
ENDBRANCH   5  10
BRANCH   3   9
ATOM      9  C   UNL     1       1.736  -0.195  22.684  0.00  0.00    +0.119 C 
BRANCH   9  11
ATOM     11  C   UNL     1       3.178  -0.294  23.106  0.00  0.00    -0.030 A 
ATOM     12  C   UNL     1       4.038   0.796  22.982  0.00  0.00    -0.046 A 
ATOM     15  C   UNL     1       3.649  -1.499  23.628  0.00  0.00    +0.005 A 
ATOM     16  C   UNL     1       5.371   0.682  23.379  0.00  0.00    +0.003 A 
ATOM     17  C   UNL     1       3.556   2.095  22.426  0.00  0.00    +0.044 C 
ATOM     20  C   UNL     1       4.981  -1.613  24.025  0.00  0.00    +0.000 A 
ATOM     21  C   UNL     1       5.842  -0.523  23.900  0.00  0.00    +0.000 A 
ENDBRANCH   9  11
ENDBRANCH   3   9
TORSDOF 3
ENDMDL
MODEL 2
REMARK VINA RESULT:      -2.1      3.364      7.692
REMARK  Name = 45784343
REMARK  4 active torsions:
REMARK  status: ('A' for Active; 'I' for Inactive)
REMARK    1  A    between atoms: N_3  and  C_9
REMARK    2  A    between atoms: C_5  and  C_10
REMARK    3  A    between atoms: C_9  and  C_11
REMARK    4  A    between atoms: C_12  and  C_17
REMARK                            x       y       z     vdW  Elec       q    Type
REMARK                         _______ _______ _______ _____ _____    ______ ____
ROOT
ATOM      3  N   UNL     1      -2.961   0.124  24.270  0.00  0.00    -0.297 NA
ATOM      5  C   UNL     1      -0.918  -0.972  23.919  0.00  0.00    +0.090 C 
ATOM      6  C   UNL     1      -1.788   0.179  23.395  0.00  0.00    +0.097 C 
ATOM      7  C   UNL     1      -1.358  -1.158  25.382  0.00  0.00    +0.029 C 
ATOM      8  C   UNL     1      -2.422  -0.093  25.613  0.00  0.00    +0.085 C 
ENDROOT
BRANCH   5  10
ATOM      1  F   UNL     1       6.252  -0.377  23.251  0.00  0.00    -0.205 F 
ATOM      2  O   UNL     1       0.899   0.472  23.174  0.00  0.00    -0.439 OA
ATOM      4  N   UNL     1       1.566  -1.521  24.024  0.00  0.00    -0.213 NA
ATOM     10  C   UNL     1       0.561  -0.727  23.727  0.00  0.00    +0.201 A 
ATOM     13  C   UNL     1       2.667  -0.795  23.639  0.00  0.00    +0.112 A 
ATOM     14  C   UNL     1       2.263   0.426  23.118  0.00  0.00    +0.156 A 
ATOM     18  C   UNL     1       4.037  -1.087  23.692  0.00  0.00    +0.070 A 
ATOM     19  C   UNL     1       3.123   1.404  22.634  0.00  0.00    +0.051 A 
ATOM     22  C   UNL     1       4.936  -0.125  23.212  0.00  0.00    +0.126 A 
ATOM     23  C   UNL     1       4.486   1.096  22.695  0.00  0.00    +0.042 A 
ENDBRANCH   5  10
BRANCH   3   9
ATOM      9  C   UNL     1      -3.773   1.329  24.187  0.00  0.00    +0.119 C 
BRANCH   9  11
ATOM     11  C   UNL     1      -3.011   2.551  24.629  0.00  0.00    -0.030 A 
ATOM     12  C   UNL     1      -3.613   3.521  25.429  0.00  0.00    -0.046 A 
ATOM     15  C   UNL     1      -1.684   2.703  24.226  0.00  0.00    +0.005 A 
ATOM     16  C   UNL     1      -2.888   4.645  25.826  0.00  0.00    +0.003 A 
ATOM     17  C   UNL     1      -5.032   3.380  25.872  0.00  0.00    +0.044 C 
ATOM     20  C   UNL     1      -0.959   3.827  24.624  0.00  0.00    +0.000 A 
ATOM     21  C   UNL     1      -1.562   4.797  25.423  0.00  0.00    +0.000 A 
ENDBRANCH   9  11
ENDBRANCH   3   9
TORSDOF 3
ENDMDL
MODEL 3
REMARK VINA RESULT:      -2.0      3.405      8.561
REMARK  Name = 45784343
REMARK  4 active torsions:
REMARK  status: ('A' for Active; 'I' for Inactive)
REMARK    1  A    between atoms: N_3  and  C_9
REMARK    2  A    between atoms: C_5  and  C_10
REMARK    3  A    between atoms: C_9  and  C_11
REMARK    4  A    between atoms: C_12  and  C_17
REMARK                            x       y       z     vdW  Elec       q    Type
REMARK                         _______ _______ _______ _____ _____    ______ ____
ROOT
ATOM      3  N   UNL     1      -2.000   1.387  23.558  0.00  0.00    -0.297 NA
ATOM      5  C   UNL     1      -0.145   0.031  23.090  0.00  0.00    +0.090 C 
ATOM      6  C   UNL     1      -0.689   1.454  22.908  0.00  0.00    +0.097 C 
ATOM      7  C   UNL     1      -0.881  -0.514  24.327  0.00  0.00    +0.029 C 
ATOM      8  C   UNL     1      -1.772   0.632  24.790  0.00  0.00    +0.085 C 
ENDROOT
BRANCH   5  10
ATOM      1  F   UNL     1       7.069   0.399  23.288  0.00  0.00    -0.205 F 
ATOM      2  O   UNL     1       1.897  -1.186  23.632  0.00  0.00    -0.439 OA
ATOM      4  N   UNL     1       2.230   0.924  22.872  0.00  0.00    -0.213 NA
ATOM     10  C   UNL     1       1.363  -0.016  23.177  0.00  0.00    +0.201 A 
ATOM     13  C   UNL     1       3.442   0.337  23.143  0.00  0.00    +0.112 A 
ATOM     14  C   UNL     1       3.242  -0.954  23.609  0.00  0.00    +0.156 A 
ATOM     18  C   UNL     1       4.754   0.820  23.027  0.00  0.00    +0.070 A 
ATOM     19  C   UNL     1       4.257  -1.829  23.977  0.00  0.00    +0.051 A 
ATOM     22  C   UNL     1       5.805  -0.034  23.389  0.00  0.00    +0.126 A 
ATOM     23  C   UNL     1       5.559  -1.332  23.855  0.00  0.00    +0.042 A 
ENDBRANCH   5  10
BRANCH   3   9
ATOM      9  C   UNL     1      -2.563   2.704  23.811  0.00  0.00    +0.119 C 
BRANCH   9  11
ATOM     11  C   UNL     1      -3.850   2.625  24.588  0.00  0.00    -0.030 A 
ATOM     12  C   UNL     1      -4.076   3.451  25.689  0.00  0.00    -0.046 A 
ATOM     15  C   UNL     1      -4.824   1.708  24.193  0.00  0.00    +0.005 A 
ATOM     16  C   UNL     1      -5.275   3.360  26.395  0.00  0.00    +0.003 A 
ATOM     17  C   UNL     1      -3.047   4.439  26.131  0.00  0.00    +0.044 C 
ATOM     20  C   UNL     1      -6.025   1.618  24.898  0.00  0.00    +0.000 A 
ATOM     21  C   UNL     1      -6.249   2.443  25.999  0.00  0.00    +0.000 A 
ENDBRANCH   9  11
ENDBRANCH   3   9
TORSDOF 3
ENDMDL
MODEL 4
REMARK VINA RESULT:      -1.6      3.348      7.411
REMARK  Name = 45784343
REMARK  4 active torsions:
REMARK  status: ('A' for Active; 'I' for Inactive)
REMARK    1  A    between atoms: N_3  and  C_9
REMARK    2  A    between atoms: C_5  and  C_10
REMARK    3  A    between atoms: C_9  and  C_11
REMARK    4  A    between atoms: C_12  and  C_17
REMARK                            x       y       z     vdW  Elec       q    Type
REMARK                         _______ _______ _______ _____ _____    ______ ____
ROOT
ATOM      3  N   UNL     1      -3.767   1.604  25.292  0.00  0.00    -0.297 NA
ATOM      5  C   UNL     1      -1.561   2.245  24.825  0.00  0.00    +0.090 C 
ATOM      6  C   UNL     1      -2.396   1.108  25.430  0.00  0.00    +0.097 C 
ATOM      7  C   UNL     1      -2.520   2.965  23.861  0.00  0.00    +0.029 C 
ATOM      8  C   UNL     1      -3.826   2.185  23.950  0.00  0.00    +0.085 C 
ENDROOT
BRANCH   5  10
ATOM      1  F   UNL     1       4.887   0.381  22.148  0.00  0.00    -0.205 F 
ATOM      2  O   UNL     1      -0.391   0.709  23.336  0.00  0.00    -0.439 OA
ATOM      4  N   UNL     1       0.945   2.219  24.372  0.00  0.00    -0.213 NA
ATOM     10  C   UNL     1      -0.274   1.760  24.197  0.00  0.00    +0.201 A 
ATOM     13  C   UNL     1       1.707   1.412  23.562  0.00  0.00    +0.112 A 
ATOM     14  C   UNL     1       0.892   0.486  22.927  0.00  0.00    +0.156 A 
ATOM     18  C   UNL     1       3.085   1.390  23.306  0.00  0.00    +0.070 A 
ATOM     19  C   UNL     1       1.339  -0.483  22.036  0.00  0.00    +0.051 A 
ATOM     22  C   UNL     1       3.574   0.426  22.413  0.00  0.00    +0.126 A 
ATOM     23  C   UNL     1       2.716  -0.491  21.792  0.00  0.00    +0.042 A 
ENDBRANCH   5  10
BRANCH   3   9
ATOM      9  C   UNL     1      -4.759   0.557  25.486  0.00  0.00    +0.119 C 
BRANCH   9  11
ATOM     11  C   UNL     1      -4.271  -0.777  24.987  0.00  0.00    -0.030 A 
ATOM     12  C   UNL     1      -3.472  -1.594  25.787  0.00  0.00    -0.046 A 
ATOM     15  C   UNL     1      -4.630  -1.193  23.705  0.00  0.00    +0.005 A 
ATOM     16  C   UNL     1      -3.031  -2.826  25.304  0.00  0.00    +0.003 A 
ATOM     17  C   UNL     1      -3.075  -1.169  27.162  0.00  0.00    +0.044 C 
ATOM     20  C   UNL     1      -4.190  -2.426  23.223  0.00  0.00    +0.000 A 
ATOM     21  C   UNL     1      -3.390  -3.242  24.022  0.00  0.00    +0.000 A 
ENDBRANCH   9  11
ENDBRANCH   3   9
TORSDOF 3
ENDMDL
MODEL 5
REMARK VINA RESULT:      -0.8      3.467      8.722
REMARK  Name = 45784343
REMARK  4 active torsions:
REMARK  status: ('A' for Active; 'I' for Inactive)
REMARK    1  A    between atoms: N_3  and  C_9
REMARK    2  A    between atoms: C_5  and  C_10
REMARK    3  A    between atoms: C_9  and  C_11
REMARK    4  A    between atoms: C_12  and  C_17
REMARK                            x       y       z     vdW  Elec       q    Type
REMARK                         _______ _______ _______ _____ _____    ______ ____
ROOT
ATOM      3  N   UNL     1      -1.577   0.947  24.519  0.00  0.00    -0.297 NA
ATOM      5  C   UNL     1       0.291   0.463  23.188  0.00  0.00    +0.090 C 
ATOM      6  C   UNL     1      -0.227   1.445  24.247  0.00  0.00    +0.097 C 
ATOM      7  C   UNL     1      -0.527  -0.821  23.413  0.00  0.00    +0.029 C 
ATOM      8  C   UNL     1      -1.435  -0.507  24.595  0.00  0.00    +0.085 C 
ENDROOT
BRANCH   5  10
ATOM      1  F   UNL     1       7.511   0.184  23.268  0.00  0.00    -0.205 F 
ATOM      2  O   UNL     1       2.224  -0.969  23.585  0.00  0.00    -0.439 OA
ATOM      4  N   UNL     1       2.733   1.161  22.997  0.00  0.00    -0.213 NA
ATOM     10  C   UNL     1       1.790   0.277  23.240  0.00  0.00    +0.201 A 
ATOM     13  C   UNL     1       3.891   0.450  23.193  0.00  0.00    +0.112 A 
ATOM     14  C   UNL     1       3.584  -0.854  23.554  0.00  0.00    +0.156 A 
ATOM     18  C   UNL     1       5.239   0.825  23.090  0.00  0.00    +0.070 A 
ATOM     19  C   UNL     1       4.523  -1.842  23.827  0.00  0.00    +0.051 A 
ATOM     22  C   UNL     1       6.215  -0.144  23.359  0.00  0.00    +0.126 A 
ATOM     23  C   UNL     1       5.862  -1.451  23.720  0.00  0.00    +0.042 A 
ENDBRANCH   5  10
BRANCH   3   9
ATOM      9  C   UNL     1      -2.143   1.513  25.735  0.00  0.00    +0.119 C 
BRANCH   9  11
ATOM     11  C   UNL     1      -3.510   2.099  25.498  0.00  0.00    -0.030 A 
ATOM     12  C   UNL     1      -4.597   1.281  25.190  0.00  0.00    -0.046 A 
ATOM     15  C   UNL     1      -3.679   3.480  25.591  0.00  0.00    +0.005 A 
ATOM     16  C   UNL     1      -5.855   1.846  24.974  0.00  0.00    +0.003 A 
ATOM     17  C   UNL     1      -4.439  -0.200  25.085  0.00  0.00    +0.044 C 
ATOM     20  C   UNL     1      -4.937   4.044  25.376  0.00  0.00    +0.000 A 
ATOM     21  C   UNL     1      -6.024   3.227  25.067  0.00  0.00    +0.000 A 
ENDBRANCH   9  11
ENDBRANCH   3   9
TORSDOF 3
ENDMDL
MODEL 6
REMARK VINA RESULT:       0.1      3.673      7.068
REMARK  Name = 45784343
REMARK  4 active torsions:
REMARK  status: ('A' for Active; 'I' for Inactive)
REMARK    1  A    between atoms: N_3  and  C_9
REMARK    2  A    between atoms: C_5  and  C_10
REMARK    3  A    between atoms: C_9  and  C_11
REMARK    4  A    between atoms: C_12  and  C_17
REMARK                            x       y       z     vdW  Elec       q    Type
REMARK                         _______ _______ _______ _____ _____    ______ ____
ROOT
ATOM      3  N   UNL     1      -0.426   3.637  25.356  0.00  0.00    -0.297 NA
ATOM      5  C   UNL     1      -0.218   1.305  25.242  0.00  0.00    +0.090 C 
ATOM      6  C   UNL     1      -1.139   2.421  25.753  0.00  0.00    +0.097 C 
ATOM      7  C   UNL     1       0.576   1.948  24.092  0.00  0.00    +0.029 C 
ATOM      8  C   UNL     1       0.044   3.373  23.996  0.00  0.00    +0.085 C 
ENDROOT
BRANCH   5  10
ATOM      1  F   UNL     1      -3.240  -5.001  23.419  0.00  0.00    -0.205 F 
ATOM      2  O   UNL     1      -2.325   0.156  24.817  0.00  0.00    -0.439 OA
ATOM      4  N   UNL     1      -0.481  -1.143  24.589  0.00  0.00    -0.213 NA
ATOM     10  C   UNL     1      -0.968   0.046  24.870  0.00  0.00    +0.201 A 
ATOM     13  C   UNL     1      -1.604  -1.890  24.327  0.00  0.00    +0.112 A 
ATOM     14  C   UNL     1      -2.735  -1.098  24.466  0.00  0.00    +0.156 A 
ATOM     18  C   UNL     1      -1.760  -3.236  23.967  0.00  0.00    +0.070 A 
ATOM     19  C   UNL     1      -4.038  -1.539  24.272  0.00  0.00    +0.051 A 
ATOM     22  C   UNL     1      -3.060  -3.719  23.764  0.00  0.00    +0.126 A 
ATOM     23  C   UNL     1      -4.176  -2.884  23.914  0.00  0.00    +0.042 A 
ENDBRANCH   5  10
BRANCH   3   9
ATOM      9  C   UNL     1      -1.267   4.823  25.431  0.00  0.00    +0.119 C 
BRANCH   9  11
ATOM     11  C   UNL     1      -2.726   4.487  25.277  0.00  0.00    -0.030 A 
ATOM     12  C   UNL     1      -3.535   4.271  26.393  0.00  0.00    -0.046 A 
ATOM     15  C   UNL     1      -3.267   4.394  23.995  0.00  0.00    +0.005 A 
ATOM     16  C   UNL     1      -4.884   3.960  26.226  0.00  0.00    +0.003 A 
ATOM     17  C   UNL     1      -2.977   4.365  27.775  0.00  0.00    +0.044 C 
ATOM     20  C   UNL     1      -4.618   4.084  23.828  0.00  0.00    +0.000 A 
ATOM     21  C   UNL     1      -5.425   3.867  24.944  0.00  0.00    +0.000 A 
ENDBRANCH   9  11
ENDBRANCH   3   9
TORSDOF 3
ENDMDL
