MODEL 1
REMARK VINA RESULT:      -2.5      0.000      0.000
REMARK  Name = 75536127
REMARK  9 active torsions:
REMARK  status: ('A' for Active; 'I' for Inactive)
REMARK    1  A    between atoms: O_1  and  C_9
REMARK    2  A    between atoms: O_2  and  C_11
REMARK    3  A    between atoms: N_4  and  C_7
REMARK    4  A    between atoms: N_4  and  C_13
REMARK    5  A    between atoms: N_6  and  C_18
REMARK    6  A    between atoms: C_8  and  C_12
REMARK    7  A    between atoms: C_13  and  C_14
REMARK    8  A    between atoms: C_14  and  C_19
REMARK    9  A    between atoms: C_14  and  C_20
REMARK                            x       y       z     vdW  Elec       q    Type
REMARK                         _______ _______ _______ _____ _____    ______ ____
ROOT
ATOM      7  C   UNL     1      -3.595   1.100  23.908  0.00  0.00    +0.092 C 
ATOM      8  C   UNL     1      -2.539   1.476  24.993  0.00  0.00    +0.042 C 
ATOM      9  C   UNL     1      -4.352   2.405  23.615  0.00  0.00    +0.160 C 
ATOM     10  C   UNL     1      -2.750   2.974  25.284  0.00  0.00    +0.043 C 
ATOM     11  C   UNL     1      -4.204   3.213  24.900  0.00  0.00    +0.145 C 
ENDROOT
BRANCH   8  12
ATOM      5  N   UNL     1       1.171   1.868  24.310  0.00  0.00    -0.240 NA
ATOM     12  C   UNL     1      -1.114   1.138  24.610  0.00  0.00    -0.024 A 
ATOM     15  C   UNL     1      -0.763  -0.148  24.214  0.00  0.00    +0.009 A 
ATOM     16  C   UNL     1      -0.118   2.102  24.641  0.00  0.00    +0.116 A 
ATOM     17  C   UNL     1       0.554  -0.427  23.866  0.00  0.00    +0.044 A 
ATOM     18  C   UNL     1       1.475   0.606  23.931  0.00  0.00    +0.121 A 
BRANCH  18   6
ATOM      3  O   UNL     1       5.358  -0.316  22.608  0.00  0.00    -0.377 OA
ATOM      6  N   UNL     1       2.795   0.311  23.577  0.00  0.00    -0.311 N 
ATOM     21  C   UNL     1       3.496   1.237  22.677  0.00  0.00    +0.134 C 
ATOM     22  C   UNL     1       3.239  -1.085  23.505  0.00  0.00    +0.134 C 
ATOM     23  C   UNL     1       5.003   1.050  22.818  0.00  0.00    +0.178 C 
ATOM     24  C   UNL     1       4.760  -1.150  23.600  0.00  0.00    +0.178 C 
ENDBRANCH  18   6
ENDBRANCH   8  12
BRANCH   9   1
ATOM      1  O   UNL     1      -3.707   3.064  22.526  0.00  0.00    -0.388 OA
ATOM     26  H   UNL     1      -2.753   3.079  22.719  0.00  0.00    +0.210 HD
ENDBRANCH   9   1
BRANCH  11   2
ATOM      2  O   UNL     1      -4.468   4.588  24.711  0.00  0.00    -0.389 OA
ATOM     27  H   UNL     1      -3.794   5.087  25.204  0.00  0.00    +0.210 HD
ENDBRANCH  11   2
BRANCH   7   4
ATOM      4  N   UNL     1      -4.517   0.099  24.448  0.00  0.00    -0.310 NA
ATOM     25  H   UNL     1      -5.474   0.381  24.235  0.00  0.00    +0.122 HD
BRANCH   4  13
ATOM     13  C   UNL     1      -4.266  -1.210  23.864  0.00  0.00    +0.084 C 
BRANCH  13  14
ATOM     14  C   UNL     1      -3.726  -2.219  24.892  0.00  0.00    -0.003 C 
ATOM     19  C   UNL     1      -2.483  -2.913  24.331  0.00  0.00    +0.008 C 
ATOM     20  C   UNL     1      -3.388  -1.566  26.234  0.00  0.00    +0.008 C 
ENDBRANCH  13  14
ENDBRANCH   4  13
ENDBRANCH   7   4
TORSDOF 7
ENDMDL
MODEL 2
REMARK VINA RESULT:      -2.3     15.953     19.085
REMARK  Name = 75536127
REMARK  9 active torsions:
REMARK  status: ('A' for Active; 'I' for Inactive)
REMARK    1  A    between atoms: O_1  and  C_9
REMARK    2  A    between atoms: O_2  and  C_11
REMARK    3  A    between atoms: N_4  and  C_7
REMARK    4  A    between atoms: N_4  and  C_13
REMARK    5  A    between atoms: N_6  and  C_18
REMARK    6  A    between atoms: C_8  and  C_12
REMARK    7  A    between atoms: C_13  and  C_14
REMARK    8  A    between atoms: C_14  and  C_19
REMARK    9  A    between atoms: C_14  and  C_20
REMARK                            x       y       z     vdW  Elec       q    Type
REMARK                         _______ _______ _______ _____ _____    ______ ____
ROOT
ATOM      7  C   UNL     1      16.310  -7.195  30.387  0.00  0.00    +0.092 C 
ATOM      8  C   UNL     1      14.995  -6.653  29.748  0.00  0.00    +0.042 C 
ATOM      9  C   UNL     1      17.042  -5.951  30.915  0.00  0.00    +0.160 C 
ATOM     10  C   UNL     1      15.041  -5.122  29.923  0.00  0.00    +0.043 C 
ATOM     11  C   UNL     1      16.528  -4.819  30.030  0.00  0.00    +0.145 C 
ENDROOT
BRANCH   8  12
ATOM      5  N   UNL     1      11.490  -6.991  31.158  0.00  0.00    -0.240 NA
ATOM     12  C   UNL     1      13.734  -7.279  30.305  0.00  0.00    -0.024 A 
ATOM     15  C   UNL     1      13.635  -8.654  30.486  0.00  0.00    +0.009 A 
ATOM     16  C   UNL     1      12.643  -6.498  30.654  0.00  0.00    +0.116 A 
ATOM     17  C   UNL     1      12.464  -9.199  31.002  0.00  0.00    +0.044 A 
ATOM     18  C   UNL     1      11.430  -8.333  31.320  0.00  0.00    +0.121 A 
BRANCH  18   6
ATOM      3  O   UNL     1       7.852 -10.114  32.627  0.00  0.00    -0.377 OA
ATOM      6  N   UNL     1      10.259  -8.894  31.839  0.00  0.00    -0.311 N 
ATOM     21  C   UNL     1      10.137 -10.358  31.848  0.00  0.00    +0.134 C 
ATOM     22  C   UNL     1       8.991  -8.162  31.743  0.00  0.00    +0.134 C 
ATOM     23  C   UNL     1       9.090 -10.781  32.873  0.00  0.00    +0.178 C 
ATOM     24  C   UNL     1       8.005  -8.702  32.773  0.00  0.00    +0.178 C 
ENDBRANCH  18   6
ENDBRANCH   8  12
BRANCH   9   1
ATOM      1  O   UNL     1      16.657  -5.745  32.274  0.00  0.00    -0.388 OA
ATOM     26  H   UNL     1      16.377  -4.817  32.359  0.00  0.00    +0.210 HD
ENDBRANCH   9   1
BRANCH  11   2
ATOM      2  O   UNL     1      16.755  -3.543  30.594  0.00  0.00    -0.389 OA
ATOM     27  H   UNL     1      17.296  -3.668  31.392  0.00  0.00    +0.210 HD
ENDBRANCH  11   2
BRANCH   7   4
ATOM      4  N   UNL     1      17.120  -7.852  29.360  0.00  0.00    -0.310 NA
ATOM     25  H   UNL     1      17.887  -8.350  29.812  0.00  0.00    +0.122 HD
BRANCH   4  13
ATOM     13  C   UNL     1      16.323  -8.799  28.596  0.00  0.00    +0.084 C 
BRANCH  13  14
ATOM     14  C   UNL     1      16.522  -8.646  27.078  0.00  0.00    -0.003 C 
ATOM     19  C   UNL     1      15.476  -9.478  26.333  0.00  0.00    +0.008 C 
ATOM     20  C   UNL     1      16.443  -7.189  26.619  0.00  0.00    +0.008 C 
ENDBRANCH  13  14
ENDBRANCH   4  13
ENDBRANCH   7   4
TORSDOF 7
ENDMDL
MODEL 3
REMARK VINA RESULT:      -1.9      2.117      3.681
REMARK  Name = 75536127
REMARK  9 active torsions:
REMARK  status: ('A' for Active; 'I' for Inactive)
REMARK    1  A    between atoms: O_1  and  C_9
REMARK    2  A    between atoms: O_2  and  C_11
REMARK    3  A    between atoms: N_4  and  C_7
REMARK    4  A    between atoms: N_4  and  C_13
REMARK    5  A    between atoms: N_6  and  C_18
REMARK    6  A    between atoms: C_8  and  C_12
REMARK    7  A    between atoms: C_13  and  C_14
REMARK    8  A    between atoms: C_14  and  C_19
REMARK    9  A    between atoms: C_14  and  C_20
REMARK                            x       y       z     vdW  Elec       q    Type
REMARK                         _______ _______ _______ _____ _____    ______ ____
ROOT
ATOM      7  C   UNL     1      -3.073   0.873  25.214  0.00  0.00    +0.092 C 
ATOM      8  C   UNL     1      -2.521   0.629  23.775  0.00  0.00    +0.042 C 
ATOM      9  C   UNL     1      -4.086  -0.258  25.452  0.00  0.00    +0.160 C 
ATOM     10  C   UNL     1      -3.255  -0.620  23.249  0.00  0.00    +0.043 C 
ATOM     11  C   UNL     1      -4.549  -0.640  24.049  0.00  0.00    +0.145 C 
ENDROOT
BRANCH   8  12
ATOM      5  N   UNL     1       0.932  -0.888  23.377  0.00  0.00    -0.240 NA
ATOM     12  C   UNL     1      -1.014   0.509  23.706  0.00  0.00    -0.024 A 
ATOM     15  C   UNL     1      -0.196   1.616  23.898  0.00  0.00    +0.009 A 
ATOM     16  C   UNL     1      -0.405  -0.710  23.450  0.00  0.00    +0.116 A 
ATOM     17  C   UNL     1       1.186   1.474  23.830  0.00  0.00    +0.044 A 
ATOM     18  C   UNL     1       1.696   0.212  23.569  0.00  0.00    +0.121 A 
BRANCH  18   6
ATOM      3  O   UNL     1       5.852  -0.231  23.105  0.00  0.00    -0.377 OA
ATOM      6  N   UNL     1       3.087   0.083  23.504  0.00  0.00    -0.311 N 
ATOM     21  C   UNL     1       3.839   1.063  22.709  0.00  0.00    +0.134 C 
ATOM     22  C   UNL     1       3.704  -1.244  23.605  0.00  0.00    +0.134 C 
ATOM     23  C   UNL     1       5.295   1.082  23.159  0.00  0.00    +0.178 C 
ATOM     24  C   UNL     1       5.168  -1.103  24.006  0.00  0.00    +0.178 C 
ENDBRANCH  18   6
ENDBRANCH   8  12
BRANCH   9   1
ATOM      1  O   UNL     1      -3.405  -1.348  26.073  0.00  0.00    -0.388 OA
ATOM     26  H   UNL     1      -4.070  -1.868  26.557  0.00  0.00    +0.210 HD
ENDBRANCH   9   1
BRANCH  11   2
ATOM      2  O   UNL     1      -5.163  -1.911  24.006  0.00  0.00    -0.389 OA
ATOM     27  H   UNL     1      -4.735  -2.466  24.680  0.00  0.00    +0.210 HD
ENDBRANCH  11   2
BRANCH   7   4
ATOM      4  N   UNL     1      -3.752   2.169  25.265  0.00  0.00    -0.310 NA
ATOM     25  H   UNL     1      -3.713   2.525  26.219  0.00  0.00    +0.122 HD
BRANCH   4  13
ATOM     13  C   UNL     1      -3.114   3.126  24.374  0.00  0.00    +0.084 C 
BRANCH  13  14
ATOM     14  C   UNL     1      -2.659   4.399  25.107  0.00  0.00    -0.003 C 
ATOM     19  C   UNL     1      -3.085   4.330  26.575  0.00  0.00    +0.008 C 
ATOM     20  C   UNL     1      -1.147   4.619  25.019  0.00  0.00    +0.008 C 
ENDBRANCH  13  14
ENDBRANCH   4  13
ENDBRANCH   7   4
TORSDOF 7
ENDMDL
MODEL 4
REMARK VINA RESULT:       0.7      1.339      2.045
REMARK  Name = 75536127
REMARK  9 active torsions:
REMARK  status: ('A' for Active; 'I' for Inactive)
REMARK    1  A    between atoms: O_1  and  C_9
REMARK    2  A    between atoms: O_2  and  C_11
REMARK    3  A    between atoms: N_4  and  C_7
REMARK    4  A    between atoms: N_4  and  C_13
REMARK    5  A    between atoms: N_6  and  C_18
REMARK    6  A    between atoms: C_8  and  C_12
REMARK    7  A    between atoms: C_13  and  C_14
REMARK    8  A    between atoms: C_14  and  C_19
REMARK    9  A    between atoms: C_14  and  C_20
REMARK                            x       y       z     vdW  Elec       q    Type
REMARK                         _______ _______ _______ _____ _____    ______ ____
ROOT
ATOM      7  C   UNL     1      -3.298   1.330  23.357  0.00  0.00    +0.092 C 
ATOM      8  C   UNL     1      -2.291   1.796  24.453  0.00  0.00    +0.042 C 
ATOM      9  C   UNL     1      -3.952   2.620  22.838  0.00  0.00    +0.160 C 
ATOM     10  C   UNL     1      -2.426   3.330  24.524  0.00  0.00    +0.043 C 
ATOM     11  C   UNL     1      -3.835   3.590  24.010  0.00  0.00    +0.145 C 
ENDROOT
BRANCH   8  12
ATOM      5  N   UNL     1       1.485   1.875  24.100  0.00  0.00    -0.240 NA
ATOM     12  C   UNL     1      -0.869   1.333  24.221  0.00  0.00    -0.024 A 
ATOM     15  C   UNL     1      -0.586   0.006  23.920  0.00  0.00    +0.009 A 
ATOM     16  C   UNL     1       0.193   2.221  24.298  0.00  0.00    +0.116 A 
ATOM     17  C   UNL     1       0.731  -0.389  23.710  0.00  0.00    +0.044 A 
ATOM     18  C   UNL     1       1.721   0.575  23.811  0.00  0.00    +0.121 A 
BRANCH  18   6
ATOM      3  O   UNL     1       5.628  -0.683  22.896  0.00  0.00    -0.377 OA
ATOM      6  N   UNL     1       3.040   0.164  23.596  0.00  0.00    -0.311 N 
ATOM     21  C   UNL     1       3.918   1.036  22.804  0.00  0.00    +0.134 C 
ATOM     22  C   UNL     1       3.360  -1.266  23.535  0.00  0.00    +0.134 C 
ATOM     23  C   UNL     1       5.377   0.707  23.104  0.00  0.00    +0.178 C 
ATOM     24  C   UNL     1       4.849  -1.474  23.794  0.00  0.00    +0.178 C 
ENDBRANCH  18   6
ENDBRANCH   8  12
BRANCH   9   1
ATOM      1  O   UNL     1      -3.200   3.087  21.719  0.00  0.00    -0.388 OA
ATOM     26  H   UNL     1      -3.562   2.656  20.925  0.00  0.00    +0.210 HD
ENDBRANCH   9   1
BRANCH  11   2
ATOM      2  O   UNL     1      -4.001   4.938  23.619  0.00  0.00    -0.389 OA
ATOM     27  H   UNL     1      -3.716   5.011  22.693  0.00  0.00    +0.210 HD
ENDBRANCH  11   2
BRANCH   7   4
ATOM      4  N   UNL     1      -4.313   0.464  23.960  0.00  0.00    -0.310 NA
ATOM     25  H   UNL     1      -4.051  -0.509  23.807  0.00  0.00    +0.122 HD
BRANCH   4  13
ATOM     13  C   UNL     1      -4.422   0.708  25.391  0.00  0.00    +0.084 C 
BRANCH  13  14
ATOM     14  C   UNL     1      -5.771   1.335  25.780  0.00  0.00    -0.003 C 
ATOM     19  C   UNL     1      -5.541   2.723  26.383  0.00  0.00    +0.008 C 
ATOM     20  C   UNL     1      -6.733   1.442  24.594  0.00  0.00    +0.008 C 
ENDBRANCH  13  14
ENDBRANCH   4  13
ENDBRANCH   7   4
TORSDOF 7
ENDMDL
