MODEL 1
REMARK VINA RESULT:      -5.6      0.000      0.000
REMARK  Name = 28962146
REMARK  13 active torsions:
REMARK  status: ('A' for Active; 'I' for Inactive)
REMARK    1  A    between atoms: O_2  and  C_10
REMARK    2  A    between atoms: O_3  and  C_13
REMARK    3  A    between atoms: O_5  and  C_21
REMARK    4  A    between atoms: O_5  and  C_25
REMARK    5  A    between atoms: N_6  and  C_8
REMARK    6  A    between atoms: N_6  and  C_14
REMARK    7  A    between atoms: N_6  and  C_15
REMARK    8  A    between atoms: N_7  and  C_12
REMARK    9  A    between atoms: C_9  and  C_12
REMARK   10  A    between atoms: C_11  and  C_13
REMARK   11  A    between atoms: C_14  and  C_16
REMARK   12  A    between atoms: C_16  and  C_17
REMARK   13  A    between atoms: C_18  and  C_21
REMARK                            x       y       z     vdW  Elec       q    Type
REMARK                         _______ _______ _______ _____ _____    ______ ____
ROOT
ATOM      1  O   UNL     1      -0.086   1.223  25.812  0.00  0.00    -0.365 OA
ATOM      8  C   UNL     1      -2.132   2.250  25.159  0.00  0.00    +0.118 C 
ATOM      9  C   UNL     1      -1.166   1.095  24.861  0.00  0.00    +0.155 C 
ATOM     10  C   UNL     1      -1.228   3.296  25.796  0.00  0.00    +0.165 C 
ATOM     11  C   UNL     1      -0.296   2.404  26.608  0.00  0.00    +0.174 C 
ENDROOT
BRANCH  10   2
ATOM      2  O   UNL     1      -0.494   4.017  24.816  0.00  0.00    -0.388 OA
ATOM     26  H   UNL     1       0.195   4.524  25.277  0.00  0.00    +0.210 HD
ENDBRANCH  10   2
BRANCH   8   6
ATOM      6  N   UNL     1      -2.933   2.722  24.043  0.00  0.00    -0.297 NA
ATOM     15  C   UNL     1      -3.647   3.953  24.397  0.00  0.00    +0.105 C 
BRANCH   6  14
ATOM     14  C   UNL     1      -3.887   1.694  23.615  0.00  0.00    +0.089 C 
BRANCH  14  16
ATOM     16  C   UNL     1      -4.476   0.957  24.818  0.00  0.00    +0.050 C 
BRANCH  16  17
ATOM     17  C   UNL     1      -4.119  -0.508  24.801  0.00  0.00    -0.046 A 
ATOM     19  C   UNL     1      -4.399  -1.280  23.673  0.00  0.00    +0.003 A 
ATOM     20  C   UNL     1      -3.508  -1.090  25.911  0.00  0.00    +0.003 A 
ATOM     22  C   UNL     1      -4.068  -2.635  23.657  0.00  0.00    +0.000 A 
ATOM     23  C   UNL     1      -3.178  -2.446  25.894  0.00  0.00    +0.000 A 
ATOM     24  C   UNL     1      -3.457  -3.218  24.768  0.00  0.00    +0.000 A 
ENDBRANCH  16  17
ENDBRANCH  14  16
ENDBRANCH   6  14
ENDBRANCH   8   6
BRANCH   9  12
ATOM     12  C   UNL     1      -0.543   1.067  23.470  0.00  0.00    +0.137 C 
BRANCH  12   7
ATOM      4  O   UNL     1       1.434  -0.378  21.930  0.00  0.00    -0.273 OA
ATOM      7  N   UNL     1       0.880   1.210  23.539  0.00  0.00    -0.311 N 
ATOM     18  C   UNL     1       1.763   0.468  22.757  0.00  0.00    +0.239 C 
ATOM     27  H   UNL     1       1.257   1.879  24.203  0.00  0.00    +0.149 HD
BRANCH  18  21
ATOM     21  C   UNL     1       3.208   0.824  23.036  0.00  0.00    +0.255 C 
BRANCH  21   5
ATOM      5  O   UNL     1       4.000  -0.342  23.122  0.00  0.00    -0.374 OA
ATOM     25  C   UNL     1       5.344  -0.045  23.485  0.00  0.00    +0.194 C 
ENDBRANCH  21   5
ENDBRANCH  18  21
ENDBRANCH  12   7
ENDBRANCH   9  12
BRANCH  11  13
ATOM     13  C   UNL     1       1.047   3.016  26.963  0.00  0.00    +0.190 C 
BRANCH  13   3
ATOM      3  O   UNL     1       1.447   2.537  28.237  0.00  0.00    -0.392 OA
ATOM     28  H   UNL     1       0.660   2.153  28.659  0.00  0.00    +0.210 HD
ENDBRANCH  13   3
ENDBRANCH  11  13
TORSDOF 11
ENDMDL
MODEL 2
REMARK VINA RESULT:      -4.8      1.922      4.371
REMARK  Name = 28962146
REMARK  13 active torsions:
REMARK  status: ('A' for Active; 'I' for Inactive)
REMARK    1  A    between atoms: O_2  and  C_10
REMARK    2  A    between atoms: O_3  and  C_13
REMARK    3  A    between atoms: O_5  and  C_21
REMARK    4  A    between atoms: O_5  and  C_25
REMARK    5  A    between atoms: N_6  and  C_8
REMARK    6  A    between atoms: N_6  and  C_14
REMARK    7  A    between atoms: N_6  and  C_15
REMARK    8  A    between atoms: N_7  and  C_12
REMARK    9  A    between atoms: C_9  and  C_12
REMARK   10  A    between atoms: C_11  and  C_13
REMARK   11  A    between atoms: C_14  and  C_16
REMARK   12  A    between atoms: C_16  and  C_17
REMARK   13  A    between atoms: C_18  and  C_21
REMARK                            x       y       z     vdW  Elec       q    Type
REMARK                         _______ _______ _______ _____ _____    ______ ____
ROOT
ATOM      1  O   UNL     1      -2.191  -1.001  23.838  0.00  0.00    -0.365 OA
ATOM      8  C   UNL     1      -1.284   1.050  24.636  0.00  0.00    +0.118 C 
ATOM      9  C   UNL     1      -1.141  -0.045  23.571  0.00  0.00    +0.155 C 
ATOM     10  C   UNL     1      -1.962   0.322  25.787  0.00  0.00    +0.165 C 
ATOM     11  C   UNL     1      -2.907  -0.597  25.021  0.00  0.00    +0.174 C 
ENDROOT
BRANCH  10   2
ATOM      2  O   UNL     1      -1.031  -0.442  26.541  0.00  0.00    -0.388 OA
ATOM     26  H   UNL     1      -0.761   0.095  27.306  0.00  0.00    +0.210 HD
ENDBRANCH  10   2
BRANCH   8   6
ATOM      6  N   UNL     1      -0.071   1.768  24.986  0.00  0.00    -0.297 NA
ATOM     15  C   UNL     1      -0.011   2.017  26.430  0.00  0.00    +0.105 C 
BRANCH   6  14
ATOM     14  C   UNL     1       0.015   3.035  24.253  0.00  0.00    +0.089 C 
BRANCH  14  16
ATOM     16  C   UNL     1      -0.744   4.143  24.984  0.00  0.00    +0.050 C 
BRANCH  16  17
ATOM     17  C   UNL     1      -2.229   3.878  25.002  0.00  0.00    -0.046 A 
ATOM     19  C   UNL     1      -2.952   4.049  26.183  0.00  0.00    +0.003 A 
ATOM     20  C   UNL     1      -2.878   3.464  23.840  0.00  0.00    +0.003 A 
ATOM     22  C   UNL     1      -4.326   3.804  26.201  0.00  0.00    +0.000 A 
ATOM     23  C   UNL     1      -4.252   3.219  23.858  0.00  0.00    +0.000 A 
ATOM     24  C   UNL     1      -4.975   3.389  25.038  0.00  0.00    +0.000 A 
ENDBRANCH  16  17
ENDBRANCH  14  16
ENDBRANCH   6  14
ENDBRANCH   8   6
BRANCH   9  12
ATOM     12  C   UNL     1       0.176  -0.814  23.555  0.00  0.00    +0.137 C 
BRANCH  12   7
ATOM      4  O   UNL     1       2.060  -0.384  21.402  0.00  0.00    -0.273 OA
ATOM      7  N   UNL     1       1.295   0.079  23.551  0.00  0.00    -0.311 N 
ATOM     18  C   UNL     1       2.156   0.224  22.466  0.00  0.00    +0.239 C 
ATOM     27  H   UNL     1       1.470   0.622  24.392  0.00  0.00    +0.149 HD
BRANCH  18  21
ATOM     21  C   UNL     1       3.250   1.235  22.737  0.00  0.00    +0.255 C 
BRANCH  21   5
ATOM      5  O   UNL     1       4.516   0.695  22.422  0.00  0.00    -0.374 OA
ATOM     25  C   UNL     1       5.185   0.202  23.579  0.00  0.00    +0.194 C 
ENDBRANCH  21   5
ENDBRANCH  18  21
ENDBRANCH  12   7
ENDBRANCH   9  12
BRANCH  11  13
ATOM     13  C   UNL     1      -3.370  -1.831  25.773  0.00  0.00    +0.190 C 
BRANCH  13   3
ATOM      3  O   UNL     1      -3.552  -2.890  24.848  0.00  0.00    -0.392 OA
ATOM     28  H   UNL     1      -3.700  -2.487  23.975  0.00  0.00    +0.210 HD
ENDBRANCH  13   3
ENDBRANCH  11  13
TORSDOF 11
ENDMDL
MODEL 3
REMARK VINA RESULT:      -4.6      1.678      2.206
REMARK  Name = 28962146
REMARK  13 active torsions:
REMARK  status: ('A' for Active; 'I' for Inactive)
REMARK    1  A    between atoms: O_2  and  C_10
REMARK    2  A    between atoms: O_3  and  C_13
REMARK    3  A    between atoms: O_5  and  C_21
REMARK    4  A    between atoms: O_5  and  C_25
REMARK    5  A    between atoms: N_6  and  C_8
REMARK    6  A    between atoms: N_6  and  C_14
REMARK    7  A    between atoms: N_6  and  C_15
REMARK    8  A    between atoms: N_7  and  C_12
REMARK    9  A    between atoms: C_9  and  C_12
REMARK   10  A    between atoms: C_11  and  C_13
REMARK   11  A    between atoms: C_14  and  C_16
REMARK   12  A    between atoms: C_16  and  C_17
REMARK   13  A    between atoms: C_18  and  C_21
REMARK                            x       y       z     vdW  Elec       q    Type
REMARK                         _______ _______ _______ _____ _____    ______ ____
ROOT
ATOM      1  O   UNL     1      -0.908   3.040  25.132  0.00  0.00    -0.365 OA
ATOM      8  C   UNL     1      -3.247   3.073  25.577  0.00  0.00    +0.118 C 
ATOM      9  C   UNL     1      -2.076   2.190  25.124  0.00  0.00    +0.155 C 
ATOM     10  C   UNL     1      -2.793   4.471  25.183  0.00  0.00    +0.165 C 
ATOM     11  C   UNL     1      -1.303   4.379  25.488  0.00  0.00    +0.174 C 
ENDROOT
BRANCH  10   2
ATOM      2  O   UNL     1      -3.002   4.716  23.799  0.00  0.00    -0.388 OA
ATOM     26  H   UNL     1      -2.165   5.044  23.428  0.00  0.00    +0.210 HD
ENDBRANCH  10   2
BRANCH   8   6
ATOM      6  N   UNL     1      -4.563   2.691  25.097  0.00  0.00    -0.297 NA
ATOM     15  C   UNL     1      -5.557   3.718  25.426  0.00  0.00    +0.105 C 
BRANCH   6  14
ATOM     14  C   UNL     1      -4.969   1.400  25.661  0.00  0.00    +0.089 C 
BRANCH  14  16
ATOM     16  C   UNL     1      -5.257   0.384  24.555  0.00  0.00    +0.050 C 
BRANCH  16  17
ATOM     17  C   UNL     1      -4.413  -0.857  24.709  0.00  0.00    -0.046 A 
ATOM     19  C   UNL     1      -4.388  -1.812  23.692  0.00  0.00    +0.003 A 
ATOM     20  C   UNL     1      -3.659  -1.048  25.866  0.00  0.00    +0.003 A 
ATOM     22  C   UNL     1      -3.607  -2.960  23.835  0.00  0.00    +0.000 A 
ATOM     23  C   UNL     1      -2.879  -2.196  26.007  0.00  0.00    +0.000 A 
ATOM     24  C   UNL     1      -2.853  -3.152  24.993  0.00  0.00    +0.000 A 
ENDBRANCH  16  17
ENDBRANCH  14  16
ENDBRANCH   6  14
ENDBRANCH   8   6
BRANCH   9  12
ATOM     12  C   UNL     1      -2.181   1.579  23.730  0.00  0.00    +0.137 C 
BRANCH  12   7
ATOM      4  O   UNL     1      -0.465  -0.646  24.418  0.00  0.00    -0.273 OA
ATOM      7  N   UNL     1      -0.884   1.290  23.195  0.00  0.00    -0.311 N 
ATOM     18  C   UNL     1      -0.122   0.191  23.586  0.00  0.00    +0.239 C 
ATOM     27  H   UNL     1      -0.503   1.930  22.506  0.00  0.00    +0.149 HD
BRANCH  18  21
ATOM     21  C   UNL     1       1.204   0.130  22.860  0.00  0.00    +0.255 C 
BRANCH  21   5
ATOM      5  O   UNL     1       2.100   1.090  23.378  0.00  0.00    -0.374 OA
ATOM     25  C   UNL     1       3.416   0.922  22.860  0.00  0.00    +0.194 C 
ENDBRANCH  21   5
ENDBRANCH  18  21
ENDBRANCH  12   7
ENDBRANCH   9  12
BRANCH  11  13
ATOM     13  C   UNL     1      -0.424   5.374  24.752  0.00  0.00    +0.190 C 
BRANCH  13   3
ATOM      3  O   UNL     1      -0.071   4.828  23.491  0.00  0.00    -0.392 OA
ATOM     28  H   UNL     1      -0.895   4.709  22.989  0.00  0.00    +0.210 HD
ENDBRANCH  13   3
ENDBRANCH  11  13
TORSDOF 11
ENDMDL
MODEL 4
REMARK VINA RESULT:      -4.4      2.066      4.904
REMARK  Name = 28962146
REMARK  13 active torsions:
REMARK  status: ('A' for Active; 'I' for Inactive)
REMARK    1  A    between atoms: O_2  and  C_10
REMARK    2  A    between atoms: O_3  and  C_13
REMARK    3  A    between atoms: O_5  and  C_21
REMARK    4  A    between atoms: O_5  and  C_25
REMARK    5  A    between atoms: N_6  and  C_8
REMARK    6  A    between atoms: N_6  and  C_14
REMARK    7  A    between atoms: N_6  and  C_15
REMARK    8  A    between atoms: N_7  and  C_12
REMARK    9  A    between atoms: C_9  and  C_12
REMARK   10  A    between atoms: C_11  and  C_13
REMARK   11  A    between atoms: C_14  and  C_16
REMARK   12  A    between atoms: C_16  and  C_17
REMARK   13  A    between atoms: C_18  and  C_21
REMARK                            x       y       z     vdW  Elec       q    Type
REMARK                         _______ _______ _______ _____ _____    ______ ____
ROOT
ATOM      1  O   UNL     1      -3.130  -0.702  23.210  0.00  0.00    -0.365 OA
ATOM      8  C   UNL     1      -4.663   0.647  24.434  0.00  0.00    +0.118 C 
ATOM      9  C   UNL     1      -3.386   0.670  23.582  0.00  0.00    +0.155 C 
ATOM     10  C   UNL     1      -4.662  -0.759  25.013  0.00  0.00    +0.165 C 
ATOM     11  C   UNL     1      -4.115  -1.551  23.831  0.00  0.00    +0.174 C 
ENDROOT
BRANCH  10   2
ATOM      2  O   UNL     1      -3.786  -0.864  26.127  0.00  0.00    -0.388 OA
ATOM     26  H   UNL     1      -3.059  -1.459  25.876  0.00  0.00    +0.210 HD
ENDBRANCH  10   2
BRANCH   8   6
ATOM      6  N   UNL     1      -4.806   1.717  25.405  0.00  0.00    -0.297 NA
ATOM     15  C   UNL     1      -6.076   1.599  26.129  0.00  0.00    +0.105 C 
BRANCH   6  14
ATOM     14  C   UNL     1      -4.719   3.028  24.754  0.00  0.00    +0.089 C 
BRANCH  14  16
ATOM     16  C   UNL     1      -4.064   4.056  25.677  0.00  0.00    +0.050 C 
BRANCH  16  17
ATOM     17  C   UNL     1      -2.559   3.989  25.603  0.00  0.00    -0.046 A 
ATOM     19  C   UNL     1      -1.864   3.064  26.382  0.00  0.00    +0.003 A 
ATOM     20  C   UNL     1      -1.864   4.850  24.754  0.00  0.00    +0.003 A 
ATOM     22  C   UNL     1      -0.472   3.002  26.313  0.00  0.00    +0.000 A 
ATOM     23  C   UNL     1      -0.472   4.786  24.685  0.00  0.00    +0.000 A 
ATOM     24  C   UNL     1       0.224   3.863  25.464  0.00  0.00    +0.000 A 
ENDBRANCH  16  17
ENDBRANCH  14  16
ENDBRANCH   6  14
ENDBRANCH   8   6
BRANCH   9  12
ATOM     12  C   UNL     1      -2.124   1.198  24.256  0.00  0.00    +0.137 C 
BRANCH  12   7
ATOM      4  O   UNL     1      -0.114  -0.810  24.799  0.00  0.00    -0.273 OA
ATOM      7  N   UNL     1      -0.961   0.906  23.474  0.00  0.00    -0.311 N 
ATOM     18  C   UNL     1      -0.040  -0.083  23.811  0.00  0.00    +0.239 C 
ATOM     27  H   UNL     1      -0.800   1.461  22.639  0.00  0.00    +0.149 HD
BRANCH  18  21
ATOM     21  C   UNL     1       1.090  -0.175  22.808  0.00  0.00    +0.255 C 
BRANCH  21   5
ATOM      5  O   UNL     1       2.100   0.765  23.108  0.00  0.00    -0.374 OA
ATOM     25  C   UNL     1       3.317   0.472  22.429  0.00  0.00    +0.194 C 
ENDBRANCH  21   5
ENDBRANCH  18  21
ENDBRANCH  12   7
ENDBRANCH   9  12
BRANCH  11  13
ATOM     13  C   UNL     1      -3.481  -2.886  24.176  0.00  0.00    +0.190 C 
BRANCH  13   3
ATOM      3  O   UNL     1      -2.119  -2.675  24.509  0.00  0.00    -0.392 OA
ATOM     28  H   UNL     1      -1.594  -3.299  23.979  0.00  0.00    +0.210 HD
ENDBRANCH  13   3
ENDBRANCH  11  13
TORSDOF 11
ENDMDL
MODEL 5
REMARK VINA RESULT:      -4.3      2.294      5.989
REMARK  Name = 28962146
REMARK  13 active torsions:
REMARK  status: ('A' for Active; 'I' for Inactive)
REMARK    1  A    between atoms: O_2  and  C_10
REMARK    2  A    between atoms: O_3  and  C_13
REMARK    3  A    between atoms: O_5  and  C_21
REMARK    4  A    between atoms: O_5  and  C_25
REMARK    5  A    between atoms: N_6  and  C_8
REMARK    6  A    between atoms: N_6  and  C_14
REMARK    7  A    between atoms: N_6  and  C_15
REMARK    8  A    between atoms: N_7  and  C_12
REMARK    9  A    between atoms: C_9  and  C_12
REMARK   10  A    between atoms: C_11  and  C_13
REMARK   11  A    between atoms: C_14  and  C_16
REMARK   12  A    between atoms: C_16  and  C_17
REMARK   13  A    between atoms: C_18  and  C_21
REMARK                            x       y       z     vdW  Elec       q    Type
REMARK                         _______ _______ _______ _____ _____    ______ ____
ROOT
ATOM      1  O   UNL     1      -1.794   3.487  23.413  0.00  0.00    -0.365 OA
ATOM      8  C   UNL     1      -0.648   1.447  23.846  0.00  0.00    +0.118 C 
ATOM      9  C   UNL     1      -1.917   2.059  23.239  0.00  0.00    +0.155 C 
ATOM     10  C   UNL     1      -0.226   2.485  24.875  0.00  0.00    +0.165 C 
ATOM     11  C   UNL     1      -0.583   3.771  24.139  0.00  0.00    +0.174 C 
ENDROOT
BRANCH  10   2
ATOM      2  O   UNL     1      -0.985   2.372  26.071  0.00  0.00    -0.388 OA
ATOM     26  H   UNL     1      -0.899   3.210  26.556  0.00  0.00    +0.210 HD
ENDBRANCH  10   2
BRANCH   8   6
ATOM      6  N   UNL     1      -0.767   0.089  24.349  0.00  0.00    -0.297 NA
ATOM     15  C   UNL     1      -0.755   0.073  25.816  0.00  0.00    +0.105 C 
BRANCH   6  14
ATOM     14  C   UNL     1       0.312  -0.756  23.829  0.00  0.00    +0.089 C 
BRANCH  14  16
ATOM     16  C   UNL     1       1.116  -0.021  22.756  0.00  0.00    +0.050 C 
BRANCH  16  17
ATOM     17  C   UNL     1       2.597  -0.082  23.033  0.00  0.00    -0.046 A 
ATOM     19  C   UNL     1       3.400   1.029  22.777  0.00  0.00    +0.003 A 
ATOM     20  C   UNL     1       3.162  -1.250  23.545  0.00  0.00    +0.003 A 
ATOM     22  C   UNL     1       4.771   0.972  23.034  0.00  0.00    +0.000 A 
ATOM     23  C   UNL     1       4.533  -1.306  23.802  0.00  0.00    +0.000 A 
ATOM     24  C   UNL     1       5.337  -0.196  23.546  0.00  0.00    +0.000 A 
ENDBRANCH  16  17
ENDBRANCH  14  16
ENDBRANCH   6  14
ENDBRANCH   8   6
BRANCH   9  12
ATOM     12  C   UNL     1      -3.244   1.640  23.863  0.00  0.00    +0.137 C 
BRANCH  12   7
ATOM      4  O   UNL     1      -4.318  -0.378  25.635  0.00  0.00    -0.273 OA
ATOM      7  N   UNL     1      -3.563   0.283  23.535  0.00  0.00    -0.311 N 
ATOM     18  C   UNL     1      -4.078  -0.626  24.456  0.00  0.00    +0.239 C 
ATOM     27  H   UNL     1      -3.389  -0.028  22.584  0.00  0.00    +0.149 HD
BRANCH  18  21
ATOM     21  C   UNL     1      -4.322  -1.987  23.839  0.00  0.00    +0.255 C 
BRANCH  21   5
ATOM      5  O   UNL     1      -3.730  -3.002  24.621  0.00  0.00    -0.374 OA
ATOM     25  C   UNL     1      -2.316  -3.044  24.455  0.00  0.00    +0.194 C 
ENDBRANCH  21   5
ENDBRANCH  18  21
ENDBRANCH  12   7
ENDBRANCH   9  12
BRANCH  11  13
ATOM     13  C   UNL     1      -0.799   4.988  25.019  0.00  0.00    +0.190 C 
BRANCH  13   3
ATOM      3  O   UNL     1      -2.060   4.873  25.660  0.00  0.00    -0.392 OA
ATOM     28  H   UNL     1      -2.190   3.933  25.869  0.00  0.00    +0.210 HD
ENDBRANCH  13   3
ENDBRANCH  11  13
TORSDOF 11
ENDMDL
MODEL 6
REMARK VINA RESULT:      -4.0      2.631      6.576
REMARK  Name = 28962146
REMARK  13 active torsions:
REMARK  status: ('A' for Active; 'I' for Inactive)
REMARK    1  A    between atoms: O_2  and  C_10
REMARK    2  A    between atoms: O_3  and  C_13
REMARK    3  A    between atoms: O_5  and  C_21
REMARK    4  A    between atoms: O_5  and  C_25
REMARK    5  A    between atoms: N_6  and  C_8
REMARK    6  A    between atoms: N_6  and  C_14
REMARK    7  A    between atoms: N_6  and  C_15
REMARK    8  A    between atoms: N_7  and  C_12
REMARK    9  A    between atoms: C_9  and  C_12
REMARK   10  A    between atoms: C_11  and  C_13
REMARK   11  A    between atoms: C_14  and  C_16
REMARK   12  A    between atoms: C_16  and  C_17
REMARK   13  A    between atoms: C_18  and  C_21
REMARK                            x       y       z     vdW  Elec       q    Type
REMARK                         _______ _______ _______ _____ _____    ______ ____
ROOT
ATOM      1  O   UNL     1      -1.703   2.989  23.839  0.00  0.00    -0.365 OA
ATOM      8  C   UNL     1      -0.450   0.965  23.874  0.00  0.00    +0.118 C 
ATOM      9  C   UNL     1      -1.531   1.748  23.119  0.00  0.00    +0.155 C 
ATOM     10  C   UNL     1      -0.561   1.509  25.291  0.00  0.00    +0.165 C 
ATOM     11  C   UNL     1      -0.858   2.976  25.006  0.00  0.00    +0.174 C 
ENDROOT
BRANCH  10   2
ATOM      2  O   UNL     1      -1.641   0.912  25.996  0.00  0.00    -0.388 OA
ATOM     26  H   UNL     1      -1.327   0.063  26.352  0.00  0.00    +0.210 HD
ENDBRANCH  10   2
BRANCH   8   6
ATOM      6  N   UNL     1      -0.508  -0.482  23.761  0.00  0.00    -0.297 NA
ATOM     15  C   UNL     1      -0.576  -1.108  25.086  0.00  0.00    +0.105 C 
BRANCH   6  14
ATOM     14  C   UNL     1       0.651  -0.994  23.023  0.00  0.00    +0.089 C 
BRANCH  14  16
ATOM     16  C   UNL     1       1.546   0.151  22.545  0.00  0.00    +0.050 C 
BRANCH  16  17
ATOM     17  C   UNL     1       2.972  -0.034  22.998  0.00  0.00    -0.046 A 
ATOM     19  C   UNL     1       3.871   1.030  22.919  0.00  0.00    +0.003 A 
ATOM     20  C   UNL     1       3.391  -1.266  23.498  0.00  0.00    +0.003 A 
ATOM     22  C   UNL     1       5.191   0.859  23.339  0.00  0.00    +0.000 A 
ATOM     23  C   UNL     1       4.711  -1.436  23.918  0.00  0.00    +0.000 A 
ATOM     24  C   UNL     1       5.610  -0.374  23.838  0.00  0.00    +0.000 A 
ENDBRANCH  16  17
ENDBRANCH  14  16
ENDBRANCH   6  14
ENDBRANCH   8   6
BRANCH   9  12
ATOM     12  C   UNL     1      -2.904   1.092  23.015  0.00  0.00    +0.137 C 
BRANCH  12   7
ATOM      4  O   UNL     1      -4.397  -0.105  25.184  0.00  0.00    -0.273 OA
ATOM      7  N   UNL     1      -3.851   1.739  23.873  0.00  0.00    -0.311 N 
ATOM     18  C   UNL     1      -4.528   1.083  24.898  0.00  0.00    +0.239 C 
ATOM     27  H   UNL     1      -4.042   2.723  23.711  0.00  0.00    +0.149 HD
BRANCH  18  21
ATOM     21  C   UNL     1      -5.466   2.007  25.644  0.00  0.00    +0.255 C 
BRANCH  21   5
ATOM      5  O   UNL     1      -4.887   3.286  25.798  0.00  0.00    -0.374 OA
ATOM     25  C   UNL     1      -5.822   4.327  25.532  0.00  0.00    +0.194 C 
ENDBRANCH  21   5
ENDBRANCH  18  21
ENDBRANCH  12   7
ENDBRANCH   9  12
BRANCH  11  13
ATOM     13  C   UNL     1      -1.543   3.734  26.129  0.00  0.00    +0.190 C 
BRANCH  13   3
ATOM      3  O   UNL     1      -2.265   4.822  25.575  0.00  0.00    -0.392 OA
ATOM     28  H   UNL     1      -3.000   4.446  25.060  0.00  0.00    +0.210 HD
ENDBRANCH  13   3
ENDBRANCH  11  13
TORSDOF 11
ENDMDL
MODEL 7
REMARK VINA RESULT:      -3.3      2.198      4.895
REMARK  Name = 28962146
REMARK  13 active torsions:
REMARK  status: ('A' for Active; 'I' for Inactive)
REMARK    1  A    between atoms: O_2  and  C_10
REMARK    2  A    between atoms: O_3  and  C_13
REMARK    3  A    between atoms: O_5  and  C_21
REMARK    4  A    between atoms: O_5  and  C_25
REMARK    5  A    between atoms: N_6  and  C_8
REMARK    6  A    between atoms: N_6  and  C_14
REMARK    7  A    between atoms: N_6  and  C_15
REMARK    8  A    between atoms: N_7  and  C_12
REMARK    9  A    between atoms: C_9  and  C_12
REMARK   10  A    between atoms: C_11  and  C_13
REMARK   11  A    between atoms: C_14  and  C_16
REMARK   12  A    between atoms: C_16  and  C_17
REMARK   13  A    between atoms: C_18  and  C_21
REMARK                            x       y       z     vdW  Elec       q    Type
REMARK                         _______ _______ _______ _____ _____    ______ ____
ROOT
ATOM      1  O   UNL     1      -0.113   0.304  25.029  0.00  0.00    -0.365 OA
ATOM      8  C   UNL     1      -0.350   2.666  24.859  0.00  0.00    +0.118 C 
ATOM      9  C   UNL     1      -0.730   1.432  25.687  0.00  0.00    +0.155 C 
ATOM     10  C   UNL     1      -0.109   2.086  23.473  0.00  0.00    +0.165 C 
ATOM     11  C   UNL     1       0.548   0.759  23.833  0.00  0.00    +0.174 C 
ENDROOT
BRANCH  10   2
ATOM      2  O   UNL     1      -1.331   1.863  22.782  0.00  0.00    -0.388 OA
ATOM     26  H   UNL     1      -1.112   1.633  21.863  0.00  0.00    +0.210 HD
ENDBRANCH  10   2
BRANCH   8   6
ATOM      6  N   UNL     1      -1.276   3.784  24.910  0.00  0.00    -0.297 NA
ATOM     15  C   UNL     1      -0.594   5.041  24.583  0.00  0.00    +0.105 C 
BRANCH   6  14
ATOM     14  C   UNL     1      -1.903   3.882  26.231  0.00  0.00    +0.089 C 
BRANCH  14  16
ATOM     16  C   UNL     1      -3.294   4.509  26.132  0.00  0.00    +0.050 C 
BRANCH  16  17
ATOM     17  C   UNL     1      -4.317   3.516  25.640  0.00  0.00    -0.046 A 
ATOM     19  C   UNL     1      -5.281   3.017  26.516  0.00  0.00    +0.003 A 
ATOM     20  C   UNL     1      -4.298   3.097  24.310  0.00  0.00    +0.003 A 
ATOM     22  C   UNL     1      -6.227   2.098  26.061  0.00  0.00    +0.000 A 
ATOM     23  C   UNL     1      -5.245   2.178  23.856  0.00  0.00    +0.000 A 
ATOM     24  C   UNL     1      -6.209   1.679  24.730  0.00  0.00    +0.000 A 
ENDBRANCH  16  17
ENDBRANCH  14  16
ENDBRANCH   6  14
ENDBRANCH   8   6
BRANCH   9  12
ATOM     12  C   UNL     1      -2.219   1.124  25.812  0.00  0.00    +0.137 C 
BRANCH  12   7
ATOM      4  O   UNL     1      -4.044  -1.079  26.238  0.00  0.00    -0.273 OA
ATOM      7  N   UNL     1      -2.623   0.139  24.854  0.00  0.00    -0.311 N 
ATOM     18  C   UNL     1      -3.511  -0.894  25.147  0.00  0.00    +0.239 C 
ATOM     27  H   UNL     1      -2.228   0.196  23.920  0.00  0.00    +0.149 HD
BRANCH  18  21
ATOM     21  C   UNL     1      -3.760  -1.787  23.950  0.00  0.00    +0.255 C 
BRANCH  21   5
ATOM      5  O   UNL     1      -3.106  -3.028  24.110  0.00  0.00    -0.374 OA
ATOM     25  C   UNL     1      -1.712  -2.866  24.348  0.00  0.00    +0.194 C 
ENDBRANCH  21   5
ENDBRANCH  18  21
ENDBRANCH  12   7
ENDBRANCH   9  12
BRANCH  11  13
ATOM     13  C   UNL     1       0.464  -0.321  22.771  0.00  0.00    +0.190 C 
BRANCH  13   3
ATOM      3  O   UNL     1       1.433  -0.056  21.769  0.00  0.00    -0.392 OA
ATOM     28  H   UNL     1       0.951   0.118  20.943  0.00  0.00    +0.210 HD
ENDBRANCH  13   3
ENDBRANCH  11  13
TORSDOF 11
ENDMDL
MODEL 8
REMARK VINA RESULT:      -3.2      2.704      6.770
REMARK  Name = 28962146
REMARK  13 active torsions:
REMARK  status: ('A' for Active; 'I' for Inactive)
REMARK    1  A    between atoms: O_2  and  C_10
REMARK    2  A    between atoms: O_3  and  C_13
REMARK    3  A    between atoms: O_5  and  C_21
REMARK    4  A    between atoms: O_5  and  C_25
REMARK    5  A    between atoms: N_6  and  C_8
REMARK    6  A    between atoms: N_6  and  C_14
REMARK    7  A    between atoms: N_6  and  C_15
REMARK    8  A    between atoms: N_7  and  C_12
REMARK    9  A    between atoms: C_9  and  C_12
REMARK   10  A    between atoms: C_11  and  C_13
REMARK   11  A    between atoms: C_14  and  C_16
REMARK   12  A    between atoms: C_16  and  C_17
REMARK   13  A    between atoms: C_18  and  C_21
REMARK                            x       y       z     vdW  Elec       q    Type
REMARK                         _______ _______ _______ _____ _____    ______ ____
ROOT
ATOM      1  O   UNL     1      -2.853  -1.023  25.624  0.00  0.00    -0.365 OA
ATOM      8  C   UNL     1      -0.740  -0.283  24.817  0.00  0.00    +0.118 C 
ATOM      9  C   UNL     1      -2.161   0.165  25.182  0.00  0.00    +0.155 C 
ATOM     10  C   UNL     1      -0.925  -1.750  24.460  0.00  0.00    +0.165 C 
ATOM     11  C   UNL     1      -1.977  -2.158  25.485  0.00  0.00    +0.174 C 
ENDROOT
BRANCH  10   2
ATOM      2  O   UNL     1      -1.432  -1.907  23.142  0.00  0.00    -0.388 OA
ATOM     26  H   UNL     1      -1.555  -2.858  22.984  0.00  0.00    +0.210 HD
ENDBRANCH  10   2
BRANCH   8   6
ATOM      6  N   UNL     1      -0.052   0.515  23.817  0.00  0.00    -0.297 NA
ATOM     15  C   UNL     1       0.871  -0.313  23.033  0.00  0.00    +0.105 C 
BRANCH   6  14
ATOM     14  C   UNL     1       0.675   1.623  24.444  0.00  0.00    +0.089 C 
BRANCH  14  16
ATOM     16  C   UNL     1       0.018   2.034  25.762  0.00  0.00    +0.050 C 
BRANCH  16  17
ATOM     17  C   UNL     1      -0.772   3.310  25.613  0.00  0.00    -0.046 A 
ATOM     19  C   UNL     1      -1.949   3.490  26.341  0.00  0.00    +0.003 A 
ATOM     20  C   UNL     1      -0.326   4.309  24.748  0.00  0.00    +0.003 A 
ATOM     22  C   UNL     1      -2.679   4.670  26.203  0.00  0.00    +0.000 A 
ATOM     23  C   UNL     1      -1.058   5.490  24.611  0.00  0.00    +0.000 A 
ATOM     24  C   UNL     1      -2.234   5.670  25.338  0.00  0.00    +0.000 A 
ENDBRANCH  16  17
ENDBRANCH  14  16
ENDBRANCH   6  14
ENDBRANCH   8   6
BRANCH   9  12
ATOM     12  C   UNL     1      -2.993   0.782  24.062  0.00  0.00    +0.137 C 
BRANCH  12   7
ATOM      4  O   UNL     1      -4.030   3.376  23.312  0.00  0.00    -0.273 OA
ATOM      7  N   UNL     1      -4.158   1.431  24.583  0.00  0.00    -0.311 N 
ATOM     18  C   UNL     1      -4.588   2.688  24.163  0.00  0.00    +0.239 C 
ATOM     27  H   UNL     1      -4.687   0.948  25.303  0.00  0.00    +0.149 HD
BRANCH  18  21
ATOM     21  C   UNL     1      -5.846   3.129  24.879  0.00  0.00    +0.255 C 
BRANCH  21   5
ATOM      5  O   UNL     1      -5.734   2.904  26.268  0.00  0.00    -0.374 OA
ATOM     25  C   UNL     1      -6.506   1.784  26.688  0.00  0.00    +0.194 C 
ENDBRANCH  21   5
ENDBRANCH  18  21
ENDBRANCH  12   7
ENDBRANCH   9  12
BRANCH  11  13
ATOM     13  C   UNL     1      -2.797  -3.384  25.127  0.00  0.00    +0.190 C 
BRANCH  13   3
ATOM      3  O   UNL     1      -3.845  -2.995  24.253  0.00  0.00    -0.392 OA
ATOM     28  H   UNL     1      -4.152  -3.798  23.799  0.00  0.00    +0.210 HD
ENDBRANCH  13   3
ENDBRANCH  11  13
TORSDOF 11
ENDMDL
MODEL 9
REMARK VINA RESULT:      -3.1      2.368      7.005
REMARK  Name = 28962146
REMARK  13 active torsions:
REMARK  status: ('A' for Active; 'I' for Inactive)
REMARK    1  A    between atoms: O_2  and  C_10
REMARK    2  A    between atoms: O_3  and  C_13
REMARK    3  A    between atoms: O_5  and  C_21
REMARK    4  A    between atoms: O_5  and  C_25
REMARK    5  A    between atoms: N_6  and  C_8
REMARK    6  A    between atoms: N_6  and  C_14
REMARK    7  A    between atoms: N_6  and  C_15
REMARK    8  A    between atoms: N_7  and  C_12
REMARK    9  A    between atoms: C_9  and  C_12
REMARK   10  A    between atoms: C_11  and  C_13
REMARK   11  A    between atoms: C_14  and  C_16
REMARK   12  A    between atoms: C_16  and  C_17
REMARK   13  A    between atoms: C_18  and  C_21
REMARK                            x       y       z     vdW  Elec       q    Type
REMARK                         _______ _______ _______ _____ _____    ______ ____
ROOT
ATOM      1  O   UNL     1      -3.290  -0.555  25.386  0.00  0.00    -0.365 OA
ATOM      8  C   UNL     1      -0.919  -0.358  25.317  0.00  0.00    +0.118 C 
ATOM      9  C   UNL     1      -2.237   0.422  25.233  0.00  0.00    +0.155 C 
ATOM     10  C   UNL     1      -1.318  -1.754  24.862  0.00  0.00    +0.165 C 
ATOM     11  C   UNL     1      -2.704  -1.867  25.486  0.00  0.00    +0.174 C 
ENDROOT
BRANCH  10   2
ATOM      2  O   UNL     1      -1.403  -1.837  23.446  0.00  0.00    -0.388 OA
ATOM     26  H   UNL     1      -2.126  -2.449  23.230  0.00  0.00    +0.210 HD
ENDBRANCH  10   2
BRANCH   8   6
ATOM      6  N   UNL     1       0.215   0.220  24.619  0.00  0.00    -0.297 NA
ATOM     15  C   UNL     1      -0.029   1.632  24.306  0.00  0.00    +0.105 C 
BRANCH   6  14
ATOM     14  C   UNL     1       0.505  -0.524  23.389  0.00  0.00    +0.089 C 
BRANCH  14  16
ATOM     16  C   UNL     1       1.518   0.225  22.521  0.00  0.00    +0.050 C 
BRANCH  16  17
ATOM     17  C   UNL     1       2.932  -0.017  22.986  0.00  0.00    -0.046 A 
ATOM     19  C   UNL     1       3.875   1.009  22.912  0.00  0.00    +0.003 A 
ATOM     20  C   UNL     1       3.296  -1.265  23.490  0.00  0.00    +0.003 A 
ATOM     22  C   UNL     1       5.183   0.785  23.342  0.00  0.00    +0.000 A 
ATOM     23  C   UNL     1       4.606  -1.488  23.920  0.00  0.00    +0.000 A 
ATOM     24  C   UNL     1       5.548  -0.464  23.846  0.00  0.00    +0.000 A 
ENDBRANCH  16  17
ENDBRANCH  14  16
ENDBRANCH   6  14
ENDBRANCH   8   6
BRANCH   9  12
ATOM     12  C   UNL     1      -2.505   1.174  23.934  0.00  0.00    +0.137 C 
BRANCH  12   7
ATOM      4  O   UNL     1      -2.574   3.685  25.368  0.00  0.00    -0.273 OA
ATOM      7  N   UNL     1      -3.621   2.060  24.071  0.00  0.00    -0.311 N 
ATOM     18  C   UNL     1      -3.566   3.256  24.784  0.00  0.00    +0.239 C 
ATOM     27  H   UNL     1      -4.497   1.791  23.633  0.00  0.00    +0.149 HD
BRANCH  18  21
ATOM     21  C   UNL     1      -4.889   3.993  24.764  0.00  0.00    +0.255 C 
BRANCH  21   5
ATOM      5  O   UNL     1      -5.704   3.581  25.841  0.00  0.00    -0.374 OA
ATOM     25  C   UNL     1      -5.979   2.185  25.795  0.00  0.00    +0.194 C 
ENDBRANCH  21   5
ENDBRANCH  18  21
ENDBRANCH  12   7
ENDBRANCH   9  12
BRANCH  11  13
ATOM     13  C   UNL     1      -3.630  -2.881  24.839  0.00  0.00    +0.190 C 
BRANCH  13   3
ATOM      3  O   UNL     1      -4.321  -2.254  23.770  0.00  0.00    -0.392 OA
ATOM     28  H   UNL     1      -5.184  -1.968  24.115  0.00  0.00    +0.210 HD
ENDBRANCH  13   3
ENDBRANCH  11  13
TORSDOF 11
ENDMDL
MODEL 10
REMARK VINA RESULT:      -2.9      2.267      5.030
REMARK  Name = 28962146
REMARK  13 active torsions:
REMARK  status: ('A' for Active; 'I' for Inactive)
REMARK    1  A    between atoms: O_2  and  C_10
REMARK    2  A    between atoms: O_3  and  C_13
REMARK    3  A    between atoms: O_5  and  C_21
REMARK    4  A    between atoms: O_5  and  C_25
REMARK    5  A    between atoms: N_6  and  C_8
REMARK    6  A    between atoms: N_6  and  C_14
REMARK    7  A    between atoms: N_6  and  C_15
REMARK    8  A    between atoms: N_7  and  C_12
REMARK    9  A    between atoms: C_9  and  C_12
REMARK   10  A    between atoms: C_11  and  C_13
REMARK   11  A    between atoms: C_14  and  C_16
REMARK   12  A    between atoms: C_16  and  C_17
REMARK   13  A    between atoms: C_18  and  C_21
REMARK                            x       y       z     vdW  Elec       q    Type
REMARK                         _______ _______ _______ _____ _____    ______ ____
ROOT
ATOM      1  O   UNL     1      -1.645   3.770  23.879  0.00  0.00    -0.365 OA
ATOM      8  C   UNL     1       0.402   2.575  24.103  0.00  0.00    +0.118 C 
ATOM      9  C   UNL     1      -0.874   2.715  23.262  0.00  0.00    +0.155 C 
ATOM     10  C   UNL     1      -0.032   3.086  25.469  0.00  0.00    +0.165 C 
ATOM     11  C   UNL     1      -0.961   4.223  25.063  0.00  0.00    +0.174 C 
ENDROOT
BRANCH  10   2
ATOM      2  O   UNL     1      -0.749   2.094  26.193  0.00  0.00    -0.388 OA
ATOM     26  H   UNL     1      -1.355   2.552  26.798  0.00  0.00    +0.210 HD
ENDBRANCH  10   2
BRANCH   8   6
ATOM      6  N   UNL     1       1.032   1.267  24.102  0.00  0.00    -0.297 NA
ATOM     15  C   UNL     1       2.252   1.275  23.288  0.00  0.00    +0.105 C 
BRANCH   6  14
ATOM     14  C   UNL     1       0.106   0.242  23.609  0.00  0.00    +0.089 C 
BRANCH  14  16
ATOM     16  C   UNL     1       0.234  -1.048  24.419  0.00  0.00    +0.050 C 
BRANCH  16  17
ATOM     17  C   UNL     1      -1.114  -1.563  24.858  0.00  0.00    -0.046 A 
ATOM     19  C   UNL     1      -1.741  -1.011  25.975  0.00  0.00    +0.003 A 
ATOM     20  C   UNL     1      -1.733  -2.590  24.145  0.00  0.00    +0.003 A 
ATOM     22  C   UNL     1      -2.989  -1.488  26.380  0.00  0.00    +0.000 A 
ATOM     23  C   UNL     1      -2.981  -3.066  24.551  0.00  0.00    +0.000 A 
ATOM     24  C   UNL     1      -3.608  -2.515  25.668  0.00  0.00    +0.000 A 
ENDBRANCH  16  17
ENDBRANCH  14  16
ENDBRANCH   6  14
ENDBRANCH   8   6
BRANCH   9  12
ATOM     12  C   UNL     1      -1.775   1.487  23.177  0.00  0.00    +0.137 C 
BRANCH  12   7
ATOM      4  O   UNL     1      -4.054  -0.288  23.310  0.00  0.00    -0.273 OA
ATOM      7  N   UNL     1      -2.967   1.668  23.948  0.00  0.00    -0.311 N 
ATOM     18  C   UNL     1      -4.022   0.758  23.953  0.00  0.00    +0.239 C 
ATOM     27  H   UNL     1      -3.046   2.512  24.509  0.00  0.00    +0.149 HD
BRANCH  18  21
ATOM     21  C   UNL     1      -5.153   1.200  24.857  0.00  0.00    +0.255 C 
BRANCH  21   5
ATOM      5  O   UNL     1      -5.333   2.599  24.781  0.00  0.00    -0.374 OA
ATOM     25  C   UNL     1      -6.157   3.086  25.836  0.00  0.00    +0.194 C 
ENDBRANCH  21   5
ENDBRANCH  18  21
ENDBRANCH  12   7
ENDBRANCH   9  12
BRANCH  11  13
ATOM     13  C   UNL     1      -1.984   4.635  26.106  0.00  0.00    +0.190 C 
BRANCH  13   3
ATOM      3  O   UNL     1      -3.126   3.802  25.983  0.00  0.00    -0.392 OA
ATOM     28  H   UNL     1      -3.401   3.559  26.883  0.00  0.00    +0.210 HD
ENDBRANCH  13   3
ENDBRANCH  11  13
TORSDOF 11
ENDMDL
