MODEL 1
REMARK VINA RESULT:      -2.8      0.000      0.000
REMARK  Name = 26744519
REMARK  5 active torsions:
REMARK  status: ('A' for Active; 'I' for Inactive)
REMARK    1  A    between atoms: O_2  and  C_9
REMARK    2  A    between atoms: N_4  and  C_12
REMARK    3  A    between atoms: C_7  and  C_11
REMARK    4  A    between atoms: C_13  and  C_14
REMARK    5  A    between atoms: C_17  and  C_20
REMARK                            x       y       z     vdW  Elec       q    Type
REMARK                         _______ _______ _______ _____ _____    ______ ____
ROOT
ATOM      3  O   UNL     1       0.783  -1.092  23.765  0.00  0.00    -0.336 OA
ATOM      5  N   UNL     1       0.805   1.138  23.557  0.00  0.00    -0.190 NA
ATOM      6  N   UNL     1      -0.475  -0.648  24.194  0.00  0.00    -0.056 NA
ATOM     11  C   UNL     1       1.474   0.022  23.407  0.00  0.00    +0.245 A 
ATOM     13  C   UNL     1      -0.383   0.677  24.042  0.00  0.00    +0.202 A 
ENDROOT
BRANCH  13  14
ATOM      1  F   UNL     1      -1.964   4.910  25.704  0.00  0.00    -0.205 F 
ATOM     14  C   UNL     1      -1.461   1.567  24.365  0.00  0.00    +0.025 A 
ATOM     15  C   UNL     1      -1.188   2.832  24.888  0.00  0.00    +0.050 A 
ATOM     16  C   UNL     1      -2.781   1.168  24.158  0.00  0.00    +0.012 A 
ATOM     17  C   UNL     1      -3.556   3.298  24.994  0.00  0.00    -0.015 A 
ATOM     18  C   UNL     1      -2.236   3.696  25.202  0.00  0.00    +0.127 A 
ATOM     19  C   UNL     1      -3.829   2.034  24.472  0.00  0.00    +0.007 A 
ATOM     20  C   UNL     1      -4.679   4.221  25.329  0.00  0.00    +0.047 C 
ENDBRANCH  13  14
BRANCH  11   7
ATOM      4  N   UNL     1       3.796   0.907  23.271  0.00  0.00    -0.292 NA
ATOM      7  C   UNL     1       2.883  -0.193  22.899  0.00  0.00    +0.148 C 
ATOM      8  C   UNL     1       3.539  -1.462  23.479  0.00  0.00    +0.061 C 
ATOM      9  C   UNL     1       4.835  -0.979  24.118  0.00  0.00    +0.130 C 
ATOM     10  C   UNL     1       5.128   0.318  23.388  0.00  0.00    +0.116 C 
ATOM     12  C   UNL     1       3.767   2.019  22.331  0.00  0.00    +0.105 C 
BRANCH   9   2
ATOM      2  O   UNL     1       5.867  -1.928  23.937  0.00  0.00    -0.390 OA
ATOM     21  H   UNL     1       6.027  -2.352  24.798  0.00  0.00    +0.210 HD
ENDBRANCH   9   2
ENDBRANCH  11   7
TORSDOF 3
ENDMDL
MODEL 2
REMARK VINA RESULT:      -2.7      1.400      1.730
REMARK  Name = 26744519
REMARK  5 active torsions:
REMARK  status: ('A' for Active; 'I' for Inactive)
REMARK    1  A    between atoms: O_2  and  C_9
REMARK    2  A    between atoms: N_4  and  C_12
REMARK    3  A    between atoms: C_7  and  C_11
REMARK    4  A    between atoms: C_13  and  C_14
REMARK    5  A    between atoms: C_17  and  C_20
REMARK                            x       y       z     vdW  Elec       q    Type
REMARK                         _______ _______ _______ _____ _____    ______ ____
ROOT
ATOM      3  O   UNL     1       1.583   1.880  24.179  0.00  0.00    -0.336 OA
ATOM      5  N   UNL     1       0.131   0.356  23.411  0.00  0.00    -0.190 NA
ATOM      6  N   UNL     1       0.318   2.288  24.621  0.00  0.00    -0.056 NA
ATOM     11  C   UNL     1       1.383   0.734  23.474  0.00  0.00    +0.245 A 
ATOM     13  C   UNL     1      -0.484   1.339  24.129  0.00  0.00    +0.202 A 
ENDROOT
BRANCH  13  14
ATOM      1  F   UNL     1      -4.615   3.731  24.758  0.00  0.00    -0.205 F 
ATOM     14  C   UNL     1      -1.903   1.345  24.335  0.00  0.00    +0.025 A 
ATOM     15  C   UNL     1      -2.587   2.557  24.449  0.00  0.00    +0.050 A 
ATOM     16  C   UNL     1      -2.601   0.141  24.419  0.00  0.00    +0.012 A 
ATOM     17  C   UNL     1      -4.665   1.357  24.734  0.00  0.00    -0.015 A 
ATOM     18  C   UNL     1      -3.967   2.562  24.649  0.00  0.00    +0.127 A 
ATOM     19  C   UNL     1      -3.982   0.147  24.618  0.00  0.00    +0.007 A 
ATOM     20  C   UNL     1      -6.141   1.360  24.947  0.00  0.00    +0.047 C 
ENDBRANCH  13  14
BRANCH  11   7
ATOM      4  N   UNL     1       3.834   0.896  23.071  0.00  0.00    -0.292 NA
ATOM      7  C   UNL     1       2.615   0.084  22.883  0.00  0.00    +0.148 C 
ATOM      8  C   UNL     1       2.943  -1.274  23.533  0.00  0.00    +0.061 C 
ATOM      9  C   UNL     1       4.381  -1.142  24.018  0.00  0.00    +0.130 C 
ATOM     10  C   UNL     1       4.951  -0.043  23.142  0.00  0.00    +0.116 C 
ATOM     12  C   UNL     1       4.023   1.897  22.029  0.00  0.00    +0.105 C 
BRANCH   9   2
ATOM      2  O   UNL     1       5.080  -2.361  23.854  0.00  0.00    -0.390 OA
ATOM     21  H   UNL     1       4.424  -3.046  23.638  0.00  0.00    +0.210 HD
ENDBRANCH   9   2
ENDBRANCH  11   7
TORSDOF 3
ENDMDL
MODEL 3
REMARK VINA RESULT:      -2.6      1.859      2.372
REMARK  Name = 26744519
REMARK  5 active torsions:
REMARK  status: ('A' for Active; 'I' for Inactive)
REMARK    1  A    between atoms: O_2  and  C_9
REMARK    2  A    between atoms: N_4  and  C_12
REMARK    3  A    between atoms: C_7  and  C_11
REMARK    4  A    between atoms: C_13  and  C_14
REMARK    5  A    between atoms: C_17  and  C_20
REMARK                            x       y       z     vdW  Elec       q    Type
REMARK                         _______ _______ _______ _____ _____    ______ ____
ROOT
ATOM      3  O   UNL     1       0.910   2.051  24.249  0.00  0.00    -0.336 OA
ATOM      5  N   UNL     1      -0.635   0.464  23.915  0.00  0.00    -0.190 NA
ATOM      6  N   UNL     1      -0.306   2.591  24.688  0.00  0.00    -0.056 NA
ATOM     11  C   UNL     1       0.627   0.797  23.809  0.00  0.00    +0.245 A 
ATOM     13  C   UNL     1      -1.167   1.596  24.459  0.00  0.00    +0.202 A 
ENDROOT
BRANCH  13  14
ATOM      1  F   UNL     1      -5.017   4.251  25.604  0.00  0.00    -0.205 F 
ATOM     14  C   UNL     1      -2.565   1.701  24.760  0.00  0.00    +0.025 A 
ATOM     15  C   UNL     1      -3.127   2.947  25.042  0.00  0.00    +0.050 A 
ATOM     16  C   UNL     1      -3.364   0.558  24.771  0.00  0.00    +0.012 A 
ATOM     17  C   UNL     1      -5.286   1.905  25.346  0.00  0.00    -0.015 A 
ATOM     18  C   UNL     1      -4.486   3.049  25.335  0.00  0.00    +0.127 A 
ATOM     19  C   UNL     1      -4.725   0.660  25.063  0.00  0.00    +0.007 A 
ATOM     20  C   UNL     1      -6.740   2.011  25.658  0.00  0.00    +0.047 C 
ENDBRANCH  13  14
BRANCH  11   7
ATOM      4  N   UNL     1       1.956   0.126  21.814  0.00  0.00    -0.292 NA
ATOM      7  C   UNL     1       1.792  -0.010  23.276  0.00  0.00    +0.148 C 
ATOM      8  C   UNL     1       3.144   0.434  23.867  0.00  0.00    +0.061 C 
ATOM      9  C   UNL     1       4.015   0.756  22.659  0.00  0.00    +0.130 C 
ATOM     10  C   UNL     1       3.381  -0.047  21.539  0.00  0.00    +0.116 C 
ATOM     12  C   UNL     1       1.133  -0.806  21.055  0.00  0.00    +0.105 C 
BRANCH   9   2
ATOM      2  O   UNL     1       5.356   0.369  22.889  0.00  0.00    -0.390 OA
ATOM     21  H   UNL     1       5.509   0.406  23.849  0.00  0.00    +0.210 HD
ENDBRANCH   9   2
ENDBRANCH  11   7
TORSDOF 3
ENDMDL
MODEL 4
REMARK VINA RESULT:      -2.4      3.135      7.415
REMARK  Name = 26744519
REMARK  5 active torsions:
REMARK  status: ('A' for Active; 'I' for Inactive)
REMARK    1  A    between atoms: O_2  and  C_9
REMARK    2  A    between atoms: N_4  and  C_12
REMARK    3  A    between atoms: C_7  and  C_11
REMARK    4  A    between atoms: C_13  and  C_14
REMARK    5  A    between atoms: C_17  and  C_20
REMARK                            x       y       z     vdW  Elec       q    Type
REMARK                         _______ _______ _______ _____ _____    ______ ____
ROOT
ATOM      3  O   UNL     1      -1.510   0.662  23.280  0.00  0.00    -0.336 OA
ATOM      5  N   UNL     1       0.123   1.514  24.554  0.00  0.00    -0.190 NA
ATOM      6  N   UNL     1      -0.309   0.154  22.766  0.00  0.00    -0.056 NA
ATOM     11  C   UNL     1      -1.166   1.453  24.330  0.00  0.00    +0.245 A 
ATOM     13  C   UNL     1       0.606   0.702  23.571  0.00  0.00    +0.202 A 
ENDROOT
BRANCH  13  14
ATOM      1  F   UNL     1       4.417  -2.220  23.931  0.00  0.00    -0.205 F 
ATOM     14  C   UNL     1       2.012   0.459  23.417  0.00  0.00    +0.025 A 
ATOM     15  C   UNL     1       2.546  -0.785  23.754  0.00  0.00    +0.050 A 
ATOM     16  C   UNL     1       2.845   1.467  22.931  0.00  0.00    +0.012 A 
ATOM     17  C   UNL     1       4.745  -0.013  23.118  0.00  0.00    -0.015 A 
ATOM     18  C   UNL     1       3.912  -1.020  23.605  0.00  0.00    +0.127 A 
ATOM     19  C   UNL     1       4.211   1.231  22.781  0.00  0.00    +0.007 A 
ATOM     20  C   UNL     1       6.207  -0.262  22.956  0.00  0.00    +0.047 C 
ENDBRANCH  13  14
BRANCH  11   7
ATOM      4  N   UNL     1      -2.572   3.492  24.568  0.00  0.00    -0.292 NA
ATOM      7  C   UNL     1      -2.302   2.128  25.066  0.00  0.00    +0.148 C 
ATOM      8  C   UNL     1      -3.641   1.380  24.912  0.00  0.00    +0.061 C 
ATOM      9  C   UNL     1      -4.611   2.418  24.362  0.00  0.00    +0.130 C 
ATOM     10  C   UNL     1      -3.996   3.738  24.786  0.00  0.00    +0.116 C 
ATOM     12  C   UNL     1      -1.737   4.508  25.194  0.00  0.00    +0.105 C 
BRANCH   9   2
ATOM      2  O   UNL     1      -5.902   2.239  24.911  0.00  0.00    -0.390 OA
ATOM     21  H   UNL     1      -5.791   2.029  25.854  0.00  0.00    +0.210 HD
ENDBRANCH   9   2
ENDBRANCH  11   7
TORSDOF 3
ENDMDL
MODEL 5
REMARK VINA RESULT:      -2.2      3.153      7.456
REMARK  Name = 26744519
REMARK  5 active torsions:
REMARK  status: ('A' for Active; 'I' for Inactive)
REMARK    1  A    between atoms: O_2  and  C_9
REMARK    2  A    between atoms: N_4  and  C_12
REMARK    3  A    between atoms: C_7  and  C_11
REMARK    4  A    between atoms: C_13  and  C_14
REMARK    5  A    between atoms: C_17  and  C_20
REMARK                            x       y       z     vdW  Elec       q    Type
REMARK                         _______ _______ _______ _____ _____    ______ ____
ROOT
ATOM      3  O   UNL     1      -1.571  -0.829  24.253  0.00  0.00    -0.336 OA
ATOM      5  N   UNL     1      -0.419   0.923  23.467  0.00  0.00    -0.190 NA
ATOM      6  N   UNL     1      -0.228  -1.227  24.222  0.00  0.00    -0.056 NA
ATOM     11  C   UNL     1      -1.595   0.449  23.793  0.00  0.00    +0.245 A 
ATOM     13  C   UNL     1       0.387  -0.140  23.747  0.00  0.00    +0.202 A 
ENDROOT
BRANCH  13  14
ATOM      1  F   UNL     1       4.739  -2.185  23.996  0.00  0.00    -0.205 F 
ATOM     14  C   UNL     1       1.806  -0.085  23.540  0.00  0.00    +0.025 A 
ATOM     15  C   UNL     1       2.603  -1.181  23.874  0.00  0.00    +0.050 A 
ATOM     16  C   UNL     1       2.388   1.064  23.004  0.00  0.00    +0.012 A 
ATOM     17  C   UNL     1       4.564   0.022  23.136  0.00  0.00    -0.015 A 
ATOM     18  C   UNL     1       3.981  -1.127  23.672  0.00  0.00    +0.127 A 
ATOM     19  C   UNL     1       3.768   1.117  22.802  0.00  0.00    +0.007 A 
ATOM     20  C   UNL     1       6.039   0.082  22.919  0.00  0.00    +0.047 C 
ENDBRANCH  13  14
BRANCH  11   7
ATOM      4  N   UNL     1      -3.902   0.572  24.721  0.00  0.00    -0.292 NA
ATOM      7  C   UNL     1      -2.952   1.117  23.729  0.00  0.00    +0.148 C 
ATOM      8  C   UNL     1      -2.888   2.626  24.033  0.00  0.00    +0.061 C 
ATOM      9  C   UNL     1      -3.868   2.839  25.180  0.00  0.00    +0.130 C 
ATOM     10  C   UNL     1      -4.815   1.661  25.061  0.00  0.00    +0.116 C 
ATOM     12  C   UNL     1      -4.608  -0.611  24.249  0.00  0.00    +0.105 C 
BRANCH   9   2
ATOM      2  O   UNL     1      -4.545   4.073  25.040  0.00  0.00    -0.390 OA
ATOM     21  H   UNL     1      -4.368   4.402  24.142  0.00  0.00    +0.210 HD
ENDBRANCH   9   2
ENDBRANCH  11   7
TORSDOF 3
ENDMDL
MODEL 6
REMARK VINA RESULT:      -2.1      3.320      7.523
REMARK  Name = 26744519
REMARK  5 active torsions:
REMARK  status: ('A' for Active; 'I' for Inactive)
REMARK    1  A    between atoms: O_2  and  C_9
REMARK    2  A    between atoms: N_4  and  C_12
REMARK    3  A    between atoms: C_7  and  C_11
REMARK    4  A    between atoms: C_13  and  C_14
REMARK    5  A    between atoms: C_17  and  C_20
REMARK                            x       y       z     vdW  Elec       q    Type
REMARK                         _______ _______ _______ _____ _____    ______ ____
ROOT
ATOM      3  O   UNL     1      -1.021   2.153  24.110  0.00  0.00    -0.336 OA
ATOM      5  N   UNL     1      -0.270   0.129  23.514  0.00  0.00    -0.190 NA
ATOM      6  N   UNL     1       0.374   2.262  24.031  0.00  0.00    -0.056 NA
ATOM     11  C   UNL     1      -1.316   0.865  23.791  0.00  0.00    +0.245 A 
ATOM     13  C   UNL     1       0.743   1.028  23.674  0.00  0.00    +0.202 A 
ENDROOT
BRANCH  13  14
ATOM      1  F   UNL     1       4.291  -2.218  23.915  0.00  0.00    -0.205 F 
ATOM     14  C   UNL     1       2.115   0.662  23.472  0.00  0.00    +0.025 A 
ATOM     15  C   UNL     1       2.549  -0.624  23.797  0.00  0.00    +0.050 A 
ATOM     16  C   UNL     1       3.015   1.590  22.950  0.00  0.00    +0.012 A 
ATOM     17  C   UNL     1       4.783  -0.051  23.078  0.00  0.00    -0.015 A 
ATOM     18  C   UNL     1       3.883  -0.980  23.600  0.00  0.00    +0.127 A 
ATOM     19  C   UNL     1       4.349   1.234  22.753  0.00  0.00    +0.007 A 
ATOM     20  C   UNL     1       6.211  -0.429  22.866  0.00  0.00    +0.047 C 
ENDBRANCH  13  14
BRANCH  11   7
ATOM      4  N   UNL     1      -3.165  -0.266  25.014  0.00  0.00    -0.292 NA
ATOM      7  C   UNL     1      -2.782   0.487  23.803  0.00  0.00    +0.148 C 
ATOM      8  C   UNL     1      -3.714   1.713  23.790  0.00  0.00    +0.061 C 
ATOM      9  C   UNL     1      -4.614   1.537  25.008  0.00  0.00    +0.130 C 
ATOM     10  C   UNL     1      -4.571   0.044  25.267  0.00  0.00    +0.116 C 
ATOM     12  C   UNL     1      -2.931  -1.700  24.897  0.00  0.00    +0.105 C 
BRANCH   9   2
ATOM      2  O   UNL     1      -5.926   1.985  24.731  0.00  0.00    -0.390 OA
ATOM     21  H   UNL     1      -6.528   1.236  24.883  0.00  0.00    +0.210 HD
ENDBRANCH   9   2
ENDBRANCH  11   7
TORSDOF 3
ENDMDL
MODEL 7
REMARK VINA RESULT:      -1.1      2.943      7.269
REMARK  Name = 26744519
REMARK  5 active torsions:
REMARK  status: ('A' for Active; 'I' for Inactive)
REMARK    1  A    between atoms: O_2  and  C_9
REMARK    2  A    between atoms: N_4  and  C_12
REMARK    3  A    between atoms: C_7  and  C_11
REMARK    4  A    between atoms: C_13  and  C_14
REMARK    5  A    between atoms: C_17  and  C_20
REMARK                            x       y       z     vdW  Elec       q    Type
REMARK                         _______ _______ _______ _____ _____    ______ ____
ROOT
ATOM      3  O   UNL     1      -2.266  -0.172  24.146  0.00  0.00    -0.336 OA
ATOM      5  N   UNL     1      -0.687   1.312  24.715  0.00  0.00    -0.190 NA
ATOM      6  N   UNL     1      -1.062  -0.661  23.620  0.00  0.00    -0.056 NA
ATOM     11  C   UNL     1      -1.956   0.992  24.774  0.00  0.00    +0.245 A 
ATOM     13  C   UNL     1      -0.180   0.269  23.998  0.00  0.00    +0.202 A 
ENDROOT
BRANCH  13  14
ATOM      1  F   UNL     1       3.919   2.349  22.566  0.00  0.00    -0.205 F 
ATOM     14  C   UNL     1       1.215   0.185  23.674  0.00  0.00    +0.025 A 
ATOM     15  C   UNL     1       1.907   1.328  23.269  0.00  0.00    +0.050 A 
ATOM     16  C   UNL     1       1.880  -1.038  23.763  0.00  0.00    +0.012 A 
ATOM     17  C   UNL     1       3.928   0.023  23.044  0.00  0.00    -0.015 A 
ATOM     18  C   UNL     1       3.263   1.246  22.954  0.00  0.00    +0.127 A 
ATOM     19  C   UNL     1       3.237  -1.119  23.449  0.00  0.00    +0.007 A 
ATOM     20  C   UNL     1       5.378  -0.067  22.708  0.00  0.00    +0.047 C 
ENDBRANCH  13  14
BRANCH  11   7
ATOM      4  N   UNL     1      -3.286   3.092  24.901  0.00  0.00    -0.292 NA
ATOM      7  C   UNL     1      -3.102   1.727  25.435  0.00  0.00    +0.148 C 
ATOM      8  C   UNL     1      -4.460   1.033  25.218  0.00  0.00    +0.061 C 
ATOM      9  C   UNL     1      -5.354   2.099  24.598  0.00  0.00    +0.130 C 
ATOM     10  C   UNL     1      -4.709   3.400  25.035  0.00  0.00    +0.116 C 
ATOM     12  C   UNL     1      -2.445   4.084  25.556  0.00  0.00    +0.105 C 
BRANCH   9   2
ATOM      2  O   UNL     1      -6.679   1.983  25.078  0.00  0.00    -0.390 OA
ATOM     21  H   UNL     1      -6.630   1.829  26.036  0.00  0.00    +0.210 HD
ENDBRANCH   9   2
ENDBRANCH  11   7
TORSDOF 3
ENDMDL
MODEL 8
REMARK VINA RESULT:      -0.7      3.562      7.813
REMARK  Name = 26744519
REMARK  5 active torsions:
REMARK  status: ('A' for Active; 'I' for Inactive)
REMARK    1  A    between atoms: O_2  and  C_9
REMARK    2  A    between atoms: N_4  and  C_12
REMARK    3  A    between atoms: C_7  and  C_11
REMARK    4  A    between atoms: C_13  and  C_14
REMARK    5  A    between atoms: C_17  and  C_20
REMARK                            x       y       z     vdW  Elec       q    Type
REMARK                         _______ _______ _______ _____ _____    ______ ____
ROOT
ATOM      3  O   UNL     1      -2.015   2.387  25.662  0.00  0.00    -0.336 OA
ATOM      5  N   UNL     1      -1.790   1.639  23.563  0.00  0.00    -0.190 NA
ATOM      6  N   UNL     1      -0.658   2.081  25.500  0.00  0.00    -0.056 NA
ATOM     11  C   UNL     1      -2.610   2.097  24.475  0.00  0.00    +0.245 A 
ATOM     13  C   UNL     1      -0.605   1.647  24.237  0.00  0.00    +0.202 A 
ENDROOT
BRANCH  13  14
ATOM      1  F   UNL     1       1.740  -1.173  21.118  0.00  0.00    -0.205 F 
ATOM     14  C   UNL     1       0.615   1.213  23.621  0.00  0.00    +0.025 A 
ATOM     15  C   UNL     1       0.589   0.211  22.649  0.00  0.00    +0.050 A 
ATOM     16  C   UNL     1       1.829   1.792  23.993  0.00  0.00    +0.012 A 
ATOM     17  C   UNL     1       2.989   0.369  22.422  0.00  0.00    -0.015 A 
ATOM     18  C   UNL     1       1.775  -0.210  22.051  0.00  0.00    +0.127 A 
ATOM     19  C   UNL     1       3.015   1.370  23.393  0.00  0.00    +0.007 A 
ATOM     20  C   UNL     1       4.260  -0.080  21.783  0.00  0.00    +0.047 C 
ENDBRANCH  13  14
BRANCH  11   7
ATOM      4  N   UNL     1      -4.875   1.478  25.301  0.00  0.00    -0.292 NA
ATOM      7  C   UNL     1      -4.101   2.346  24.390  0.00  0.00    +0.148 C 
ATOM      8  C   UNL     1      -4.490   3.782  24.789  0.00  0.00    +0.061 C 
ATOM      9  C   UNL     1      -5.519   3.617  25.900  0.00  0.00    +0.130 C 
ATOM     10  C   UNL     1      -6.076   2.227  25.665  0.00  0.00    +0.116 C 
ATOM     12  C   UNL     1      -5.191   0.178  24.725  0.00  0.00    +0.105 C 
BRANCH   9   2
ATOM      2  O   UNL     1      -6.523   4.609  25.805  0.00  0.00    -0.390 OA
ATOM     21  H   UNL     1      -7.336   4.238  26.189  0.00  0.00    +0.210 HD
ENDBRANCH   9   2
ENDBRANCH  11   7
TORSDOF 3
ENDMDL
MODEL 9
REMARK VINA RESULT:      -0.5      3.303      7.271
REMARK  Name = 26744519
REMARK  5 active torsions:
REMARK  status: ('A' for Active; 'I' for Inactive)
REMARK    1  A    between atoms: O_2  and  C_9
REMARK    2  A    between atoms: N_4  and  C_12
REMARK    3  A    between atoms: C_7  and  C_11
REMARK    4  A    between atoms: C_13  and  C_14
REMARK    5  A    between atoms: C_17  and  C_20
REMARK                            x       y       z     vdW  Elec       q    Type
REMARK                         _______ _______ _______ _____ _____    ______ ____
ROOT
ATOM      3  O   UNL     1      -0.881   1.624  24.147  0.00  0.00    -0.336 OA
ATOM      5  N   UNL     1       0.148  -0.364  24.232  0.00  0.00    -0.190 NA
ATOM      6  N   UNL     1       0.452   1.859  23.786  0.00  0.00    -0.056 NA
ATOM     11  C   UNL     1      -0.974   0.290  24.393  0.00  0.00    +0.245 A 
ATOM     13  C   UNL     1       0.994   0.639  23.860  0.00  0.00    +0.202 A 
ENDROOT
BRANCH  13  14
ATOM      1  F   UNL     1       4.836  -2.261  23.948  0.00  0.00    -0.205 F 
ATOM     14  C   UNL     1       2.376   0.391  23.570  0.00  0.00    +0.025 A 
ATOM     15  C   UNL     1       2.950  -0.837  23.904  0.00  0.00    +0.050 A 
ATOM     16  C   UNL     1       3.147   1.375  22.952  0.00  0.00    +0.012 A 
ATOM     17  C   UNL     1       5.065  -0.093  23.004  0.00  0.00    -0.015 A 
ATOM     18  C   UNL     1       4.294  -1.078  23.622  0.00  0.00    +0.127 A 
ATOM     19  C   UNL     1       4.492   1.133  22.669  0.00  0.00    +0.007 A 
ATOM     20  C   UNL     1       6.503  -0.349  22.700  0.00  0.00    +0.047 C 
ENDBRANCH  13  14
BRANCH  11   7
ATOM      4  N   UNL     1      -3.424   0.291  23.951  0.00  0.00    -0.292 NA
ATOM      7  C   UNL     1      -2.336  -0.225  24.807  0.00  0.00    +0.148 C 
ATOM      8  C   UNL     1      -2.449  -1.758  24.706  0.00  0.00    +0.061 C 
ATOM      9  C   UNL     1      -3.656  -2.006  23.808  0.00  0.00    +0.130 C 
ATOM     10  C   UNL     1      -4.467  -0.732  23.945  0.00  0.00    +0.116 C 
ATOM     12  C   UNL     1      -3.929   1.588  24.383  0.00  0.00    +0.105 C 
BRANCH   9   2
ATOM      2  O   UNL     1      -4.380  -3.140  24.243  0.00  0.00    -0.390 OA
ATOM     21  H   UNL     1      -5.310  -2.872  24.340  0.00  0.00    +0.210 HD
ENDBRANCH   9   2
ENDBRANCH  11   7
TORSDOF 3
ENDMDL
