MODEL 1
REMARK VINA RESULT:      -0.4      0.000      0.000
REMARK  Name = 11912475
REMARK  6 active torsions:
REMARK  status: ('A' for Active; 'I' for Inactive)
REMARK    1  A    between atoms: O_7  and  C_16
REMARK    2  A    between atoms: O_7  and  C_20
REMARK    3  A    between atoms: N_9  and  C_15
REMARK    4  A    between atoms: N_12  and  C_23
REMARK    5  A    between atoms: C_21  and  C_25
REMARK    6  A    between atoms: C_28  and  C_32
REMARK                            x       y       z     vdW  Elec       q    Type
REMARK                         _______ _______ _______ _____ _____    ______ ____
ROOT
ATOM      5  O   UNL     1      -2.497   0.105  25.008  0.00  0.00    -0.368 OA
ATOM      6  O   UNL     1      -3.501  -2.626  24.035  0.00  0.00    -0.368 OA
ATOM     13  C   UNL     1      -4.162  -1.565  24.755  0.00  0.00    +0.173 C 
ATOM     14  C   UNL     1      -3.140  -0.975  25.706  0.00  0.00    +0.192 C 
ATOM     15  C   UNL     1      -4.487  -0.425  23.816  0.00  0.00    +0.130 C 
ATOM     16  C   UNL     1      -2.197  -2.134  25.930  0.00  0.00    +0.235 C 
ATOM     17  C   UNL     1      -3.172   0.334  23.763  0.00  0.00    +0.185 C 
ATOM     18  C   UNL     1      -2.183  -2.802  24.574  0.00  0.00    +0.207 C 
ENDROOT
BRANCH  15   9
ATOM      9  N   UNL     1      -5.527   0.409  24.378  0.00  0.00    -0.306 N 
ATOM     10  N   UNL     1      -4.070   2.227  24.661  0.00  0.00    -0.214 NA
ATOM     11  N   UNL     1      -6.388   2.386  25.301  0.00  0.00    -0.223 NA
ATOM     19  C   UNL     1      -5.323   1.713  24.792  0.00  0.00    +0.216 A 
ATOM     21  C   UNL     1      -3.907   3.500  25.074  0.00  0.00    +0.083 A 
ATOM     22  C   UNL     1      -6.154   3.655  25.695  0.00  0.00    +0.116 A 
ATOM     24  C   UNL     1      -4.922   4.270  25.605  0.00  0.00    +0.049 A 
ATOM     35  H   UNL     1      -6.475   0.054  24.431  0.00  0.00    +0.149 HD
BRANCH  21  25
ATOM      1  S   UNL     1      -1.368   3.017  24.223  0.00  0.00    -0.095 S 
ATOM     25  C   UNL     1      -2.573   4.017  24.924  0.00  0.00    +0.038 A 
ATOM     29  C   UNL     1      -2.072   5.255  25.270  0.00  0.00    +0.017 A 
ATOM     33  C   UNL     1      -0.688   5.384  24.957  0.00  0.00    +0.008 A 
ATOM     34  C   UNL     1      -0.179   4.239  24.382  0.00  0.00    +0.046 A 
ENDBRANCH  21  25
ENDBRANCH  15   9
BRANCH  16   7
ATOM      7  O   UNL     1      -0.908  -1.739  26.341  0.00  0.00    -0.442 OA
BRANCH   7  20
ATOM      8  O   UNL     1       0.769  -2.937  25.352  0.00  0.00    -0.226 OA
ATOM     12  N   UNL     1       0.255  -0.756  24.677  0.00  0.00    -0.251 N 
ATOM     20  C   UNL     1       0.116  -1.905  25.432  0.00  0.00    +0.405 C 
ATOM     36  H   UNL     1      -0.387   0.004  24.894  0.00  0.00    +0.158 HD
BRANCH  12  23
ATOM     23  C   UNL     1       1.181  -0.502  23.640  0.00  0.00    +0.037 A 
ATOM     26  C   UNL     1       2.520  -0.331  23.950  0.00  0.00    +0.035 A 
ATOM     27  C   UNL     1       0.730  -0.430  22.331  0.00  0.00    +0.023 A 
ATOM     28  C   UNL     1       3.434  -0.082  22.926  0.00  0.00    +0.057 A 
ATOM     30  C   UNL     1       1.644  -0.181  21.306  0.00  0.00    +0.002 A 
ATOM     31  C   UNL     1       2.995  -0.007  21.604  0.00  0.00    +0.012 A 
BRANCH  28  32
ATOM      2  F   UNL     1       5.183   1.354  23.700  0.00  0.00    -0.166 F 
ATOM      3  F   UNL     1       5.340  -0.749  24.206  0.00  0.00    -0.166 F 
ATOM      4  F   UNL     1       5.685  -0.097  22.161  0.00  0.00    -0.166 F 
ATOM     32  C   UNL     1       4.879   0.103  23.243  0.00  0.00    +0.417 C 
ENDBRANCH  28  32
ENDBRANCH  12  23
ENDBRANCH   7  20
ENDBRANCH  16   7
TORSDOF 6
ENDMDL
MODEL 2
REMARK VINA RESULT:       3.0      1.554      2.246
REMARK  Name = 11912475
REMARK  6 active torsions:
REMARK  status: ('A' for Active; 'I' for Inactive)
REMARK    1  A    between atoms: O_7  and  C_16
REMARK    2  A    between atoms: O_7  and  C_20
REMARK    3  A    between atoms: N_9  and  C_15
REMARK    4  A    between atoms: N_12  and  C_23
REMARK    5  A    between atoms: C_21  and  C_25
REMARK    6  A    between atoms: C_28  and  C_32
REMARK                            x       y       z     vdW  Elec       q    Type
REMARK                         _______ _______ _______ _____ _____    ______ ____
ROOT
ATOM      5  O   UNL     1      -3.285  -1.340  23.522  0.00  0.00    -0.368 OA
ATOM      6  O   UNL     1      -1.615  -0.961  26.068  0.00  0.00    -0.368 OA
ATOM     13  C   UNL     1      -2.721  -0.208  25.528  0.00  0.00    +0.173 C 
ATOM     14  C   UNL     1      -2.558  -0.205  24.022  0.00  0.00    +0.192 C 
ATOM     15  C   UNL     1      -4.015  -0.956  25.754  0.00  0.00    +0.130 C 
ATOM     16  C   UNL     1      -1.067  -0.379  23.855  0.00  0.00    +0.235 C 
ATOM     17  C   UNL     1      -4.027  -1.938  24.594  0.00  0.00    +0.185 C 
ATOM     18  C   UNL     1      -0.724  -1.307  24.997  0.00  0.00    +0.207 C 
ENDROOT
BRANCH  15   9
ATOM      9  N   UNL     1      -5.141  -0.053  25.659  0.00  0.00    -0.306 N 
ATOM     10  N   UNL     1      -3.756   1.830  25.449  0.00  0.00    -0.214 NA
ATOM     11  N   UNL     1      -6.156   2.050  25.430  0.00  0.00    -0.223 NA
ATOM     19  C   UNL     1      -5.014   1.317  25.508  0.00  0.00    +0.216 A 
ATOM     21  C   UNL     1      -3.669   3.168  25.301  0.00  0.00    +0.083 A 
ATOM     22  C   UNL     1      -5.995   3.382  25.282  0.00  0.00    +0.116 A 
ATOM     24  C   UNL     1      -4.765   4.002  25.211  0.00  0.00    +0.049 A 
ATOM     35  H   UNL     1      -6.083  -0.429  25.648  0.00  0.00    +0.149 HD
BRANCH  21  25
ATOM      1  S   UNL     1      -1.029   2.680  25.748  0.00  0.00    -0.095 S 
ATOM     25  C   UNL     1      -2.326   3.682  25.243  0.00  0.00    +0.038 A 
ATOM     29  C   UNL     1      -1.884   4.920  24.825  0.00  0.00    +0.017 A 
ATOM     33  C   UNL     1      -0.467   5.046  24.918  0.00  0.00    +0.008 A 
ATOM     34  C   UNL     1       0.122   3.900  25.405  0.00  0.00    +0.046 A 
ENDBRANCH  21  25
ENDBRANCH  15   9
BRANCH  16   7
ATOM      7  O   UNL     1      -0.700  -0.917  22.605  0.00  0.00    -0.442 OA
BRANCH   7  20
ATOM      8  O   UNL     1       0.885  -0.753  20.966  0.00  0.00    -0.226 OA
ATOM     12  N   UNL     1       1.337  -0.137  23.179  0.00  0.00    -0.251 N 
ATOM     20  C   UNL     1       0.560  -0.609  22.137  0.00  0.00    +0.405 C 
ATOM     36  H   UNL     1       0.885  -0.090  24.089  0.00  0.00    +0.158 HD
BRANCH  12  23
ATOM     23  C   UNL     1       2.684   0.288  23.137  0.00  0.00    +0.037 A 
ATOM     26  C   UNL     1       3.685  -0.588  23.523  0.00  0.00    +0.035 A 
ATOM     27  C   UNL     1       2.977   1.573  22.709  0.00  0.00    +0.023 A 
ATOM     28  C   UNL     1       5.015  -0.168  23.481  0.00  0.00    +0.057 A 
ATOM     30  C   UNL     1       4.307   1.993  22.667  0.00  0.00    +0.002 A 
ATOM     31  C   UNL     1       5.326   1.122  23.053  0.00  0.00    +0.012 A 
BRANCH  28  32
ATOM      2  F   UNL     1       6.440  -1.001  25.213  0.00  0.00    -0.166 F 
ATOM      3  F   UNL     1       5.799  -2.418  23.700  0.00  0.00    -0.166 F 
ATOM      4  F   UNL     1       7.264  -0.889  23.204  0.00  0.00    -0.166 F 
ATOM     32  C   UNL     1       6.105  -1.100  23.892  0.00  0.00    +0.417 C 
ENDBRANCH  28  32
ENDBRANCH  12  23
ENDBRANCH   7  20
ENDBRANCH  16   7
TORSDOF 6
ENDMDL
