MODEL 1
REMARK VINA RESULT:       5.5      0.000      0.000
REMARK  Name = 7127920
REMARK  11 active torsions:
REMARK  status: ('A' for Active; 'I' for Inactive)
REMARK    1  A    between atoms: O_2  and  C_12
REMARK    2  A    between atoms: O_3  and  C_13
REMARK    3  A    between atoms: O_7  and  C_29
REMARK    4  A    between atoms: O_7  and  C_35
REMARK    5  A    between atoms: N_8  and  C_14
REMARK    6  A    between atoms: N_9  and  C_19
REMARK    7  A    between atoms: N_10  and  C_26
REMARK    8  A    between atoms: C_16  and  C_18
REMARK    9  A    between atoms: C_19  and  C_21
REMARK   10  A    between atoms: C_19  and  C_23
REMARK   11  A    between atoms: C_21  and  C_22
REMARK                            x       y       z     vdW  Elec       q    Type
REMARK                         _______ _______ _______ _____ _____    ______ ____
ROOT
ATOM     12  C   UNL     1      -1.606  -2.562  25.273  0.00  0.00    +0.167 C 
ATOM     13  C   UNL     1      -2.956  -2.452  25.995  0.00  0.00    +0.149 C 
ATOM     14  C   UNL     1      -1.690  -2.021  23.833  0.00  0.00    +0.129 C 
ATOM     15  C   UNL     1      -3.495  -1.012  25.998  0.00  0.00    +0.074 C 
ATOM     16  C   UNL     1      -3.244  -0.279  24.711  0.00  0.00    +0.015 C 
ATOM     17  C   UNL     1      -2.446  -0.723  23.729  0.00  0.00    +0.006 C 
ENDROOT
BRANCH  14   8
ATOM      5  O   UNL     1       0.227  -0.005  24.512  0.00  0.00    -0.252 OA
ATOM      8  N   UNL     1      -0.381  -1.846  23.253  0.00  0.00    -0.290 N 
ATOM     10  N   UNL     1       1.687  -0.907  22.910  0.00  0.00    -0.268 N 
ATOM     20  C   UNL     1       0.499  -0.830  23.643  0.00  0.00    +0.304 C 
ATOM     36  H   UNL     1      -0.052  -2.540  22.588  0.00  0.00    +0.151 HD
ATOM     40  H   UNL     1       1.753  -1.654  22.222  0.00  0.00    +0.156 HD
BRANCH  10  26
ATOM      1 BR   UNL     1       4.274  -2.368  23.970  0.00  0.00    -0.048 Br
ATOM     26  C   UNL     1       2.821  -0.068  23.003  0.00  0.00    +0.049 A 
ATOM     30  C   UNL     1       4.037  -0.557  23.453  0.00  0.00    +0.039 A 
ATOM     31  C   UNL     1       2.676   1.260  22.631  0.00  0.00    +0.024 A 
ATOM     32  C   UNL     1       5.134   0.301  23.533  0.00  0.00    +0.017 A 
ATOM     33  C   UNL     1       3.772   2.118  22.710  0.00  0.00    +0.002 A 
ATOM     34  C   UNL     1       5.001   1.639  23.162  0.00  0.00    +0.001 A 
ENDBRANCH  10  26
ENDBRANCH  14   8
BRANCH  16  18
ATOM      4  O   UNL     1      -4.887   1.327  25.201  0.00  0.00    -0.271 OA
ATOM      9  N   UNL     1      -3.397   1.733  23.455  0.00  0.00    -0.300 N 
ATOM     18  C   UNL     1      -3.933   0.997  24.497  0.00  0.00    +0.241 C 
ATOM     39  H   UNL     1      -2.623   1.346  22.922  0.00  0.00    +0.150 HD
BRANCH   9  19
ATOM     19  C   UNL     1      -3.910   3.024  23.054  0.00  0.00    +0.163 C 
BRANCH  19  23
ATOM      6  O   UNL     1      -4.208   3.976  20.839  0.00  0.00    -0.274 OA
ATOM     11  N   UNL     1      -2.611   2.351  21.131  0.00  0.00    -0.328 N 
ATOM     23  C   UNL     1      -3.627   3.175  21.567  0.00  0.00    +0.231 C 
ATOM     41  H   UNL     1      -2.136   1.696  21.744  0.00  0.00    +0.145 HD
ATOM     42  H   UNL     1      -2.311   2.363  20.161  0.00  0.00    +0.145 HD
ENDBRANCH  19  23
BRANCH  19  21
ATOM     21  C   UNL     1      -3.267   4.172  23.840  0.00  0.00    +0.067 C 
BRANCH  21  22
ATOM     22  C   UNL     1      -2.097   3.722  24.680  0.00  0.00    -0.045 A 
ATOM     24  C   UNL     1      -2.258   3.582  26.050  0.00  0.00    +0.007 A 
ATOM     25  C   UNL     1      -0.883   3.457  24.067  0.00  0.00    +0.007 A 
ATOM     27  C   UNL     1      -1.174   3.166  26.826  0.00  0.00    +0.046 A 
ATOM     28  C   UNL     1       0.199   3.041  24.843  0.00  0.00    +0.046 A 
ATOM     29  C   UNL     1       0.053   2.896  26.222  0.00  0.00    +0.120 A 
BRANCH  29   7
ATOM      7  O   UNL     1       1.108   2.490  26.980  0.00  0.00    -0.495 OA
ATOM     35  C   UNL     1       0.915   2.456  28.394  0.00  0.00    +0.277 C 
ENDBRANCH  29   7
ENDBRANCH  21  22
ENDBRANCH  19  21
ENDBRANCH   9  19
ENDBRANCH  16  18
BRANCH  12   2
ATOM      2  O   UNL     1      -0.631  -1.820  26.009  0.00  0.00    -0.387 OA
ATOM     37  H   UNL     1      -0.268  -2.386  26.711  0.00  0.00    +0.210 HD
ENDBRANCH  12   2
BRANCH  13   3
ATOM      3  O   UNL     1      -3.906  -3.330  25.395  0.00  0.00    -0.389 OA
ATOM     38  H   UNL     1      -4.530  -2.784  24.887  0.00  0.00    +0.210 HD
ENDBRANCH  13   3
TORSDOF 10
ENDMDL
MODEL 2
REMARK VINA RESULT:       6.1      1.877      2.539
REMARK  Name = 7127920
REMARK  11 active torsions:
REMARK  status: ('A' for Active; 'I' for Inactive)
REMARK    1  A    between atoms: O_2  and  C_12
REMARK    2  A    between atoms: O_3  and  C_13
REMARK    3  A    between atoms: O_7  and  C_29
REMARK    4  A    between atoms: O_7  and  C_35
REMARK    5  A    between atoms: N_8  and  C_14
REMARK    6  A    between atoms: N_9  and  C_19
REMARK    7  A    between atoms: N_10  and  C_26
REMARK    8  A    between atoms: C_16  and  C_18
REMARK    9  A    between atoms: C_19  and  C_21
REMARK   10  A    between atoms: C_19  and  C_23
REMARK   11  A    between atoms: C_21  and  C_22
REMARK                            x       y       z     vdW  Elec       q    Type
REMARK                         _______ _______ _______ _____ _____    ______ ____
ROOT
ATOM     12  C   UNL     1      -2.605  -2.581  24.440  0.00  0.00    +0.167 C 
ATOM     13  C   UNL     1      -4.102  -2.351  24.198  0.00  0.00    +0.149 C 
ATOM     14  C   UNL     1      -1.749  -1.511  23.736  0.00  0.00    +0.129 C 
ATOM     15  C   UNL     1      -4.549  -0.944  24.631  0.00  0.00    +0.074 C 
ATOM     16  C   UNL     1      -3.541   0.124  24.314  0.00  0.00    +0.015 C 
ATOM     17  C   UNL     1      -2.287  -0.115  23.904  0.00  0.00    +0.006 C 
ENDROOT
BRANCH  14   8
ATOM      5  O   UNL     1       0.525  -0.394  22.400  0.00  0.00    -0.252 OA
ATOM      8  N   UNL     1      -0.380  -1.540  24.192  0.00  0.00    -0.290 N 
ATOM     10  N   UNL     1       1.883  -1.153  24.158  0.00  0.00    -0.268 N 
ATOM     20  C   UNL     1       0.677  -0.969  23.476  0.00  0.00    +0.304 C 
ATOM     36  H   UNL     1      -0.188  -1.924  25.113  0.00  0.00    +0.151 HD
ATOM     40  H   UNL     1       1.838  -1.654  25.042  0.00  0.00    +0.156 HD
BRANCH  10  26
ATOM      1 BR   UNL     1       1.987   1.826  23.124  0.00  0.00    -0.048 Br
ATOM     26  C   UNL     1       3.174  -0.725  23.771  0.00  0.00    +0.049 A 
ATOM     30  C   UNL     1       3.389   0.557  23.292  0.00  0.00    +0.039 A 
ATOM     31  C   UNL     1       4.217  -1.633  23.885  0.00  0.00    +0.024 A 
ATOM     32  C   UNL     1       4.677   0.943  22.919  0.00  0.00    +0.017 A 
ATOM     33  C   UNL     1       5.504  -1.248  23.512  0.00  0.00    +0.002 A 
ATOM     34  C   UNL     1       5.735   0.040  23.028  0.00  0.00    +0.001 A 
ENDBRANCH  10  26
ENDBRANCH  14   8
BRANCH  16  18
ATOM      4  O   UNL     1      -3.928   2.281  23.467  0.00  0.00    -0.271 OA
ATOM      9  N   UNL     1      -4.359   1.858  25.718  0.00  0.00    -0.300 N 
ATOM     18  C   UNL     1      -3.957   1.524  24.437  0.00  0.00    +0.241 C 
ATOM     39  H   UNL     1      -4.314   1.155  26.451  0.00  0.00    +0.150 HD
BRANCH   9  19
ATOM     19  C   UNL     1      -4.810   3.182  26.086  0.00  0.00    +0.163 C 
BRANCH  19  23
ATOM      6  O   UNL     1      -6.796   2.516  24.856  0.00  0.00    -0.274 OA
ATOM     11  N   UNL     1      -6.575   4.716  25.478  0.00  0.00    -0.328 N 
ATOM     23  C   UNL     1      -6.145   3.409  25.394  0.00  0.00    +0.231 C 
ATOM     41  H   UNL     1      -6.029   5.444  25.928  0.00  0.00    +0.145 HD
ATOM     42  H   UNL     1      -7.460   5.001  25.070  0.00  0.00    +0.145 HD
ENDBRANCH  19  23
BRANCH  19  21
ATOM     21  C   UNL     1      -3.806   4.268  25.680  0.00  0.00    +0.067 C 
BRANCH  21  22
ATOM     22  C   UNL     1      -2.376   3.873  25.954  0.00  0.00    -0.045 A 
ATOM     24  C   UNL     1      -1.389   4.218  25.044  0.00  0.00    +0.007 A 
ATOM     25  C   UNL     1      -2.075   3.174  27.112  0.00  0.00    +0.007 A 
ATOM     27  C   UNL     1      -0.066   3.853  25.299  0.00  0.00    +0.046 A 
ATOM     28  C   UNL     1      -0.753   2.808  27.366  0.00  0.00    +0.046 A 
ATOM     29  C   UNL     1       0.251   3.147  26.460  0.00  0.00    +0.120 A 
BRANCH  29   7
ATOM      7  O   UNL     1       1.542   2.793  26.707  0.00  0.00    -0.495 OA
ATOM     35  C   UNL     1       1.978   2.837  28.066  0.00  0.00    +0.277 C 
ENDBRANCH  29   7
ENDBRANCH  21  22
ENDBRANCH  19  21
ENDBRANCH   9  19
ENDBRANCH  16  18
BRANCH  12   2
ATOM      2  O   UNL     1      -2.356  -2.547  25.847  0.00  0.00    -0.387 OA
ATOM     37  H   UNL     1      -2.742  -3.341  26.254  0.00  0.00    +0.210 HD
ENDBRANCH  12   2
BRANCH  13   3
ATOM      3  O   UNL     1      -4.417  -2.564  22.824  0.00  0.00    -0.389 OA
ATOM     38  H   UNL     1      -4.394  -1.699  22.380  0.00  0.00    +0.210 HD
ENDBRANCH  13   3
TORSDOF 10
ENDMDL
MODEL 3
REMARK VINA RESULT:       6.4      2.086      2.819
REMARK  Name = 7127920
REMARK  11 active torsions:
REMARK  status: ('A' for Active; 'I' for Inactive)
REMARK    1  A    between atoms: O_2  and  C_12
REMARK    2  A    between atoms: O_3  and  C_13
REMARK    3  A    between atoms: O_7  and  C_29
REMARK    4  A    between atoms: O_7  and  C_35
REMARK    5  A    between atoms: N_8  and  C_14
REMARK    6  A    between atoms: N_9  and  C_19
REMARK    7  A    between atoms: N_10  and  C_26
REMARK    8  A    between atoms: C_16  and  C_18
REMARK    9  A    between atoms: C_19  and  C_21
REMARK   10  A    between atoms: C_19  and  C_23
REMARK   11  A    between atoms: C_21  and  C_22
REMARK                            x       y       z     vdW  Elec       q    Type
REMARK                         _______ _______ _______ _____ _____    ______ ____
ROOT
ATOM     12  C   UNL     1      -1.670  -2.065  24.448  0.00  0.00    +0.167 C 
ATOM     13  C   UNL     1      -3.026  -2.464  25.044  0.00  0.00    +0.149 C 
ATOM     14  C   UNL     1      -1.810  -0.886  23.466  0.00  0.00    +0.129 C 
ATOM     15  C   UNL     1      -3.726  -1.279  25.733  0.00  0.00    +0.074 C 
ATOM     16  C   UNL     1      -3.556   0.021  24.999  0.00  0.00    +0.015 C 
ATOM     17  C   UNL     1      -2.708   0.209  23.977  0.00  0.00    +0.006 C 
ENDROOT
BRANCH  14   8
ATOM      5  O   UNL     1       0.758  -1.854  24.284  0.00  0.00    -0.252 OA
ATOM      8  N   UNL     1      -0.527  -0.317  23.131  0.00  0.00    -0.290 N 
ATOM     10  N   UNL     1       1.758  -0.094  23.094  0.00  0.00    -0.268 N 
ATOM     20  C   UNL     1       0.687  -0.854  23.574  0.00  0.00    +0.304 C 
ATOM     36  H   UNL     1      -0.502   0.461  22.478  0.00  0.00    +0.151 HD
ATOM     40  H   UNL     1       1.527   0.710  22.515  0.00  0.00    +0.156 HD
BRANCH  10  26
ATOM      1 BR   UNL     1       3.562   2.386  22.358  0.00  0.00    -0.048 Br
ATOM     26  C   UNL     1       3.139  -0.304  23.315  0.00  0.00    +0.049 A 
ATOM     30  C   UNL     1       4.066   0.688  23.040  0.00  0.00    +0.039 A 
ATOM     31  C   UNL     1       3.534  -1.536  23.815  0.00  0.00    +0.024 A 
ATOM     32  C   UNL     1       5.420   0.445  23.270  0.00  0.00    +0.017 A 
ATOM     33  C   UNL     1       4.887  -1.781  24.045  0.00  0.00    +0.002 A 
ATOM     34  C   UNL     1       5.831  -0.791  23.772  0.00  0.00    +0.001 A 
ENDBRANCH  10  26
ENDBRANCH  14   8
BRANCH  16  18
ATOM      4  O   UNL     1      -5.611   1.114  25.315  0.00  0.00    -0.271 OA
ATOM      9  N   UNL     1      -3.643   2.225  25.883  0.00  0.00    -0.300 N 
ATOM     18  C   UNL     1      -4.385   1.158  25.408  0.00  0.00    +0.241 C 
ATOM     39  H   UNL     1      -2.629   2.160  25.887  0.00  0.00    +0.150 HD
BRANCH   9  19
ATOM     19  C   UNL     1      -4.239   3.460  26.342  0.00  0.00    +0.163 C 
BRANCH  19  23
ATOM      6  O   UNL     1      -4.781   4.076  24.055  0.00  0.00    -0.274 OA
ATOM     11  N   UNL     1      -6.421   4.239  25.655  0.00  0.00    -0.328 N 
ATOM     23  C   UNL     1      -5.139   3.965  25.225  0.00  0.00    +0.231 C 
ATOM     41  H   UNL     1      -6.705   4.140  26.624  0.00  0.00    +0.145 HD
ATOM     42  H   UNL     1      -7.128   4.570  25.006  0.00  0.00    +0.145 HD
ENDBRANCH  19  23
BRANCH  19  21
ATOM     21  C   UNL     1      -3.184   4.515  26.696  0.00  0.00    +0.067 C 
BRANCH  21  22
ATOM     22  C   UNL     1      -2.064   4.583  25.686  0.00  0.00    -0.045 A 
ATOM     24  C   UNL     1      -1.790   5.787  25.055  0.00  0.00    +0.007 A 
ATOM     25  C   UNL     1      -1.330   3.441  25.409  0.00  0.00    +0.007 A 
ATOM     27  C   UNL     1      -0.755   5.849  24.122  0.00  0.00    +0.046 A 
ATOM     28  C   UNL     1      -0.295   3.504  24.476  0.00  0.00    +0.046 A 
ATOM     29  C   UNL     1      -0.008   4.707  23.832  0.00  0.00    +0.120 A 
BRANCH  29   7
ATOM      7  O   UNL     1       1.003   4.770  22.922  0.00  0.00    -0.495 OA
ATOM     35  C   UNL     1       0.941   5.819  21.956  0.00  0.00    +0.277 C 
ENDBRANCH  29   7
ENDBRANCH  21  22
ENDBRANCH  19  21
ENDBRANCH   9  19
ENDBRANCH  16  18
BRANCH  12   2
ATOM      2  O   UNL     1      -0.789  -1.702  25.512  0.00  0.00    -0.387 OA
ATOM     37  H   UNL     1       0.129  -1.811  25.212  0.00  0.00    +0.210 HD
ENDBRANCH  12   2
BRANCH  13   3
ATOM      3  O   UNL     1      -3.868  -3.009  24.031  0.00  0.00    -0.389 OA
ATOM     38  H   UNL     1      -3.923  -3.968  24.180  0.00  0.00    +0.210 HD
ENDBRANCH  13   3
TORSDOF 10
ENDMDL
MODEL 4
REMARK VINA RESULT:       7.2      2.219      4.844
REMARK  Name = 7127920
REMARK  11 active torsions:
REMARK  status: ('A' for Active; 'I' for Inactive)
REMARK    1  A    between atoms: O_2  and  C_12
REMARK    2  A    between atoms: O_3  and  C_13
REMARK    3  A    between atoms: O_7  and  C_29
REMARK    4  A    between atoms: O_7  and  C_35
REMARK    5  A    between atoms: N_8  and  C_14
REMARK    6  A    between atoms: N_9  and  C_19
REMARK    7  A    between atoms: N_10  and  C_26
REMARK    8  A    between atoms: C_16  and  C_18
REMARK    9  A    between atoms: C_19  and  C_21
REMARK   10  A    between atoms: C_19  and  C_23
REMARK   11  A    between atoms: C_21  and  C_22
REMARK                            x       y       z     vdW  Elec       q    Type
REMARK                         _______ _______ _______ _____ _____    ______ ____
ROOT
ATOM     12  C   UNL     1      -0.599   5.230  24.584  0.00  0.00    +0.167 C 
ATOM     13  C   UNL     1      -1.976   5.678  25.090  0.00  0.00    +0.149 C 
ATOM     14  C   UNL     1      -0.435   3.701  24.670  0.00  0.00    +0.129 C 
ATOM     15  C   UNL     1      -3.124   4.978  24.342  0.00  0.00    +0.074 C 
ATOM     16  C   UNL     1      -2.843   3.533  24.039  0.00  0.00    +0.015 C 
ATOM     17  C   UNL     1      -1.646   2.946  24.190  0.00  0.00    +0.006 C 
ENDROOT
BRANCH  14   8
ATOM      5  O   UNL     1       1.046   1.293  25.125  0.00  0.00    -0.252 OA
ATOM      8  N   UNL     1       0.719   3.246  23.934  0.00  0.00    -0.290 N 
ATOM     10  N   UNL     1       2.465   1.875  23.347  0.00  0.00    -0.268 N 
ATOM     20  C   UNL     1       1.389   2.052  24.222  0.00  0.00    +0.304 C 
ATOM     36  H   UNL     1       1.010   3.779  23.119  0.00  0.00    +0.151 HD
ATOM     40  H   UNL     1       2.615   2.602  22.651  0.00  0.00    +0.156 HD
BRANCH  10  26
ATOM      1 BR   UNL     1       1.288  -0.770  22.093  0.00  0.00    -0.048 Br
ATOM     26  C   UNL     1       3.384   0.801  23.308  0.00  0.00    +0.049 A 
ATOM     30  C   UNL     1       3.022  -0.431  22.788  0.00  0.00    +0.039 A 
ATOM     31  C   UNL     1       4.659   1.022  23.808  0.00  0.00    +0.024 A 
ATOM     32  C   UNL     1       3.956  -1.467  22.766  0.00  0.00    +0.017 A 
ATOM     33  C   UNL     1       5.592  -0.013  23.787  0.00  0.00    +0.002 A 
ATOM     34  C   UNL     1       5.241  -1.259  23.266  0.00  0.00    +0.001 A 
ENDBRANCH  10  26
ENDBRANCH  14   8
BRANCH  16  18
ATOM      4  O   UNL     1      -4.400   2.825  22.430  0.00  0.00    -0.271 OA
ATOM      9  N   UNL     1      -4.399   1.804  24.525  0.00  0.00    -0.300 N 
ATOM     18  C   UNL     1      -3.951   2.698  23.569  0.00  0.00    +0.241 C 
ATOM     39  H   UNL     1      -3.970   1.808  25.447  0.00  0.00    +0.150 HD
BRANCH   9  19
ATOM     19  C   UNL     1      -5.486   0.878  24.294  0.00  0.00    +0.163 C 
BRANCH  19  23
ATOM      6  O   UNL     1      -7.714   1.842  24.209  0.00  0.00    -0.274 OA
ATOM     11  N   UNL     1      -6.693   1.614  26.254  0.00  0.00    -0.328 N 
ATOM     23  C   UNL     1      -6.741   1.506  24.880  0.00  0.00    +0.231 C 
ATOM     41  H   UNL     1      -5.884   1.329  26.797  0.00  0.00    +0.145 HD
ATOM     42  H   UNL     1      -7.473   2.003  26.773  0.00  0.00    +0.145 HD
ENDBRANCH  19  23
BRANCH  19  21
ATOM     21  C   UNL     1      -5.224  -0.491  24.933  0.00  0.00    +0.067 C 
BRANCH  21  22
ATOM     22  C   UNL     1      -3.758  -0.846  24.977  0.00  0.00    -0.045 A 
ATOM     24  C   UNL     1      -2.911  -0.132  25.810  0.00  0.00    +0.007 A 
ATOM     25  C   UNL     1      -3.286  -1.879  24.183  0.00  0.00    +0.007 A 
ATOM     27  C   UNL     1      -1.555  -0.461  25.849  0.00  0.00    +0.046 A 
ATOM     28  C   UNL     1      -1.931  -2.207  24.222  0.00  0.00    +0.046 A 
ATOM     29  C   UNL     1      -1.066  -1.498  25.055  0.00  0.00    +0.120 A 
BRANCH  29   7
ATOM      7  O   UNL     1       0.256  -1.818  25.095  0.00  0.00    -0.495 OA
ATOM     35  C   UNL     1       0.598  -3.096  25.632  0.00  0.00    +0.277 C 
ENDBRANCH  29   7
ENDBRANCH  21  22
ENDBRANCH  19  21
ENDBRANCH   9  19
ENDBRANCH  16  18
BRANCH  12   2
ATOM      2  O   UNL     1      -0.448   5.654  23.228  0.00  0.00    -0.387 OA
ATOM     37  H   UNL     1      -1.302   5.560  22.772  0.00  0.00    +0.210 HD
ENDBRANCH  12   2
BRANCH  13   3
ATOM      3  O   UNL     1      -2.086   5.438  26.492  0.00  0.00    -0.389 OA
ATOM     38  H   UNL     1      -2.122   4.475  26.623  0.00  0.00    +0.210 HD
ENDBRANCH  13   3
TORSDOF 10
ENDMDL
