MODEL 1
REMARK VINA RESULT:      -5.9      0.000      0.000
REMARK  Name = 38028444
REMARK  12 active torsions:
REMARK  status: ('A' for Active; 'I' for Inactive)
REMARK    1  A    between atoms: N_3  and  C_14
REMARK    2  A    between atoms: N_4  and  C_21
REMARK    3  A    between atoms: N_5  and  C_23
REMARK    4  A    between atoms: C_7  and  C_11
REMARK    5  A    between atoms: C_8  and  C_14
REMARK    6  A    between atoms: C_10  and  C_15
REMARK    7  A    between atoms: C_11  and  C_16
REMARK    8  A    between atoms: C_11  and  C_17
REMARK    9  A    between atoms: C_12  and  C_18
REMARK   10  A    between atoms: C_15  and  C_19
REMARK   11  A    between atoms: C_21  and  C_22
REMARK   12  A    between atoms: C_23  and  C_24
REMARK                            x       y       z     vdW  Elec       q    Type
REMARK                         _______ _______ _______ _____ _____    ______ ____
ROOT
ATOM      7  C   UNL     1      -3.456  -0.720  25.036  0.00  0.00    +0.000 C 
ATOM      8  C   UNL     1      -2.243   0.013  24.409  0.00  0.00    +0.032 C 
ATOM      9  C   UNL     1      -4.717  -0.492  24.188  0.00  0.00    +0.012 C 
ATOM     10  C   UNL     1      -5.066   1.003  24.054  0.00  0.00    +0.023 C 
ATOM     12  C   UNL     1      -3.852   1.834  23.697  0.00  0.00    -0.073 C 
ATOM     13  C   UNL     1      -2.598   1.371  23.850  0.00  0.00    -0.022 C 
ATOM     18  C   UNL     1      -4.111   3.197  23.116  0.00  0.00    +0.039 C 
ENDROOT
BRANCH   7  11
ATOM     11  C   UNL     1      -3.197  -2.222  25.187  0.00  0.00    -0.013 C 
ATOM     16  C   UNL     1      -4.046  -3.010  24.196  0.00  0.00    +0.007 C 
ATOM     17  C   UNL     1      -1.715  -2.529  24.994  0.00  0.00    +0.007 C 
ENDBRANCH   7  11
BRANCH   8  14
ATOM     14  C   UNL     1      -1.103   0.161  25.422  0.00  0.00    +0.113 C 
BRANCH  14   3
ATOM      2  O   UNL     1       0.572  -0.973  23.365  0.00  0.00    -0.253 OA
ATOM      3  N   UNL     1       0.042   0.763  24.815  0.00  0.00    -0.299 N 
ATOM      5  N   UNL     1       1.864   0.953  23.405  0.00  0.00    -0.300 N 
ATOM     20  C   UNL     1       0.808   0.146  23.818  0.00  0.00    +0.300 C 
ATOM     29  H   UNL     1       0.280   1.716  25.072  0.00  0.00    +0.150 HD
ATOM     31  H   UNL     1       1.989   1.859  23.847  0.00  0.00    +0.150 HD
BRANCH   5  23
ATOM     23  C   UNL     1       2.805   0.551  22.385  0.00  0.00    +0.102 C 
ATOM     24  C   UNL     1       4.232   0.841  22.803  0.00  0.00    +0.024 C 
ENDBRANCH   5  23
ENDBRANCH  14   3
ENDBRANCH   8  14
BRANCH  10  15
ATOM     15  C   UNL     1      -5.738   1.529  25.327  0.00  0.00    +0.103 C 
BRANCH  15  19
ATOM      1  O   UNL     1      -5.874   3.942  25.434  0.00  0.00    -0.276 OA
ATOM      4  N   UNL     1      -4.037   2.857  26.356  0.00  0.00    -0.311 N 
ATOM     19  C   UNL     1      -5.255   2.914  25.694  0.00  0.00    +0.214 C 
ATOM     30  H   UNL     1      -3.603   1.955  26.530  0.00  0.00    +0.149 HD
BRANCH   4  21
ATOM     21  C   UNL     1      -3.338   4.031  26.823  0.00  0.00    +0.141 C 
BRANCH  21  22
ATOM      6  N   UNL     1       0.021   3.719  25.114  0.00  0.00    -0.263 NA
ATOM     22  C   UNL     1      -2.150   4.359  25.966  0.00  0.00    -0.012 A 
ATOM     25  C   UNL     1      -2.088   5.549  25.251  0.00  0.00    +0.008 A 
ATOM     26  C   UNL     1      -1.079   3.485  25.864  0.00  0.00    +0.115 A 
ATOM     27  C   UNL     1      -0.973   5.827  24.468  0.00  0.00    +0.020 A 
ATOM     28  C   UNL     1       0.045   4.887  24.433  0.00  0.00    +0.111 A 
ENDBRANCH  21  22
ENDBRANCH   4  21
ENDBRANCH  15  19
ENDBRANCH  10  15
TORSDOF 8
ENDMDL
MODEL 2
REMARK VINA RESULT:      -5.7      1.384      4.225
REMARK  Name = 38028444
REMARK  12 active torsions:
REMARK  status: ('A' for Active; 'I' for Inactive)
REMARK    1  A    between atoms: N_3  and  C_14
REMARK    2  A    between atoms: N_4  and  C_21
REMARK    3  A    between atoms: N_5  and  C_23
REMARK    4  A    between atoms: C_7  and  C_11
REMARK    5  A    between atoms: C_8  and  C_14
REMARK    6  A    between atoms: C_10  and  C_15
REMARK    7  A    between atoms: C_11  and  C_16
REMARK    8  A    between atoms: C_11  and  C_17
REMARK    9  A    between atoms: C_12  and  C_18
REMARK   10  A    between atoms: C_15  and  C_19
REMARK   11  A    between atoms: C_21  and  C_22
REMARK   12  A    between atoms: C_23  and  C_24
REMARK                            x       y       z     vdW  Elec       q    Type
REMARK                         _______ _______ _______ _____ _____    ______ ____
ROOT
ATOM      7  C   UNL     1      -2.710   2.235  23.946  0.00  0.00    +0.000 C 
ATOM      8  C   UNL     1      -1.462   2.896  24.585  0.00  0.00    +0.032 C 
ATOM      9  C   UNL     1      -3.827   3.272  23.754  0.00  0.00    +0.012 C 
ATOM     10  C   UNL     1      -4.248   3.928  25.083  0.00  0.00    +0.023 C 
ATOM     12  C   UNL     1      -3.050   4.367  25.898  0.00  0.00    -0.073 C 
ATOM     13  C   UNL     1      -1.810   3.906  25.652  0.00  0.00    -0.022 C 
ATOM     18  C   UNL     1      -3.301   5.387  26.975  0.00  0.00    +0.039 C 
ENDROOT
BRANCH   7  11
ATOM     11  C   UNL     1      -2.380   1.574  22.605  0.00  0.00    -0.013 C 
ATOM     16  C   UNL     1      -3.138   0.259  22.459  0.00  0.00    +0.007 C 
ATOM     17  C   UNL     1      -2.706   2.518  21.452  0.00  0.00    +0.007 C 
ENDBRANCH   7  11
BRANCH   8  14
ATOM     14  C   UNL     1      -0.516   1.841  25.168  0.00  0.00    +0.113 C 
BRANCH  14   3
ATOM      2  O   UNL     1       0.785   0.033  23.335  0.00  0.00    -0.253 OA
ATOM      3  N   UNL     1       0.795   1.972  24.615  0.00  0.00    -0.299 N 
ATOM      5  N   UNL     1       2.646   1.418  23.346  0.00  0.00    -0.300 N 
ATOM     20  C   UNL     1       1.360   1.048  23.728  0.00  0.00    +0.300 C 
ATOM     29  H   UNL     1       1.326   2.812  24.823  0.00  0.00    +0.150 HD
ATOM     31  H   UNL     1       3.045   2.268  23.733  0.00  0.00    +0.150 HD
BRANCH   5  23
ATOM     23  C   UNL     1       3.449   0.635  22.435  0.00  0.00    +0.102 C 
ATOM     24  C   UNL     1       4.773   0.243  23.061  0.00  0.00    +0.024 C 
ENDBRANCH   5  23
ENDBRANCH  14   3
ENDBRANCH   8  14
BRANCH  10  15
ATOM     15  C   UNL     1      -5.154   2.996  25.896  0.00  0.00    +0.103 C 
BRANCH  15  19
ATOM      1  O   UNL     1      -6.280   1.602  24.271  0.00  0.00    -0.276 OA
ATOM      4  N   UNL     1      -4.648   0.673  25.640  0.00  0.00    -0.311 N 
ATOM     19  C   UNL     1      -5.445   1.705  25.165  0.00  0.00    +0.214 C 
ATOM     30  H   UNL     1      -3.980   0.857  26.382  0.00  0.00    +0.149 HD
BRANCH   4  21
ATOM     21  C   UNL     1      -4.714  -0.674  25.124  0.00  0.00    +0.141 C 
BRANCH  21  22
ATOM      6  N   UNL     1      -1.055  -1.343  25.812  0.00  0.00    -0.263 NA
ATOM     22  C   UNL     1      -3.364  -1.331  25.092  0.00  0.00    -0.012 A 
ATOM     25  C   UNL     1      -3.147  -2.486  24.350  0.00  0.00    +0.008 A 
ATOM     26  C   UNL     1      -2.295  -0.804  25.800  0.00  0.00    +0.115 A 
ATOM     27  C   UNL     1      -1.885  -3.071  24.336  0.00  0.00    +0.020 A 
ATOM     28  C   UNL     1      -0.882  -2.466  25.077  0.00  0.00    +0.111 A 
ENDBRANCH  21  22
ENDBRANCH   4  21
ENDBRANCH  15  19
ENDBRANCH  10  15
TORSDOF 8
ENDMDL
MODEL 3
REMARK VINA RESULT:      -5.6      1.668      3.499
REMARK  Name = 38028444
REMARK  12 active torsions:
REMARK  status: ('A' for Active; 'I' for Inactive)
REMARK    1  A    between atoms: N_3  and  C_14
REMARK    2  A    between atoms: N_4  and  C_21
REMARK    3  A    between atoms: N_5  and  C_23
REMARK    4  A    between atoms: C_7  and  C_11
REMARK    5  A    between atoms: C_8  and  C_14
REMARK    6  A    between atoms: C_10  and  C_15
REMARK    7  A    between atoms: C_11  and  C_16
REMARK    8  A    between atoms: C_11  and  C_17
REMARK    9  A    between atoms: C_12  and  C_18
REMARK   10  A    between atoms: C_15  and  C_19
REMARK   11  A    between atoms: C_21  and  C_22
REMARK   12  A    between atoms: C_23  and  C_24
REMARK                            x       y       z     vdW  Elec       q    Type
REMARK                         _______ _______ _______ _____ _____    ______ ____
ROOT
ATOM      7  C   UNL     1      -1.063   0.463  24.477  0.00  0.00    +0.000 C 
ATOM      8  C   UNL     1      -0.230  -0.827  24.276  0.00  0.00    +0.032 C 
ATOM      9  C   UNL     1      -2.123   0.252  25.570  0.00  0.00    +0.012 C 
ATOM     10  C   UNL     1      -3.085  -0.904  25.234  0.00  0.00    +0.023 C 
ATOM     12  C   UNL     1      -2.341  -2.137  24.765  0.00  0.00    -0.073 C 
ATOM     13  C   UNL     1      -1.061  -2.086  24.354  0.00  0.00    -0.022 C 
ATOM     18  C   UNL     1      -3.087  -3.441  24.824  0.00  0.00    +0.039 C 
ENDROOT
BRANCH   7  11
ATOM     11  C   UNL     1      -0.180   1.661  24.836  0.00  0.00    -0.013 C 
ATOM     16  C   UNL     1      -0.496   2.846  23.930  0.00  0.00    +0.007 C 
ATOM     17  C   UNL     1      -0.364   2.037  26.303  0.00  0.00    +0.007 C 
ENDBRANCH   7  11
BRANCH   8  14
ATOM     14  C   UNL     1       0.524  -0.795  22.942  0.00  0.00    +0.113 C 
BRANCH  14   3
ATOM      2  O   UNL     1       3.314  -1.468  23.239  0.00  0.00    -0.253 OA
ATOM      3  N   UNL     1       1.626   0.112  23.002  0.00  0.00    -0.299 N 
ATOM      5  N   UNL     1       3.829   0.793  23.180  0.00  0.00    -0.300 N 
ATOM     20  C   UNL     1       2.959  -0.293  23.149  0.00  0.00    +0.300 C 
ATOM     29  H   UNL     1       1.447   1.102  22.868  0.00  0.00    +0.150 HD
ATOM     31  H   UNL     1       3.442   1.730  23.112  0.00  0.00    +0.150 HD
BRANCH   5  23
ATOM     23  C   UNL     1       5.259   0.649  23.323  0.00  0.00    +0.102 C 
ATOM     24  C   UNL     1       5.610  -0.307  24.445  0.00  0.00    +0.024 C 
ENDBRANCH   5  23
ENDBRANCH  14   3
ENDBRANCH   8  14
BRANCH  10  15
ATOM     15  C   UNL     1      -4.131  -0.468  24.202  0.00  0.00    +0.103 C 
BRANCH  15  19
ATOM      1  O   UNL     1      -3.769   1.765  23.345  0.00  0.00    -0.276 OA
ATOM      4  N   UNL     1      -5.152   1.456  25.188  0.00  0.00    -0.311 N 
ATOM     19  C   UNL     1      -4.308   1.033  24.170  0.00  0.00    +0.214 C 
ATOM     30  H   UNL     1      -5.555   0.772  25.821  0.00  0.00    +0.149 HD
BRANCH   4  21
ATOM     21  C   UNL     1      -5.499   2.842  25.398  0.00  0.00    +0.141 C 
BRANCH  21  22
ATOM      6  N   UNL     1      -2.922   5.317  24.156  0.00  0.00    -0.263 NA
ATOM     22  C   UNL     1      -4.292   3.735  25.368  0.00  0.00    -0.012 A 
ATOM     25  C   UNL     1      -3.440   3.824  26.463  0.00  0.00    +0.008 A 
ATOM     26  C   UNL     1      -3.992   4.495  24.249  0.00  0.00    +0.115 A 
ATOM     27  C   UNL     1      -2.328   4.657  26.406  0.00  0.00    +0.020 A 
ATOM     28  C   UNL     1      -2.116   5.376  25.241  0.00  0.00    +0.111 A 
ENDBRANCH  21  22
ENDBRANCH   4  21
ENDBRANCH  15  19
ENDBRANCH  10  15
TORSDOF 8
ENDMDL
MODEL 4
REMARK VINA RESULT:      -4.2      2.086      6.355
REMARK  Name = 38028444
REMARK  12 active torsions:
REMARK  status: ('A' for Active; 'I' for Inactive)
REMARK    1  A    between atoms: N_3  and  C_14
REMARK    2  A    between atoms: N_4  and  C_21
REMARK    3  A    between atoms: N_5  and  C_23
REMARK    4  A    between atoms: C_7  and  C_11
REMARK    5  A    between atoms: C_8  and  C_14
REMARK    6  A    between atoms: C_10  and  C_15
REMARK    7  A    between atoms: C_11  and  C_16
REMARK    8  A    between atoms: C_11  and  C_17
REMARK    9  A    between atoms: C_12  and  C_18
REMARK   10  A    between atoms: C_15  and  C_19
REMARK   11  A    between atoms: C_21  and  C_22
REMARK   12  A    between atoms: C_23  and  C_24
REMARK                            x       y       z     vdW  Elec       q    Type
REMARK                         _______ _______ _______ _____ _____    ______ ____
ROOT
ATOM      7  C   UNL     1      -3.168   2.978  25.354  0.00  0.00    +0.000 C 
ATOM      8  C   UNL     1      -4.148   2.523  24.244  0.00  0.00    +0.032 C 
ATOM      9  C   UNL     1      -1.859   3.494  24.736  0.00  0.00    +0.012 C 
ATOM     10  C   UNL     1      -1.160   2.424  23.875  0.00  0.00    +0.023 C 
ATOM     12  C   UNL     1      -2.129   1.738  22.935  0.00  0.00    -0.073 C 
ATOM     13  C   UNL     1      -3.461   1.804  23.107  0.00  0.00    -0.022 C 
ATOM     18  C   UNL     1      -1.532   1.010  21.761  0.00  0.00    +0.039 C 
ENDROOT
BRANCH   7  11
ATOM     11  C   UNL     1      -3.782   4.061  26.247  0.00  0.00    -0.013 C 
ATOM     16  C   UNL     1      -2.928   5.324  26.216  0.00  0.00    +0.007 C 
ATOM     17  C   UNL     1      -5.212   4.363  25.810  0.00  0.00    +0.007 C 
ENDBRANCH   7  11
BRANCH   8  14
ATOM     14  C   UNL     1      -5.256   1.632  24.816  0.00  0.00    +0.113 C 
BRANCH  14   3
ATOM      2  O   UNL     1      -3.504  -0.410  25.859  0.00  0.00    -0.253 OA
ATOM      3  N   UNL     1      -5.122   0.290  24.346  0.00  0.00    -0.299 N 
ATOM      5  N   UNL     1      -4.317  -1.876  24.255  0.00  0.00    -0.300 N 
ATOM     20  C   UNL     1      -4.245  -0.648  24.907  0.00  0.00    +0.300 C 
ATOM     29  H   UNL     1      -5.741  -0.027  23.605  0.00  0.00    +0.150 HD
ATOM     31  H   UNL     1      -4.950  -1.975  23.468  0.00  0.00    +0.150 HD
BRANCH   5  23
ATOM     23  C   UNL     1      -3.514  -3.014  24.639  0.00  0.00    +0.102 C 
ATOM     24  C   UNL     1      -2.051  -2.795  24.314  0.00  0.00    +0.024 C 
ENDBRANCH   5  23
ENDBRANCH  14   3
ENDBRANCH   8  14
BRANCH  10  15
ATOM     15  C   UNL     1      -0.428   1.403  24.752  0.00  0.00    +0.103 C 
BRANCH  15  19
ATOM      1  O   UNL     1       0.080  -0.819  23.940  0.00  0.00    -0.276 OA
ATOM      4  N   UNL     1       1.320   0.991  23.173  0.00  0.00    -0.311 N 
ATOM     19  C   UNL     1       0.327   0.384  23.929  0.00  0.00    +0.214 C 
ATOM     30  H   UNL     1       1.446   1.997  23.228  0.00  0.00    +0.149 HD
BRANCH   4  21
ATOM     21  C   UNL     1       2.199   0.258  22.293  0.00  0.00    +0.141 C 
BRANCH  21  22
ATOM      6  N   UNL     1       4.881  -1.686  24.119  0.00  0.00    -0.263 NA
ATOM     22  C   UNL     1       3.507  -0.074  22.951  0.00  0.00    -0.012 A 
ATOM     25  C   UNL     1       4.532   0.862  23.023  0.00  0.00    +0.008 A 
ATOM     26  C   UNL     1       3.729  -1.323  23.510  0.00  0.00    +0.115 A 
ATOM     27  C   UNL     1       5.731   0.527  23.642  0.00  0.00    +0.020 A 
ATOM     28  C   UNL     1       5.854  -0.748  24.169  0.00  0.00    +0.111 A 
ENDBRANCH  21  22
ENDBRANCH   4  21
ENDBRANCH  15  19
ENDBRANCH  10  15
TORSDOF 8
ENDMDL
MODEL 5
REMARK VINA RESULT:      -3.8      1.895      5.678
REMARK  Name = 38028444
REMARK  12 active torsions:
REMARK  status: ('A' for Active; 'I' for Inactive)
REMARK    1  A    between atoms: N_3  and  C_14
REMARK    2  A    between atoms: N_4  and  C_21
REMARK    3  A    between atoms: N_5  and  C_23
REMARK    4  A    between atoms: C_7  and  C_11
REMARK    5  A    between atoms: C_8  and  C_14
REMARK    6  A    between atoms: C_10  and  C_15
REMARK    7  A    between atoms: C_11  and  C_16
REMARK    8  A    between atoms: C_11  and  C_17
REMARK    9  A    between atoms: C_12  and  C_18
REMARK   10  A    between atoms: C_15  and  C_19
REMARK   11  A    between atoms: C_21  and  C_22
REMARK   12  A    between atoms: C_23  and  C_24
REMARK                            x       y       z     vdW  Elec       q    Type
REMARK                         _______ _______ _______ _____ _____    ______ ____
ROOT
ATOM      7  C   UNL     1      -3.601   2.960  25.516  0.00  0.00    +0.000 C 
ATOM      8  C   UNL     1      -3.587   3.180  23.983  0.00  0.00    +0.032 C 
ATOM      9  C   UNL     1      -2.700   3.990  26.215  0.00  0.00    +0.012 C 
ATOM     10  C   UNL     1      -1.241   3.915  25.724  0.00  0.00    +0.023 C 
ATOM     12  C   UNL     1      -1.159   3.858  24.213  0.00  0.00    -0.073 C 
ATOM     13  C   UNL     1      -2.220   3.540  23.451  0.00  0.00    -0.022 C 
ATOM     18  C   UNL     1       0.164   4.219  23.593  0.00  0.00    +0.039 C 
ENDROOT
BRANCH   7  11
ATOM     11  C   UNL     1      -5.019   3.038  26.090  0.00  0.00    -0.013 C 
ATOM     16  C   UNL     1      -5.746   4.263  25.545  0.00  0.00    +0.007 C 
ATOM     17  C   UNL     1      -5.794   1.763  25.772  0.00  0.00    +0.007 C 
ENDBRANCH   7  11
BRANCH   8  14
ATOM     14  C   UNL     1      -4.114   1.946  23.243  0.00  0.00    +0.113 C 
BRANCH  14   3
ATOM      2  O   UNL     1      -4.770  -0.723  24.121  0.00  0.00    -0.253 OA
ATOM      3  N   UNL     1      -3.217   0.843  23.390  0.00  0.00    -0.299 N 
ATOM      5  N   UNL     1      -2.539  -1.313  23.877  0.00  0.00    -0.300 N 
ATOM     20  C   UNL     1      -3.613  -0.428  23.824  0.00  0.00    +0.300 C 
ATOM     29  H   UNL     1      -2.250   0.964  23.104  0.00  0.00    +0.150 HD
ATOM     31  H   UNL     1      -1.616  -0.975  23.625  0.00  0.00    +0.150 HD
BRANCH   5  23
ATOM     23  C   UNL     1      -2.679  -2.690  24.293  0.00  0.00    +0.102 C 
ATOM     24  C   UNL     1      -3.241  -2.790  25.696  0.00  0.00    +0.024 C 
ENDBRANCH   5  23
ENDBRANCH  14   3
ENDBRANCH   8  14
BRANCH  10  15
ATOM     15  C   UNL     1      -0.505   2.732  26.361  0.00  0.00    +0.103 C 
BRANCH  15  19
ATOM      1  O   UNL     1      -1.326   0.611  25.535  0.00  0.00    -0.276 OA
ATOM      4  N   UNL     1       0.556   1.567  24.562  0.00  0.00    -0.311 N 
ATOM     19  C   UNL     1      -0.499   1.516  25.463  0.00  0.00    +0.214 C 
ATOM     30  H   UNL     1       1.188   2.362  24.576  0.00  0.00    +0.149 HD
BRANCH   4  21
ATOM     21  C   UNL     1       0.807   0.536  23.583  0.00  0.00    +0.141 C 
BRANCH  21  22
ATOM      6  N   UNL     1       4.160  -1.212  23.498  0.00  0.00    -0.263 NA
ATOM     22  C   UNL     1       2.276   0.299  23.380  0.00  0.00    -0.012 A 
ATOM     25  C   UNL     1       3.106   1.309  22.909  0.00  0.00    +0.008 A 
ATOM     26  C   UNL     1       2.847  -0.933  23.657  0.00  0.00    +0.115 A 
ATOM     27  C   UNL     1       4.463   1.062  22.733  0.00  0.00    +0.020 A 
ATOM     28  C   UNL     1       4.936  -0.204  23.039  0.00  0.00    +0.111 A 
ENDBRANCH  21  22
ENDBRANCH   4  21
ENDBRANCH  15  19
ENDBRANCH  10  15
TORSDOF 8
ENDMDL
MODEL 6
REMARK VINA RESULT:      -3.7      1.895      4.611
REMARK  Name = 38028444
REMARK  12 active torsions:
REMARK  status: ('A' for Active; 'I' for Inactive)
REMARK    1  A    between atoms: N_3  and  C_14
REMARK    2  A    between atoms: N_4  and  C_21
REMARK    3  A    between atoms: N_5  and  C_23
REMARK    4  A    between atoms: C_7  and  C_11
REMARK    5  A    between atoms: C_8  and  C_14
REMARK    6  A    between atoms: C_10  and  C_15
REMARK    7  A    between atoms: C_11  and  C_16
REMARK    8  A    between atoms: C_11  and  C_17
REMARK    9  A    between atoms: C_12  and  C_18
REMARK   10  A    between atoms: C_15  and  C_19
REMARK   11  A    between atoms: C_21  and  C_22
REMARK   12  A    between atoms: C_23  and  C_24
REMARK                            x       y       z     vdW  Elec       q    Type
REMARK                         _______ _______ _______ _____ _____    ______ ____
ROOT
ATOM      7  C   UNL     1      -3.048   2.094  24.356  0.00  0.00    +0.000 C 
ATOM      8  C   UNL     1      -2.162   2.451  23.136  0.00  0.00    +0.032 C 
ATOM      9  C   UNL     1      -3.463   3.368  25.108  0.00  0.00    +0.012 C 
ATOM     10  C   UNL     1      -2.247   4.173  25.606  0.00  0.00    +0.023 C 
ATOM     12  C   UNL     1      -1.200   4.337  24.525  0.00  0.00    -0.073 C 
ATOM     13  C   UNL     1      -1.185   3.567  23.422  0.00  0.00    -0.022 C 
ATOM     18  C   UNL     1      -0.194   5.438  24.718  0.00  0.00    +0.039 C 
ENDROOT
BRANCH   7  11
ATOM     11  C   UNL     1      -4.295   1.307  23.943  0.00  0.00    -0.013 C 
ATOM     16  C   UNL     1      -3.902  -0.054  23.376  0.00  0.00    +0.007 C 
ATOM     17  C   UNL     1      -5.241   1.147  25.129  0.00  0.00    +0.007 C 
ENDBRANCH   7  11
BRANCH   8  14
ATOM     14  C   UNL     1      -1.399   1.222  22.629  0.00  0.00    +0.113 C 
BRANCH  14   3
ATOM      2  O   UNL     1       0.713  -0.574  21.831  0.00  0.00    -0.253 OA
ATOM      3  N   UNL     1      -0.027   1.276  23.026  0.00  0.00    -0.299 N 
ATOM      5  N   UNL     1       2.195   0.647  23.133  0.00  0.00    -0.300 N 
ATOM     20  C   UNL     1       0.943   0.363  22.594  0.00  0.00    +0.300 C 
ATOM     29  H   UNL     1       0.280   2.055  23.601  0.00  0.00    +0.150 HD
ATOM     31  H   UNL     1       2.287   1.435  23.766  0.00  0.00    +0.150 HD
BRANCH   5  23
ATOM     23  C   UNL     1       3.370  -0.144  22.845  0.00  0.00    +0.102 C 
ATOM     24  C   UNL     1       4.640   0.608  23.184  0.00  0.00    +0.024 C 
ENDBRANCH   5  23
ENDBRANCH  14   3
ENDBRANCH   8  14
BRANCH  10  15
ATOM     15  C   UNL     1      -1.644   3.539  26.865  0.00  0.00    +0.103 C 
BRANCH  15  19
ATOM      1  O   UNL     1       0.573   2.669  26.440  0.00  0.00    -0.276 OA
ATOM      4  N   UNL     1      -1.256   1.237  26.350  0.00  0.00    -0.311 N 
ATOM     19  C   UNL     1      -0.634   2.464  26.533  0.00  0.00    +0.214 C 
ATOM     30  H   UNL     1      -2.263   1.166  26.453  0.00  0.00    +0.149 HD
BRANCH   4  21
ATOM     21  C   UNL     1      -0.534   0.030  26.022  0.00  0.00    +0.141 C 
BRANCH  21  22
ATOM      6  N   UNL     1      -1.857  -2.942  24.092  0.00  0.00    -0.263 NA
ATOM     22  C   UNL     1      -1.452  -1.068  25.566  0.00  0.00    -0.012 A 
ATOM     25  C   UNL     1      -2.702  -1.244  26.146  0.00  0.00    +0.008 A 
ATOM     26  C   UNL     1      -1.079  -1.936  24.551  0.00  0.00    +0.115 A 
ATOM     27  C   UNL     1      -3.532  -2.267  25.701  0.00  0.00    +0.020 A 
ATOM     28  C   UNL     1      -3.067  -3.081  24.681  0.00  0.00    +0.111 A 
ENDBRANCH  21  22
ENDBRANCH   4  21
ENDBRANCH  15  19
ENDBRANCH  10  15
TORSDOF 8
ENDMDL
MODEL 7
REMARK VINA RESULT:      -3.4      2.050      4.936
REMARK  Name = 38028444
REMARK  12 active torsions:
REMARK  status: ('A' for Active; 'I' for Inactive)
REMARK    1  A    between atoms: N_3  and  C_14
REMARK    2  A    between atoms: N_4  and  C_21
REMARK    3  A    between atoms: N_5  and  C_23
REMARK    4  A    between atoms: C_7  and  C_11
REMARK    5  A    between atoms: C_8  and  C_14
REMARK    6  A    between atoms: C_10  and  C_15
REMARK    7  A    between atoms: C_11  and  C_16
REMARK    8  A    between atoms: C_11  and  C_17
REMARK    9  A    between atoms: C_12  and  C_18
REMARK   10  A    between atoms: C_15  and  C_19
REMARK   11  A    between atoms: C_21  and  C_22
REMARK   12  A    between atoms: C_23  and  C_24
REMARK                            x       y       z     vdW  Elec       q    Type
REMARK                         _______ _______ _______ _____ _____    ______ ____
ROOT
ATOM      7  C   UNL     1      -3.509   2.298  23.984  0.00  0.00    +0.000 C 
ATOM      8  C   UNL     1      -4.227   3.480  24.683  0.00  0.00    +0.032 C 
ATOM      9  C   UNL     1      -4.499   1.155  23.711  0.00  0.00    +0.012 C 
ATOM     10  C   UNL     1      -5.156   0.632  25.003  0.00  0.00    +0.023 C 
ATOM     12  C   UNL     1      -5.653   1.763  25.878  0.00  0.00    -0.073 C 
ATOM     13  C   UNL     1      -5.238   3.032  25.712  0.00  0.00    -0.022 C 
ATOM     18  C   UNL     1      -6.677   1.411  26.923  0.00  0.00    +0.039 C 
ENDROOT
BRANCH   7  11
ATOM     11  C   UNL     1      -2.843   2.731  22.675  0.00  0.00    -0.013 C 
ATOM     16  C   UNL     1      -2.310   1.518  21.922  0.00  0.00    +0.007 C 
ATOM     17  C   UNL     1      -3.827   3.515  21.811  0.00  0.00    +0.007 C 
ENDBRANCH   7  11
BRANCH   8  14
ATOM     14  C   UNL     1      -3.219   4.430  25.338  0.00  0.00    +0.113 C 
BRANCH  14   3
ATOM      2  O   UNL     1      -0.356   4.093  25.202  0.00  0.00    -0.253 OA
ATOM      3  N   UNL     1      -2.389   3.730  26.267  0.00  0.00    -0.299 N 
ATOM      5  N   UNL     1      -0.442   2.876  27.175  0.00  0.00    -0.300 N 
ATOM     20  C   UNL     1      -1.000   3.609  26.131  0.00  0.00    +0.300 C 
ATOM     29  H   UNL     1      -2.816   3.351  27.107  0.00  0.00    +0.150 HD
ATOM     31  H   UNL     1      -1.055   2.503  27.893  0.00  0.00    +0.150 HD
BRANCH   5  23
ATOM     23  C   UNL     1       0.974   2.606  27.273  0.00  0.00    +0.102 C 
ATOM     24  C   UNL     1       1.433   2.572  28.717  0.00  0.00    +0.024 C 
ENDBRANCH   5  23
ENDBRANCH  14   3
ENDBRANCH   8  14
BRANCH  10  15
ATOM     15  C   UNL     1      -4.200  -0.283  25.777  0.00  0.00    +0.103 C 
BRANCH  15  19
ATOM      1  O   UNL     1      -3.825  -2.004  24.118  0.00  0.00    -0.276 OA
ATOM      4  N   UNL     1      -2.016  -0.812  24.961  0.00  0.00    -0.311 N 
ATOM     19  C   UNL     1      -3.361  -1.138  24.855  0.00  0.00    +0.214 C 
ATOM     30  H   UNL     1      -1.728  -0.075  25.598  0.00  0.00    +0.149 HD
BRANCH   4  21
ATOM     21  C   UNL     1      -0.983  -1.470  24.197  0.00  0.00    +0.141 C 
BRANCH  21  22
ATOM      6  N   UNL     1       1.135   1.658  24.005  0.00  0.00    -0.263 NA
ATOM     22  C   UNL     1       0.111  -0.523  23.796  0.00  0.00    -0.012 A 
ATOM     25  C   UNL     1       1.087  -0.902  22.881  0.00  0.00    +0.008 A 
ATOM     26  C   UNL     1       0.179   0.756  24.324  0.00  0.00    +0.115 A 
ATOM     27  C   UNL     1       2.086  -0.002  22.525  0.00  0.00    +0.020 A 
ATOM     28  C   UNL     1       2.066   1.253  23.111  0.00  0.00    +0.111 A 
ENDBRANCH  21  22
ENDBRANCH   4  21
ENDBRANCH  15  19
ENDBRANCH  10  15
TORSDOF 8
ENDMDL
MODEL 8
REMARK VINA RESULT:      -3.1      1.895      6.106
REMARK  Name = 38028444
REMARK  12 active torsions:
REMARK  status: ('A' for Active; 'I' for Inactive)
REMARK    1  A    between atoms: N_3  and  C_14
REMARK    2  A    between atoms: N_4  and  C_21
REMARK    3  A    between atoms: N_5  and  C_23
REMARK    4  A    between atoms: C_7  and  C_11
REMARK    5  A    between atoms: C_8  and  C_14
REMARK    6  A    between atoms: C_10  and  C_15
REMARK    7  A    between atoms: C_11  and  C_16
REMARK    8  A    between atoms: C_11  and  C_17
REMARK    9  A    between atoms: C_12  and  C_18
REMARK   10  A    between atoms: C_15  and  C_19
REMARK   11  A    between atoms: C_21  and  C_22
REMARK   12  A    between atoms: C_23  and  C_24
REMARK                            x       y       z     vdW  Elec       q    Type
REMARK                         _______ _______ _______ _____ _____    ______ ____
ROOT
ATOM      7  C   UNL     1      -2.861  -1.275  24.463  0.00  0.00    +0.000 C 
ATOM      8  C   UNL     1      -3.426  -0.410  25.618  0.00  0.00    +0.032 C 
ATOM      9  C   UNL     1      -1.358  -1.525  24.665  0.00  0.00    +0.012 C 
ATOM     10  C   UNL     1      -0.553  -0.212  24.731  0.00  0.00    +0.023 C 
ATOM     12  C   UNL     1      -1.202   0.799  25.654  0.00  0.00    -0.073 C 
ATOM     13  C   UNL     1      -2.482   0.687  26.051  0.00  0.00    -0.022 C 
ATOM     18  C   UNL     1      -0.329   1.920  26.150  0.00  0.00    +0.039 C 
ENDROOT
BRANCH   7  11
ATOM     11  C   UNL     1      -3.597  -2.612  24.341  0.00  0.00    -0.013 C 
ATOM     16  C   UNL     1      -4.767  -2.490  23.371  0.00  0.00    +0.007 C 
ATOM     17  C   UNL     1      -2.636  -3.709  23.893  0.00  0.00    +0.007 C 
ENDBRANCH   7  11
BRANCH   8  14
ATOM     14  C   UNL     1      -4.779   0.200  25.240  0.00  0.00    +0.113 C 
BRANCH  14   3
ATOM      2  O   UNL     1      -3.468   2.157  23.574  0.00  0.00    -0.253 OA
ATOM      3  N   UNL     1      -4.767   1.617  25.423  0.00  0.00    -0.299 N 
ATOM      5  N   UNL     1      -4.254   3.827  24.978  0.00  0.00    -0.300 N 
ATOM     20  C   UNL     1      -4.104   2.506  24.567  0.00  0.00    +0.300 C 
ATOM     29  H   UNL     1      -5.321   2.013  26.177  0.00  0.00    +0.150 HD
ATOM     31  H   UNL     1      -4.787   4.019  25.821  0.00  0.00    +0.150 HD
BRANCH   5  23
ATOM     23  C   UNL     1      -3.668   4.940  24.267  0.00  0.00    +0.102 C 
ATOM     24  C   UNL     1      -2.252   5.210  24.732  0.00  0.00    +0.024 C 
ENDBRANCH   5  23
ENDBRANCH  14   3
ENDBRANCH   8  14
BRANCH  10  15
ATOM     15  C   UNL     1      -0.342   0.377  23.333  0.00  0.00    +0.103 C 
BRANCH  15  19
ATOM      1  O   UNL     1       1.714   1.584  23.744  0.00  0.00    -0.276 OA
ATOM      4  N   UNL     1       1.628   0.023  22.024  0.00  0.00    -0.311 N 
ATOM     19  C   UNL     1       1.103   0.748  23.084  0.00  0.00    +0.214 C 
ATOM     30  H   UNL     1       1.043  -0.652  21.540  0.00  0.00    +0.149 HD
BRANCH   4  21
ATOM     21  C   UNL     1       2.988   0.173  21.563  0.00  0.00    +0.141 C 
BRANCH  21  22
ATOM      6  N   UNL     1       4.922  -1.673  24.239  0.00  0.00    -0.263 NA
ATOM     22  C   UNL     1       3.985  -0.109  22.650  0.00  0.00    -0.012 A 
ATOM     25  C   UNL     1       4.868   0.872  23.084  0.00  0.00    +0.008 A 
ATOM     26  C   UNL     1       4.051  -1.354  23.254  0.00  0.00    +0.115 A 
ATOM     27  C   UNL     1       5.779   0.584  24.095  0.00  0.00    +0.020 A 
ATOM     28  C   UNL     1       5.765  -0.693  24.634  0.00  0.00    +0.111 A 
ENDBRANCH  21  22
ENDBRANCH   4  21
ENDBRANCH  15  19
ENDBRANCH  10  15
TORSDOF 8
ENDMDL
MODEL 9
REMARK VINA RESULT:      -3.0      1.704      5.947
REMARK  Name = 38028444
REMARK  12 active torsions:
REMARK  status: ('A' for Active; 'I' for Inactive)
REMARK    1  A    between atoms: N_3  and  C_14
REMARK    2  A    between atoms: N_4  and  C_21
REMARK    3  A    between atoms: N_5  and  C_23
REMARK    4  A    between atoms: C_7  and  C_11
REMARK    5  A    between atoms: C_8  and  C_14
REMARK    6  A    between atoms: C_10  and  C_15
REMARK    7  A    between atoms: C_11  and  C_16
REMARK    8  A    between atoms: C_11  and  C_17
REMARK    9  A    between atoms: C_12  and  C_18
REMARK   10  A    between atoms: C_15  and  C_19
REMARK   11  A    between atoms: C_21  and  C_22
REMARK   12  A    between atoms: C_23  and  C_24
REMARK                            x       y       z     vdW  Elec       q    Type
REMARK                         _______ _______ _______ _____ _____    ______ ____
ROOT
ATOM      7  C   UNL     1      -3.386   1.481  23.752  0.00  0.00    +0.000 C 
ATOM      8  C   UNL     1      -4.640   1.093  24.575  0.00  0.00    +0.032 C 
ATOM      9  C   UNL     1      -2.594   0.224  23.356  0.00  0.00    +0.012 C 
ATOM     10  C   UNL     1      -2.140  -0.589  24.583  0.00  0.00    +0.023 C 
ATOM     12  C   UNL     1      -3.267  -0.783  25.577  0.00  0.00    -0.073 C 
ATOM     13  C   UNL     1      -4.382  -0.032  25.550  0.00  0.00    -0.022 C 
ATOM     18  C   UNL     1      -3.103  -1.895  26.577  0.00  0.00    +0.039 C 
ENDROOT
BRANCH   7  11
ATOM     11  C   UNL     1      -3.753   2.278  22.497  0.00  0.00    -0.013 C 
ATOM     16  C   UNL     1      -3.968   3.748  22.844  0.00  0.00    +0.007 C 
ATOM     17  C   UNL     1      -2.670   2.126  21.434  0.00  0.00    +0.007 C 
ENDBRANCH   7  11
BRANCH   8  14
ATOM     14  C   UNL     1      -5.202   2.303  25.329  0.00  0.00    +0.113 C 
BRANCH  14   3
ATOM      2  O   UNL     1      -2.553   2.967  26.262  0.00  0.00    -0.253 OA
ATOM      3  N   UNL     1      -4.453   3.482  25.027  0.00  0.00    -0.299 N 
ATOM      5  N   UNL     1      -2.672   4.955  25.072  0.00  0.00    -0.300 N 
ATOM     20  C   UNL     1      -3.167   3.735  25.521  0.00  0.00    +0.300 C 
ATOM     29  H   UNL     1      -4.844   4.149  24.368  0.00  0.00    +0.150 HD
ATOM     31  H   UNL     1      -3.257   5.529  24.473  0.00  0.00    +0.150 HD
BRANCH   5  23
ATOM     23  C   UNL     1      -1.365   5.452  25.436  0.00  0.00    +0.102 C 
ATOM     24  C   UNL     1      -0.309   5.017  24.440  0.00  0.00    +0.024 C 
ENDBRANCH   5  23
ENDBRANCH  14   3
ENDBRANCH   8  14
BRANCH  10  15
ATOM     15  C   UNL     1      -0.922   0.057  25.253  0.00  0.00    +0.103 C 
BRANCH  15  19
ATOM      1  O   UNL     1       0.277   1.830  24.127  0.00  0.00    -0.276 OA
ATOM      4  N   UNL     1       0.623  -0.375  23.481  0.00  0.00    -0.311 N 
ATOM     19  C   UNL     1       0.045   0.630  24.243  0.00  0.00    +0.214 C 
ATOM     30  H   UNL     1       0.371  -1.343  23.655  0.00  0.00    +0.149 HD
BRANCH   4  21
ATOM     21  C   UNL     1       1.586  -0.117  22.436  0.00  0.00    +0.141 C 
BRANCH  21  22
ATOM      6  N   UNL     1       4.762  -1.457  23.994  0.00  0.00    -0.263 NA
ATOM     22  C   UNL     1       2.998  -0.178  22.945  0.00  0.00    -0.012 A 
ATOM     25  C   UNL     1       3.838   0.925  22.860  0.00  0.00    +0.008 A 
ATOM     26  C   UNL     1       3.504  -1.336  23.515  0.00  0.00    +0.115 A 
ATOM     27  C   UNL     1       5.140   0.841  23.343  0.00  0.00    +0.020 A 
ATOM     28  C   UNL     1       5.549  -0.362  23.895  0.00  0.00    +0.111 A 
ENDBRANCH  21  22
ENDBRANCH   4  21
ENDBRANCH  15  19
ENDBRANCH  10  15
TORSDOF 8
ENDMDL
MODEL 10
REMARK VINA RESULT:      -2.1      2.160      5.702
REMARK  Name = 38028444
REMARK  12 active torsions:
REMARK  status: ('A' for Active; 'I' for Inactive)
REMARK    1  A    between atoms: N_3  and  C_14
REMARK    2  A    between atoms: N_4  and  C_21
REMARK    3  A    between atoms: N_5  and  C_23
REMARK    4  A    between atoms: C_7  and  C_11
REMARK    5  A    between atoms: C_8  and  C_14
REMARK    6  A    between atoms: C_10  and  C_15
REMARK    7  A    between atoms: C_11  and  C_16
REMARK    8  A    between atoms: C_11  and  C_17
REMARK    9  A    between atoms: C_12  and  C_18
REMARK   10  A    between atoms: C_15  and  C_19
REMARK   11  A    between atoms: C_21  and  C_22
REMARK   12  A    between atoms: C_23  and  C_24
REMARK                            x       y       z     vdW  Elec       q    Type
REMARK                         _______ _______ _______ _____ _____    ______ ____
ROOT
ATOM      7  C   UNL     1      -2.390   1.396  23.610  0.00  0.00    +0.000 C 
ATOM      8  C   UNL     1      -3.455   1.735  24.682  0.00  0.00    +0.032 C 
ATOM      9  C   UNL     1      -2.603  -0.028  23.073  0.00  0.00    +0.012 C 
ATOM     10  C   UNL     1      -2.527  -1.088  24.189  0.00  0.00    +0.023 C 
ATOM     12  C   UNL     1      -3.347  -0.691  25.399  0.00  0.00    -0.073 C 
ATOM     13  C   UNL     1      -3.765   0.572  25.596  0.00  0.00    -0.022 C 
ATOM     18  C   UNL     1      -3.717  -1.790  26.357  0.00  0.00    +0.039 C 
ENDROOT
BRANCH   7  11
ATOM     11  C   UNL     1      -2.412   2.395  22.449  0.00  0.00    -0.013 C 
ATOM     16  C   UNL     1      -2.347   1.662  21.114  0.00  0.00    +0.007 C 
ATOM     17  C   UNL     1      -3.659   3.271  22.525  0.00  0.00    +0.007 C 
ENDBRANCH   7  11
BRANCH   8  14
ATOM     14  C   UNL     1      -3.030   2.944  25.521  0.00  0.00    +0.113 C 
BRANCH  14   3
ATOM      2  O   UNL     1      -0.259   3.748  25.486  0.00  0.00    -0.253 OA
ATOM      3  N   UNL     1      -2.016   2.581  26.460  0.00  0.00    -0.299 N 
ATOM      5  N   UNL     1       0.087   2.510  27.417  0.00  0.00    -0.300 N 
ATOM     20  C   UNL     1      -0.686   3.013  26.375  0.00  0.00    +0.300 C 
ATOM     29  H   UNL     1      -2.282   2.031  27.271  0.00  0.00    +0.150 HD
ATOM     31  H   UNL     1      -0.350   1.898  28.099  0.00  0.00    +0.150 HD
BRANCH   5  23
ATOM     23  C   UNL     1       1.494   2.806  27.562  0.00  0.00    +0.102 C 
ATOM     24  C   UNL     1       1.947   2.653  29.000  0.00  0.00    +0.024 C 
ENDBRANCH   5  23
ENDBRANCH  14   3
ENDBRANCH   8  14
BRANCH  10  15
ATOM     15  C   UNL     1      -1.073  -1.375  24.581  0.00  0.00    +0.103 C 
BRANCH  15  19
ATOM      1  O   UNL     1      -0.025   0.804  24.657  0.00  0.00    -0.276 OA
ATOM      4  N   UNL     1       0.579  -0.699  22.990  0.00  0.00    -0.311 N 
ATOM     19  C   UNL     1      -0.132  -0.289  24.109  0.00  0.00    +0.214 C 
ATOM     30  H   UNL     1       0.424  -1.628  22.610  0.00  0.00    +0.149 HD
BRANCH   4  21
ATOM     21  C   UNL     1       1.550   0.137  22.324  0.00  0.00    +0.141 C 
BRANCH  21  22
ATOM      6  N   UNL     1       4.549  -1.519  23.927  0.00  0.00    -0.263 NA
ATOM     22  C   UNL     1       2.933  -0.060  22.873  0.00  0.00    -0.012 A 
ATOM     25  C   UNL     1       3.864   0.971  22.857  0.00  0.00    +0.008 A 
ATOM     26  C   UNL     1       3.322  -1.276  23.414  0.00  0.00    +0.115 A 
ATOM     27  C   UNL     1       5.137   0.761  23.377  0.00  0.00    +0.020 A 
ATOM     28  C   UNL     1       5.427  -0.491  23.895  0.00  0.00    +0.111 A 
ENDBRANCH  21  22
ENDBRANCH   4  21
ENDBRANCH  15  19
ENDBRANCH  10  15
TORSDOF 8
ENDMDL
