MODEL 1
REMARK VINA RESULT:      -4.4      0.000      0.000
REMARK  Name = 75536316
REMARK  7 active torsions:
REMARK  status: ('A' for Active; 'I' for Inactive)
REMARK    1  A    between atoms: O_2  and  C_8
REMARK    2  A    between atoms: N_4  and  C_6
REMARK    3  A    between atoms: N_4  and  C_11
REMARK    4  A    between atoms: C_7  and  C_11
REMARK    5  A    between atoms: C_12  and  C_18
REMARK    6  A    between atoms: C_18  and  C_19
REMARK    7  A    between atoms: C_21  and  C_22
REMARK                            x       y       z     vdW  Elec       q    Type
REMARK                         _______ _______ _______ _____ _____    ______ ____
ROOT
ATOM      1  O   UNL     1      -3.675   2.260  25.774  0.00  0.00    -0.369 OA
ATOM      7  C   UNL     1      -4.876   1.572  25.398  0.00  0.00    +0.161 C 
ATOM      8  C   UNL     1      -6.124   2.376  25.787  0.00  0.00    +0.145 C 
ATOM     12  C   UNL     1      -3.549   3.587  25.260  0.00  0.00    +0.125 C 
ATOM     13  C   UNL     1      -6.047   3.828  25.324  0.00  0.00    +0.036 C 
ATOM     14  C   UNL     1      -4.716   4.459  25.722  0.00  0.00    +0.034 C 
ENDROOT
BRANCH   8   2
ATOM      2  O   UNL     1      -6.247   2.378  27.211  0.00  0.00    -0.389 OA
ATOM     29  H   UNL     1      -6.730   3.183  27.464  0.00  0.00    +0.210 HD
ENDBRANCH   8   2
BRANCH   7  11
ATOM     11  C   UNL     1      -4.851   1.187  23.920  0.00  0.00    +0.115 C 
BRANCH  11   4
ATOM      4  N   UNL     1      -3.488   0.952  23.470  0.00  0.00    -0.311 NA
ATOM     28  H   UNL     1      -2.854   1.528  24.025  0.00  0.00    +0.122 HD
BRANCH   4   6
ATOM      6  C   UNL     1      -3.125  -0.457  23.610  0.00  0.00    +0.054 C 
ATOM      9  C   UNL     1      -2.118  -0.624  24.754  0.00  0.00    +0.019 C 
ATOM     10  C   UNL     1      -4.383  -1.297  23.855  0.00  0.00    +0.019 C 
ATOM     15  C   UNL     1      -1.773  -2.095  24.981  0.00  0.00    +0.002 C 
ATOM     16  C   UNL     1      -4.034  -2.767  24.082  0.00  0.00    +0.002 C 
ATOM     17  C   UNL     1      -3.024  -2.938  25.213  0.00  0.00    +0.000 C 
ENDBRANCH   4   6
ENDBRANCH  11   4
ENDBRANCH   7  11
BRANCH  12  18
ATOM     18  C   UNL     1      -2.223   4.148  25.760  0.00  0.00    +0.090 C 
BRANCH  18  19
ATOM      3  O   UNL     1       0.664   1.992  25.692  0.00  0.00    -0.354 OA
ATOM      5  N   UNL     1      -0.279   2.761  26.360  0.00  0.00    -0.083 NA
ATOM     19  C   UNL     1      -1.068   3.253  25.400  0.00  0.00    +0.087 A 
ATOM     20  C   UNL     1      -0.672   2.832  24.118  0.00  0.00    +0.076 A 
ATOM     21  C   UNL     1       0.421   2.042  24.357  0.00  0.00    +0.167 A 
BRANCH  21  22
ATOM     22  C   UNL     1       1.319   1.289  23.531  0.00  0.00    +0.020 A 
ATOM     23  C   UNL     1       2.666   1.647  23.459  0.00  0.00    +0.011 A 
ATOM     24  C   UNL     1       0.847   0.200  22.800  0.00  0.00    +0.011 A 
ATOM     25  C   UNL     1       3.540   0.914  22.656  0.00  0.00    +0.001 A 
ATOM     26  C   UNL     1       1.720  -0.533  21.996  0.00  0.00    +0.001 A 
ATOM     27  C   UNL     1       3.067  -0.175  21.925  0.00  0.00    +0.000 A 
ENDBRANCH  21  22
ENDBRANCH  18  19
ENDBRANCH  12  18
TORSDOF 7
ENDMDL
MODEL 2
REMARK VINA RESULT:      -3.0      2.049      4.266
REMARK  Name = 75536316
REMARK  7 active torsions:
REMARK  status: ('A' for Active; 'I' for Inactive)
REMARK    1  A    between atoms: O_2  and  C_8
REMARK    2  A    between atoms: N_4  and  C_6
REMARK    3  A    between atoms: N_4  and  C_11
REMARK    4  A    between atoms: C_7  and  C_11
REMARK    5  A    between atoms: C_12  and  C_18
REMARK    6  A    between atoms: C_18  and  C_19
REMARK    7  A    between atoms: C_21  and  C_22
REMARK                            x       y       z     vdW  Elec       q    Type
REMARK                         _______ _______ _______ _____ _____    ______ ____
ROOT
ATOM      1  O   UNL     1      -3.652   0.116  23.596  0.00  0.00    -0.369 OA
ATOM      7  C   UNL     1      -4.567  -0.373  24.587  0.00  0.00    +0.161 C 
ATOM      8  C   UNL     1      -3.957  -1.532  25.387  0.00  0.00    +0.145 C 
ATOM     12  C   UNL     1      -2.375   0.519  24.095  0.00  0.00    +0.125 C 
ATOM     13  C   UNL     1      -2.560  -1.205  25.910  0.00  0.00    +0.036 C 
ATOM     14  C   UNL     1      -1.678  -0.644  24.799  0.00  0.00    +0.034 C 
ENDROOT
BRANCH   8   2
ATOM      2  O   UNL     1      -3.846  -2.673  24.533  0.00  0.00    -0.389 OA
ATOM     29  H   UNL     1      -4.164  -2.415  23.652  0.00  0.00    +0.210 HD
ENDBRANCH   8   2
BRANCH   7  11
ATOM     11  C   UNL     1      -5.074   0.762  25.475  0.00  0.00    +0.115 C 
BRANCH  11   4
ATOM      4  N   UNL     1      -5.577   1.864  24.670  0.00  0.00    -0.311 NA
ATOM     28  H   UNL     1      -6.558   2.021  24.904  0.00  0.00    +0.122 HD
BRANCH   4   6
ATOM      6  C   UNL     1      -4.810   3.084  24.914  0.00  0.00    +0.054 C 
ATOM      9  C   UNL     1      -3.895   2.890  26.128  0.00  0.00    +0.019 C 
ATOM     10  C   UNL     1      -4.000   3.449  23.665  0.00  0.00    +0.019 C 
ATOM     15  C   UNL     1      -3.020   4.120  26.368  0.00  0.00    +0.002 C 
ATOM     16  C   UNL     1      -3.126   4.678  23.909  0.00  0.00    +0.002 C 
ATOM     17  C   UNL     1      -2.221   4.494  25.123  0.00  0.00    +0.000 C 
ENDBRANCH   4   6
ENDBRANCH  11   4
ENDBRANCH   7  11
BRANCH  12  18
ATOM     18  C   UNL     1      -1.553   1.004  22.906  0.00  0.00    +0.090 C 
BRANCH  18  19
ATOM      3  O   UNL     1       1.813   1.715  23.981  0.00  0.00    -0.354 OA
ATOM      5  N   UNL     1       0.466   2.033  23.870  0.00  0.00    -0.083 NA
ATOM     19  C   UNL     1      -0.079   1.006  23.211  0.00  0.00    +0.087 A 
ATOM     20  C   UNL     1       0.869   0.020  22.882  0.00  0.00    +0.076 A 
ATOM     21  C   UNL     1       2.042   0.515  23.389  0.00  0.00    +0.167 A 
BRANCH  21  22
ATOM     22  C   UNL     1       3.398   0.051  23.424  0.00  0.00    +0.020 A 
ATOM     23  C   UNL     1       4.440   0.914  23.085  0.00  0.00    +0.011 A 
ATOM     24  C   UNL     1       3.676  -1.264  23.798  0.00  0.00    +0.011 A 
ATOM     25  C   UNL     1       5.759   0.463  23.121  0.00  0.00    +0.001 A 
ATOM     26  C   UNL     1       4.994  -1.716  23.832  0.00  0.00    +0.001 A 
ATOM     27  C   UNL     1       6.037  -0.851  23.494  0.00  0.00    +0.000 A 
ENDBRANCH  21  22
ENDBRANCH  18  19
ENDBRANCH  12  18
TORSDOF 7
ENDMDL
MODEL 3
REMARK VINA RESULT:      -2.8      1.665      6.077
REMARK  Name = 75536316
REMARK  7 active torsions:
REMARK  status: ('A' for Active; 'I' for Inactive)
REMARK    1  A    between atoms: O_2  and  C_8
REMARK    2  A    between atoms: N_4  and  C_6
REMARK    3  A    between atoms: N_4  and  C_11
REMARK    4  A    between atoms: C_7  and  C_11
REMARK    5  A    between atoms: C_12  and  C_18
REMARK    6  A    between atoms: C_18  and  C_19
REMARK    7  A    between atoms: C_21  and  C_22
REMARK                            x       y       z     vdW  Elec       q    Type
REMARK                         _______ _______ _______ _____ _____    ______ ____
ROOT
ATOM      1  O   UNL     1       0.056   1.079  23.223  0.00  0.00    -0.369 OA
ATOM      7  C   UNL     1       0.175  -0.344  23.090  0.00  0.00    +0.161 C 
ATOM      8  C   UNL     1       1.475  -0.730  22.371  0.00  0.00    +0.145 C 
ATOM     12  C   UNL     1       1.154   1.722  23.875  0.00  0.00    +0.125 C 
ATOM     13  C   UNL     1       2.697  -0.039  22.970  0.00  0.00    +0.036 C 
ATOM     14  C   UNL     1       2.458   1.460  23.122  0.00  0.00    +0.034 C 
ENDROOT
BRANCH   8   2
ATOM      2  O   UNL     1       1.379  -0.336  21.001  0.00  0.00    -0.389 OA
ATOM     29  H   UNL     1       0.511   0.083  20.874  0.00  0.00    +0.210 HD
ENDBRANCH   8   2
BRANCH   7  11
ATOM     11  C   UNL     1       0.010  -1.039  24.440  0.00  0.00    +0.115 C 
BRANCH  11   4
ATOM      4  N   UNL     1      -0.996  -0.368  25.248  0.00  0.00    -0.311 NA
ATOM     28  H   UNL     1      -1.114   0.585  24.903  0.00  0.00    +0.122 HD
BRANCH   4   6
ATOM      6  C   UNL     1      -2.273  -1.075  25.188  0.00  0.00    +0.054 C 
ATOM      9  C   UNL     1      -3.140  -0.490  24.068  0.00  0.00    +0.019 C 
ATOM     10  C   UNL     1      -2.030  -2.573  24.973  0.00  0.00    +0.019 C 
ATOM     15  C   UNL     1      -4.456  -1.255  23.925  0.00  0.00    +0.002 C 
ATOM     16  C   UNL     1      -3.347  -3.335  24.829  0.00  0.00    +0.002 C 
ATOM     17  C   UNL     1      -4.218  -2.749  23.722  0.00  0.00    +0.000 C 
ENDBRANCH   4   6
ENDBRANCH  11   4
ENDBRANCH   7  11
BRANCH  12  18
ATOM     18  C   UNL     1       0.847   3.215  23.924  0.00  0.00    +0.090 C 
BRANCH  18  19
ATOM      3  O   UNL     1      -2.149   4.546  25.420  0.00  0.00    -0.354 OA
ATOM      5  N   UNL     1      -0.803   4.626  25.083  0.00  0.00    -0.083 NA
ATOM     19  C   UNL     1      -0.539   3.482  24.444  0.00  0.00    +0.087 A 
ATOM     20  C   UNL     1      -1.669   2.650  24.351  0.00  0.00    +0.076 A 
ATOM     21  C   UNL     1      -2.653   3.366  24.980  0.00  0.00    +0.167 A 
BRANCH  21  22
ATOM     22  C   UNL     1      -4.042   3.140  25.256  0.00  0.00    +0.020 A 
ATOM     23  C   UNL     1      -4.895   4.223  25.471  0.00  0.00    +0.011 A 
ATOM     24  C   UNL     1      -4.540   1.839  25.309  0.00  0.00    +0.011 A 
ATOM     25  C   UNL     1      -6.246   4.004  25.739  0.00  0.00    +0.001 A 
ATOM     26  C   UNL     1      -5.891   1.619  25.578  0.00  0.00    +0.001 A 
ATOM     27  C   UNL     1      -6.744   2.702  25.793  0.00  0.00    +0.000 A 
ENDBRANCH  21  22
ENDBRANCH  18  19
ENDBRANCH  12  18
TORSDOF 7
ENDMDL
MODEL 4
REMARK VINA RESULT:      -1.6      1.704      5.284
REMARK  Name = 75536316
REMARK  7 active torsions:
REMARK  status: ('A' for Active; 'I' for Inactive)
REMARK    1  A    between atoms: O_2  and  C_8
REMARK    2  A    between atoms: N_4  and  C_6
REMARK    3  A    between atoms: N_4  and  C_11
REMARK    4  A    between atoms: C_7  and  C_11
REMARK    5  A    between atoms: C_12  and  C_18
REMARK    6  A    between atoms: C_18  and  C_19
REMARK    7  A    between atoms: C_21  and  C_22
REMARK                            x       y       z     vdW  Elec       q    Type
REMARK                         _______ _______ _______ _____ _____    ______ ____
ROOT
ATOM      1  O   UNL     1      -2.074   3.474  24.665  0.00  0.00    -0.369 OA
ATOM      7  C   UNL     1      -0.654   3.596  24.823  0.00  0.00    +0.161 C 
ATOM      8  C   UNL     1      -0.165   4.990  24.408  0.00  0.00    +0.145 C 
ATOM     12  C   UNL     1      -2.848   4.459  25.352  0.00  0.00    +0.125 C 
ATOM     13  C   UNL     1      -0.979   6.108  25.054  0.00  0.00    +0.036 C 
ATOM     14  C   UNL     1      -2.475   5.864  24.881  0.00  0.00    +0.034 C 
ENDROOT
BRANCH   8   2
ATOM      2  O   UNL     1      -0.293   5.121  22.990  0.00  0.00    -0.389 OA
ATOM     29  H   UNL     1      -1.216   4.923  22.758  0.00  0.00    +0.210 HD
ENDBRANCH   8   2
BRANCH   7  11
ATOM     11  C   UNL     1      -0.220   3.209  26.235  0.00  0.00    +0.115 C 
BRANCH  11   4
ATOM      4  N   UNL     1       0.090   1.789  26.310  0.00  0.00    -0.311 NA
ATOM     28  H   UNL     1      -0.500   1.361  27.024  0.00  0.00    +0.122 HD
BRANCH   4   6
ATOM      6  C   UNL     1      -0.138   1.134  25.024  0.00  0.00    +0.054 C 
ATOM      9  C   UNL     1       1.113   1.257  24.148  0.00  0.00    +0.019 C 
ATOM     10  C   UNL     1      -0.515  -0.335  25.247  0.00  0.00    +0.019 C 
ATOM     15  C   UNL     1       0.940   0.517  22.822  0.00  0.00    +0.002 C 
ATOM     16  C   UNL     1      -0.687  -1.072  23.919  0.00  0.00    +0.002 C 
ATOM     17  C   UNL     1       0.553  -0.944  23.039  0.00  0.00    +0.000 C 
ENDBRANCH   4   6
ENDBRANCH  11   4
ENDBRANCH   7  11
BRANCH  12  18
ATOM     18  C   UNL     1      -4.318   4.165  25.070  0.00  0.00    +0.090 C 
BRANCH  18  19
ATOM      3  O   UNL     1      -5.725   0.852  24.901  0.00  0.00    -0.354 OA
ATOM      5  N   UNL     1      -5.841   2.233  24.992  0.00  0.00    -0.083 NA
ATOM     19  C   UNL     1      -4.584   2.687  24.983  0.00  0.00    +0.087 A 
ATOM     20  C   UNL     1      -3.642   1.646  24.890  0.00  0.00    +0.076 A 
ATOM     21  C   UNL     1      -4.411   0.514  24.840  0.00  0.00    +0.167 A 
BRANCH  21  22
ATOM     22  C   UNL     1      -4.133  -0.889  24.741  0.00  0.00    +0.020 A 
ATOM     23  C   UNL     1      -3.532  -1.558  25.807  0.00  0.00    +0.011 A 
ATOM     24  C   UNL     1      -4.462  -1.584  23.578  0.00  0.00    +0.011 A 
ATOM     25  C   UNL     1      -3.261  -2.923  25.710  0.00  0.00    +0.001 A 
ATOM     26  C   UNL     1      -4.191  -2.949  23.480  0.00  0.00    +0.001 A 
ATOM     27  C   UNL     1      -3.590  -3.618  24.547  0.00  0.00    +0.000 A 
ENDBRANCH  21  22
ENDBRANCH  18  19
ENDBRANCH  12  18
TORSDOF 7
ENDMDL
MODEL 5
REMARK VINA RESULT:      -0.9      2.119      3.562
REMARK  Name = 75536316
REMARK  7 active torsions:
REMARK  status: ('A' for Active; 'I' for Inactive)
REMARK    1  A    between atoms: O_2  and  C_8
REMARK    2  A    between atoms: N_4  and  C_6
REMARK    3  A    between atoms: N_4  and  C_11
REMARK    4  A    between atoms: C_7  and  C_11
REMARK    5  A    between atoms: C_12  and  C_18
REMARK    6  A    between atoms: C_18  and  C_19
REMARK    7  A    between atoms: C_21  and  C_22
REMARK                            x       y       z     vdW  Elec       q    Type
REMARK                         _______ _______ _______ _____ _____    ______ ____
ROOT
ATOM      1  O   UNL     1      -0.874   2.414  24.343  0.00  0.00    -0.369 OA
ATOM      7  C   UNL     1      -1.127   2.855  25.685  0.00  0.00    +0.161 C 
ATOM      8  C   UNL     1      -2.312   3.828  25.738  0.00  0.00    +0.145 C 
ATOM     12  C   UNL     1      -1.991   1.820  23.679  0.00  0.00    +0.125 C 
ATOM     13  C   UNL     1      -3.536   3.294  24.999  0.00  0.00    +0.036 C 
ATOM     14  C   UNL     1      -3.160   2.802  23.605  0.00  0.00    +0.034 C 
ENDROOT
BRANCH   8   2
ATOM      2  O   UNL     1      -1.929   5.057  25.117  0.00  0.00    -0.389 OA
ATOM     29  H   UNL     1      -2.683   5.667  25.179  0.00  0.00    +0.210 HD
ENDBRANCH   8   2
BRANCH   7  11
ATOM     11  C   UNL     1      -1.286   1.668  26.633  0.00  0.00    +0.115 C 
BRANCH  11   4
ATOM      4  N   UNL     1      -0.523   0.523  26.162  0.00  0.00    -0.311 NA
ATOM     28  H   UNL     1       0.217   0.321  26.834  0.00  0.00    +0.122 HD
BRANCH   4   6
ATOM      6  C   UNL     1      -1.381  -0.650  26.006  0.00  0.00    +0.054 C 
ATOM      9  C   UNL     1      -2.834  -0.209  25.799  0.00  0.00    +0.019 C 
ATOM     10  C   UNL     1      -0.890  -1.503  24.832  0.00  0.00    +0.019 C 
ATOM     15  C   UNL     1      -3.751  -1.407  25.556  0.00  0.00    +0.002 C 
ATOM     16  C   UNL     1      -1.809  -2.700  24.591  0.00  0.00    +0.002 C 
ATOM     17  C   UNL     1      -3.259  -2.266  24.395  0.00  0.00    +0.000 C 
ENDBRANCH   4   6
ENDBRANCH  11   4
ENDBRANCH   7  11
BRANCH  12  18
ATOM     18  C   UNL     1      -1.532   1.419  22.282  0.00  0.00    +0.090 C 
BRANCH  18  19
ATOM      3  O   UNL     1       1.384  -0.639  21.775  0.00  0.00    -0.354 OA
ATOM      5  N   UNL     1       0.072  -0.275  21.495  0.00  0.00    -0.083 NA
ATOM     19  C   UNL     1      -0.182   0.755  22.308  0.00  0.00    +0.087 A 
ATOM     20  C   UNL     1       0.922   1.081  23.116  0.00  0.00    +0.076 A 
ATOM     21  C   UNL     1       1.879   0.175  22.741  0.00  0.00    +0.167 A 
BRANCH  21  22
ATOM     22  C   UNL     1       3.234  -0.081  23.137  0.00  0.00    +0.020 A 
ATOM     23  C   UNL     1       3.593  -1.337  23.623  0.00  0.00    +0.011 A 
ATOM     24  C   UNL     1       4.191   0.928  23.035  0.00  0.00    +0.011 A 
ATOM     25  C   UNL     1       4.911  -1.586  24.007  0.00  0.00    +0.001 A 
ATOM     26  C   UNL     1       5.509   0.680  23.420  0.00  0.00    +0.001 A 
ATOM     27  C   UNL     1       5.869  -0.578  23.906  0.00  0.00    +0.000 A 
ENDBRANCH  21  22
ENDBRANCH  18  19
ENDBRANCH  12  18
TORSDOF 7
ENDMDL
MODEL 6
REMARK VINA RESULT:      -0.6      1.816      2.827
REMARK  Name = 75536316
REMARK  7 active torsions:
REMARK  status: ('A' for Active; 'I' for Inactive)
REMARK    1  A    between atoms: O_2  and  C_8
REMARK    2  A    between atoms: N_4  and  C_6
REMARK    3  A    between atoms: N_4  and  C_11
REMARK    4  A    between atoms: C_7  and  C_11
REMARK    5  A    between atoms: C_12  and  C_18
REMARK    6  A    between atoms: C_18  and  C_19
REMARK    7  A    between atoms: C_21  and  C_22
REMARK                            x       y       z     vdW  Elec       q    Type
REMARK                         _______ _______ _______ _____ _____    ______ ____
ROOT
ATOM      1  O   UNL     1      -2.662   1.564  24.604  0.00  0.00    -0.369 OA
ATOM      7  C   UNL     1      -3.422   2.408  25.481  0.00  0.00    +0.161 C 
ATOM      8  C   UNL     1      -3.203   3.891  25.155  0.00  0.00    +0.145 C 
ATOM     12  C   UNL     1      -2.895   1.771  23.209  0.00  0.00    +0.125 C 
ATOM     13  C   UNL     1      -3.376   4.192  23.669  0.00  0.00    +0.036 C 
ATOM     14  C   UNL     1      -2.574   3.213  22.817  0.00  0.00    +0.034 C 
ENDROOT
BRANCH   8   2
ATOM      2  O   UNL     1      -1.870   4.252  25.521  0.00  0.00    -0.389 OA
ATOM     29  H   UNL     1      -1.647   5.074  25.052  0.00  0.00    +0.210 HD
ENDBRANCH   8   2
BRANCH   7  11
ATOM     11  C   UNL     1      -4.897   2.010  25.486  0.00  0.00    +0.115 C 
BRANCH  11   4
ATOM      4  N   UNL     1      -5.062   0.642  25.954  0.00  0.00    -0.311 NA
ATOM     28  H   UNL     1      -6.030   0.356  25.800  0.00  0.00    +0.122 HD
BRANCH   4   6
ATOM      6  C   UNL     1      -4.161  -0.266  25.248  0.00  0.00    +0.054 C 
ATOM      9  C   UNL     1      -3.488  -1.213  26.248  0.00  0.00    +0.019 C 
ATOM     10  C   UNL     1      -4.937  -1.048  24.183  0.00  0.00    +0.019 C 
ATOM     15  C   UNL     1      -2.594  -2.229  25.538  0.00  0.00    +0.002 C 
ATOM     16  C   UNL     1      -4.041  -2.063  23.476  0.00  0.00    +0.002 C 
ATOM     17  C   UNL     1      -3.361  -3.002  24.468  0.00  0.00    +0.000 C 
ENDBRANCH   4   6
ENDBRANCH  11   4
ENDBRANCH   7  11
BRANCH  12  18
ATOM     18  C   UNL     1      -2.008   0.792  22.447  0.00  0.00    +0.090 C 
BRANCH  18  19
ATOM      3  O   UNL     1       1.146   1.548  24.019  0.00  0.00    -0.354 OA
ATOM      5  N   UNL     1      -0.210   1.772  23.813  0.00  0.00    -0.083 NA
ATOM     19  C   UNL     1      -0.580   0.852  22.917  0.00  0.00    +0.087 A 
ATOM     20  C   UNL     1       0.491   0.029  22.525  0.00  0.00    +0.076 A 
ATOM     21  C   UNL     1       1.552   0.508  23.247  0.00  0.00    +0.167 A 
BRANCH  21  22
ATOM     22  C   UNL     1       2.938   0.156  23.354  0.00  0.00    +0.020 A 
ATOM     23  C   UNL     1       3.302  -1.138  23.723  0.00  0.00    +0.011 A 
ATOM     24  C   UNL     1       3.921   1.109  23.089  0.00  0.00    +0.011 A 
ATOM     25  C   UNL     1       4.650  -1.481  23.827  0.00  0.00    +0.001 A 
ATOM     26  C   UNL     1       5.269   0.768  23.194  0.00  0.00    +0.001 A 
ATOM     27  C   UNL     1       5.634  -0.528  23.563  0.00  0.00    +0.000 A 
ENDBRANCH  21  22
ENDBRANCH  18  19
ENDBRANCH  12  18
TORSDOF 7
ENDMDL
