MODEL 1
REMARK VINA RESULT:      -7.2      0.000      0.000
REMARK  Name = 75536552
REMARK  7 active torsions:
REMARK  status: ('A' for Active; 'I' for Inactive)
REMARK    1  A    between atoms: O_2  and  C_7
REMARK    2  A    between atoms: N_4  and  C_6
REMARK    3  A    between atoms: N_4  and  C_17
REMARK    4  A    between atoms: N_4  and  C_18
REMARK    5  A    between atoms: N_5  and  C_13
REMARK    6  A    between atoms: C_8  and  C_13
REMARK    7  A    between atoms: C_9  and  C_16
REMARK                            x       y       z     vdW  Elec       q    Type
REMARK                         _______ _______ _______ _____ _____    ______ ____
ROOT
ATOM      1  O   UNL     1      -1.639   2.303  23.183  0.00  0.00    -0.371 OA
ATOM      6  C   UNL     1      -3.572   3.251  24.187  0.00  0.00    +0.113 C 
ATOM      7  C   UNL     1      -2.561   2.927  25.270  0.00  0.00    +0.164 C 
ATOM      8  C   UNL     1      -1.274   2.855  24.459  0.00  0.00    +0.165 C 
ATOM     10  C   UNL     1      -3.067   2.393  23.038  0.00  0.00    +0.181 C 
ENDROOT
BRANCH   6   4
ATOM      4  N   UNL     1      -4.944   2.947  24.559  0.00  0.00    -0.301 NA
ATOM     17  C   UNL     1      -5.442   3.910  25.546  0.00  0.00    +0.105 C 
ATOM     18  C   UNL     1      -5.050   1.584  25.088  0.00  0.00    +0.105 C 
ENDBRANCH   6   4
BRANCH   7   2
ATOM      2  O   UNL     1      -2.496   3.922  26.273  0.00  0.00    -0.388 OA
ATOM     20  H   UNL     1      -3.400   4.227  26.458  0.00  0.00    +0.210 HD
ENDBRANCH   7   2
BRANCH   8  13
ATOM     13  C   UNL     1      -0.204   1.994  25.104  0.00  0.00    +0.138 C 
BRANCH  13   5
ATOM      3  O   UNL     1       0.070  -0.512  23.662  0.00  0.00    -0.276 OA
ATOM      5  N   UNL     1      -0.724   0.710  25.480  0.00  0.00    -0.313 N 
ATOM     16  C   UNL     1      -0.543  -0.443  24.724  0.00  0.00    +0.216 C 
ATOM     19  H   UNL     1      -1.248   0.654  26.348  0.00  0.00    +0.149 HD
BRANCH  16   9
ATOM      9  C   UNL     1      -1.167  -1.650  25.356  0.00  0.00    +0.075 C 
ATOM     11  C   UNL     1      -2.369  -1.250  26.213  0.00  0.00    +0.013 C 
ATOM     12  C   UNL     1      -1.705  -2.596  24.277  0.00  0.00    +0.013 C 
ATOM     14  C   UNL     1      -3.578  -1.529  25.333  0.00  0.00    +0.001 C 
ATOM     15  C   UNL     1      -3.182  -2.797  24.599  0.00  0.00    +0.001 C 
ENDBRANCH  16   9
ENDBRANCH  13   5
ENDBRANCH   8  13
TORSDOF 5
ENDMDL
MODEL 2
REMARK VINA RESULT:      -7.0      1.838      2.599
REMARK  Name = 75536552
REMARK  7 active torsions:
REMARK  status: ('A' for Active; 'I' for Inactive)
REMARK    1  A    between atoms: O_2  and  C_7
REMARK    2  A    between atoms: N_4  and  C_6
REMARK    3  A    between atoms: N_4  and  C_17
REMARK    4  A    between atoms: N_4  and  C_18
REMARK    5  A    between atoms: N_5  and  C_13
REMARK    6  A    between atoms: C_8  and  C_13
REMARK    7  A    between atoms: C_9  and  C_16
REMARK                            x       y       z     vdW  Elec       q    Type
REMARK                         _______ _______ _______ _____ _____    ______ ____
ROOT
ATOM      1  O   UNL     1      -1.067   1.260  22.976  0.00  0.00    -0.371 OA
ATOM      6  C   UNL     1      -0.945   3.080  24.498  0.00  0.00    +0.113 C 
ATOM      7  C   UNL     1      -0.309   1.859  25.135  0.00  0.00    +0.164 C 
ATOM      8  C   UNL     1       0.000   1.014  23.907  0.00  0.00    +0.165 C 
ATOM     10  C   UNL     1      -1.768   2.446  23.389  0.00  0.00    +0.181 C 
ENDROOT
BRANCH   6   4
ATOM      4  N   UNL     1      -1.747   3.869  25.418  0.00  0.00    -0.301 NA
ATOM     17  C   UNL     1      -3.166   3.521  25.302  0.00  0.00    +0.105 C 
ATOM     18  C   UNL     1      -1.558   5.302  25.176  0.00  0.00    +0.105 C 
ENDBRANCH   6   4
BRANCH   7   2
ATOM      2  O   UNL     1       0.859   2.171  25.869  0.00  0.00    -0.388 OA
ATOM     20  H   UNL     1       1.139   3.070  25.628  0.00  0.00    +0.210 HD
ENDBRANCH   7   2
BRANCH   8  13
ATOM     13  C   UNL     1       0.088  -0.471  24.207  0.00  0.00    +0.138 C 
BRANCH  13   5
ATOM      3  O   UNL     1      -1.194  -0.828  26.787  0.00  0.00    -0.276 OA
ATOM      5  N   UNL     1      -1.209  -1.029  24.466  0.00  0.00    -0.313 N 
ATOM     16  C   UNL     1      -1.746  -1.162  25.742  0.00  0.00    +0.216 C 
ATOM     19  H   UNL     1      -1.754  -1.337  23.667  0.00  0.00    +0.149 HD
BRANCH  16   9
ATOM      9  C   UNL     1      -3.123  -1.751  25.729  0.00  0.00    +0.075 C 
ATOM     11  C   UNL     1      -4.166  -0.679  25.413  0.00  0.00    +0.013 C 
ATOM     12  C   UNL     1      -3.240  -2.803  24.619  0.00  0.00    +0.013 C 
ATOM     14  C   UNL     1      -4.465  -0.856  23.932  0.00  0.00    +0.001 C 
ATOM     15  C   UNL     1      -4.414  -2.362  23.751  0.00  0.00    +0.001 C 
ENDBRANCH  16   9
ENDBRANCH  13   5
ENDBRANCH   8  13
TORSDOF 5
ENDMDL
MODEL 3
REMARK VINA RESULT:      -6.0      1.557      4.866
REMARK  Name = 75536552
REMARK  7 active torsions:
REMARK  status: ('A' for Active; 'I' for Inactive)
REMARK    1  A    between atoms: O_2  and  C_7
REMARK    2  A    between atoms: N_4  and  C_6
REMARK    3  A    between atoms: N_4  and  C_17
REMARK    4  A    between atoms: N_4  and  C_18
REMARK    5  A    between atoms: N_5  and  C_13
REMARK    6  A    between atoms: C_8  and  C_13
REMARK    7  A    between atoms: C_9  and  C_16
REMARK                            x       y       z     vdW  Elec       q    Type
REMARK                         _______ _______ _______ _____ _____    ______ ____
ROOT
ATOM      1  O   UNL     1       0.280  -0.824  24.613  0.00  0.00    -0.371 OA
ATOM      6  C   UNL     1      -1.924  -1.658  24.317  0.00  0.00    +0.113 C 
ATOM      7  C   UNL     1      -1.941  -0.150  24.158  0.00  0.00    +0.164 C 
ATOM      8  C   UNL     1      -0.477   0.130  23.848  0.00  0.00    +0.165 C 
ATOM     10  C   UNL     1      -0.608  -1.869  25.046  0.00  0.00    +0.181 C 
ENDROOT
BRANCH   6   4
ATOM      4  N   UNL     1      -3.067  -2.182  25.048  0.00  0.00    -0.301 NA
ATOM     17  C   UNL     1      -4.133  -2.587  24.128  0.00  0.00    +0.105 C 
ATOM     18  C   UNL     1      -3.573  -1.190  26.001  0.00  0.00    +0.105 C 
ENDBRANCH   6   4
BRANCH   7   2
ATOM      2  O   UNL     1      -2.792   0.281  23.114  0.00  0.00    -0.388 OA
ATOM     20  H   UNL     1      -2.935   1.237  23.211  0.00  0.00    +0.210 HD
ENDBRANCH   7   2
BRANCH   8  13
ATOM     13  C   UNL     1      -0.044   1.538  24.211  0.00  0.00    +0.138 C 
BRANCH  13   5
ATOM      3  O   UNL     1      -1.104   3.053  26.449  0.00  0.00    -0.276 OA
ATOM      5  N   UNL     1      -1.156   2.445  24.201  0.00  0.00    -0.313 N 
ATOM     16  C   UNL     1      -1.597   3.132  25.327  0.00  0.00    +0.216 C 
ATOM     19  H   UNL     1      -1.637   2.586  23.318  0.00  0.00    +0.149 HD
BRANCH  16   9
ATOM      9  C   UNL     1      -2.759   4.030  25.035  0.00  0.00    +0.075 C 
ATOM     11  C   UNL     1      -3.591   3.478  23.877  0.00  0.00    +0.013 C 
ATOM     12  C   UNL     1      -3.698   4.095  26.245  0.00  0.00    +0.013 C 
ATOM     14  C   UNL     1      -4.763   2.776  24.546  0.00  0.00    +0.001 C 
ATOM     15  C   UNL     1      -5.071   3.675  25.730  0.00  0.00    +0.001 C 
ENDBRANCH  16   9
ENDBRANCH  13   5
ENDBRANCH   8  13
TORSDOF 5
ENDMDL
MODEL 4
REMARK VINA RESULT:      -5.8      1.566      4.958
REMARK  Name = 75536552
REMARK  7 active torsions:
REMARK  status: ('A' for Active; 'I' for Inactive)
REMARK    1  A    between atoms: O_2  and  C_7
REMARK    2  A    between atoms: N_4  and  C_6
REMARK    3  A    between atoms: N_4  and  C_17
REMARK    4  A    between atoms: N_4  and  C_18
REMARK    5  A    between atoms: N_5  and  C_13
REMARK    6  A    between atoms: C_8  and  C_13
REMARK    7  A    between atoms: C_9  and  C_16
REMARK                            x       y       z     vdW  Elec       q    Type
REMARK                         _______ _______ _______ _____ _____    ______ ____
ROOT
ATOM      1  O   UNL     1      -0.593   1.301  26.055  0.00  0.00    -0.371 OA
ATOM      6  C   UNL     1      -0.550  -0.702  24.778  0.00  0.00    +0.113 C 
ATOM      7  C   UNL     1      -0.445   0.485  23.839  0.00  0.00    +0.164 C 
ATOM      8  C   UNL     1       0.038   1.571  24.792  0.00  0.00    +0.165 C 
ATOM     10  C   UNL     1      -1.100  -0.044  26.033  0.00  0.00    +0.181 C 
ENDROOT
BRANCH   6   4
ATOM      4  N   UNL     1      -1.402  -1.768  24.278  0.00  0.00    -0.301 NA
ATOM     17  C   UNL     1      -2.806  -1.348  24.259  0.00  0.00    +0.105 C 
ATOM     18  C   UNL     1      -1.249  -2.979  25.089  0.00  0.00    +0.105 C 
ENDBRANCH   6   4
BRANCH   7   2
ATOM      2  O   UNL     1       0.468   0.267  22.782  0.00  0.00    -0.388 OA
ATOM     20  H   UNL     1      -0.018   0.319  21.943  0.00  0.00    +0.210 HD
ENDBRANCH   7   2
BRANCH   8  13
ATOM     13  C   UNL     1      -0.314   2.974  24.331  0.00  0.00    +0.138 C 
BRANCH  13   5
ATOM      3  O   UNL     1      -2.260   4.258  26.062  0.00  0.00    -0.276 OA
ATOM      5  N   UNL     1      -1.725   3.111  24.106  0.00  0.00    -0.313 N 
ATOM     16  C   UNL     1      -2.586   3.746  24.995  0.00  0.00    +0.216 C 
ATOM     19  H   UNL     1      -2.101   2.722  23.247  0.00  0.00    +0.149 HD
BRANCH  16   9
ATOM      9  C   UNL     1      -4.002   3.771  24.506  0.00  0.00    +0.075 C 
ATOM     11  C   UNL     1      -4.324   2.500  23.719  0.00  0.00    +0.013 C 
ATOM     12  C   UNL     1      -4.973   3.798  25.692  0.00  0.00    +0.013 C 
ATOM     14  C   UNL     1      -5.060   1.610  24.710  0.00  0.00    +0.001 C 
ATOM     15  C   UNL     1      -5.895   2.598  25.503  0.00  0.00    +0.001 C 
ENDBRANCH  16   9
ENDBRANCH  13   5
ENDBRANCH   8  13
TORSDOF 5
ENDMDL
MODEL 5
REMARK VINA RESULT:      -5.1      1.973      5.394
REMARK  Name = 75536552
REMARK  7 active torsions:
REMARK  status: ('A' for Active; 'I' for Inactive)
REMARK    1  A    between atoms: O_2  and  C_7
REMARK    2  A    between atoms: N_4  and  C_6
REMARK    3  A    between atoms: N_4  and  C_17
REMARK    4  A    between atoms: N_4  and  C_18
REMARK    5  A    between atoms: N_5  and  C_13
REMARK    6  A    between atoms: C_8  and  C_13
REMARK    7  A    between atoms: C_9  and  C_16
REMARK                            x       y       z     vdW  Elec       q    Type
REMARK                         _______ _______ _______ _____ _____    ______ ____
ROOT
ATOM      1  O   UNL     1      -2.252  -2.006  24.187  0.00  0.00    -0.371 OA
ATOM      6  C   UNL     1      -0.225  -0.830  24.572  0.00  0.00    +0.113 C 
ATOM      7  C   UNL     1      -1.365  -0.079  25.232  0.00  0.00    +0.164 C 
ATOM      8  C   UNL     1      -2.412  -1.179  25.351  0.00  0.00    +0.165 C 
ATOM     10  C   UNL     1      -0.976  -1.716  23.591  0.00  0.00    +0.181 C 
ENDROOT
BRANCH   6   4
ATOM      4  N   UNL     1       0.747   0.035  23.923  0.00  0.00    -0.301 NA
ATOM     17  C   UNL     1       0.292   1.429  23.932  0.00  0.00    +0.105 C 
ATOM     18  C   UNL     1       0.998  -0.404  22.548  0.00  0.00    +0.105 C 
ENDBRANCH   6   4
BRANCH   7   2
ATOM      2  O   UNL     1      -1.012   0.452  26.495  0.00  0.00    -0.388 OA
ATOM     20  H   UNL     1      -0.272  -0.069  26.848  0.00  0.00    +0.210 HD
ENDBRANCH   7   2
BRANCH   8  13
ATOM     13  C   UNL     1      -3.833  -0.651  25.416  0.00  0.00    +0.138 C 
BRANCH  13   5
ATOM      3  O   UNL     1      -6.026   1.204  25.845  0.00  0.00    -0.276 OA
ATOM      5  N   UNL     1      -3.896   0.729  25.028  0.00  0.00    -0.313 N 
ATOM     16  C   UNL     1      -4.993   1.547  25.276  0.00  0.00    +0.216 C 
ATOM     19  H   UNL     1      -3.089   1.118  24.550  0.00  0.00    +0.149 HD
BRANCH  16   9
ATOM      9  C   UNL     1      -4.788   2.949  24.789  0.00  0.00    +0.075 C 
ATOM     11  C   UNL     1      -4.590   3.906  25.966  0.00  0.00    +0.013 C 
ATOM     12  C   UNL     1      -3.511   3.037  23.946  0.00  0.00    +0.013 C 
ATOM     14  C   UNL     1      -3.084   4.099  26.057  0.00  0.00    +0.001 C 
ATOM     15  C   UNL     1      -2.653   4.115  24.601  0.00  0.00    +0.001 C 
ENDBRANCH  16   9
ENDBRANCH  13   5
ENDBRANCH   8  13
TORSDOF 5
ENDMDL
MODEL 6
REMARK VINA RESULT:      -4.2      3.060      4.246
REMARK  Name = 75536552
REMARK  7 active torsions:
REMARK  status: ('A' for Active; 'I' for Inactive)
REMARK    1  A    between atoms: O_2  and  C_7
REMARK    2  A    between atoms: N_4  and  C_6
REMARK    3  A    between atoms: N_4  and  C_17
REMARK    4  A    between atoms: N_4  and  C_18
REMARK    5  A    between atoms: N_5  and  C_13
REMARK    6  A    between atoms: C_8  and  C_13
REMARK    7  A    between atoms: C_9  and  C_16
REMARK                            x       y       z     vdW  Elec       q    Type
REMARK                         _______ _______ _______ _____ _____    ______ ____
ROOT
ATOM      1  O   UNL     1      -1.788   1.257  22.748  0.00  0.00    -0.371 OA
ATOM      6  C   UNL     1      -2.483   2.965  24.245  0.00  0.00    +0.113 C 
ATOM      7  C   UNL     1      -1.648   1.951  25.005  0.00  0.00    +0.164 C 
ATOM      8  C   UNL     1      -0.886   1.286  23.866  0.00  0.00    +0.165 C 
ATOM     10  C   UNL     1      -2.868   2.171  23.007  0.00  0.00    +0.181 C 
ENDROOT
BRANCH   6   4
ATOM      4  N   UNL     1      -3.635   3.448  24.989  0.00  0.00    -0.301 NA
ATOM     17  C   UNL     1      -3.216   4.100  26.233  0.00  0.00    +0.105 C 
ATOM     18  C   UNL     1      -4.561   2.351  25.282  0.00  0.00    +0.105 C 
ENDBRANCH   6   4
BRANCH   7   2
ATOM      2  O   UNL     1      -0.777   2.553  25.942  0.00  0.00    -0.388 OA
ATOM     20  H   UNL     1      -0.665   1.942  26.690  0.00  0.00    +0.210 HD
ENDBRANCH   7   2
BRANCH   8  13
ATOM     13  C   UNL     1      -0.427  -0.123  24.193  0.00  0.00    +0.138 C 
BRANCH  13   5
ATOM      3  O   UNL     1       1.809   1.673  23.736  0.00  0.00    -0.276 OA
ATOM      5  N   UNL     1       0.819  -0.428  23.549  0.00  0.00    -0.313 N 
ATOM     16  C   UNL     1       1.840   0.500  23.373  0.00  0.00    +0.216 C 
ATOM     19  H   UNL     1       0.951  -1.376  23.211  0.00  0.00    +0.149 HD
BRANCH  16   9
ATOM      9  C   UNL     1       3.040  -0.086  22.695  0.00  0.00    +0.075 C 
ATOM     11  C   UNL     1       4.143   0.963  22.548  0.00  0.00    +0.013 C 
ATOM     12  C   UNL     1       3.633  -1.215  23.545  0.00  0.00    +0.013 C 
ATOM     14  C   UNL     1       5.100   0.679  23.696  0.00  0.00    +0.001 C 
ATOM     15  C   UNL     1       5.092  -0.836  23.782  0.00  0.00    +0.001 C 
ENDBRANCH  16   9
ENDBRANCH  13   5
ENDBRANCH   8  13
TORSDOF 5
ENDMDL
MODEL 7
REMARK VINA RESULT:      -4.2      2.140      5.157
REMARK  Name = 75536552
REMARK  7 active torsions:
REMARK  status: ('A' for Active; 'I' for Inactive)
REMARK    1  A    between atoms: O_2  and  C_7
REMARK    2  A    between atoms: N_4  and  C_6
REMARK    3  A    between atoms: N_4  and  C_17
REMARK    4  A    between atoms: N_4  and  C_18
REMARK    5  A    between atoms: N_5  and  C_13
REMARK    6  A    between atoms: C_8  and  C_13
REMARK    7  A    between atoms: C_9  and  C_16
REMARK                            x       y       z     vdW  Elec       q    Type
REMARK                         _______ _______ _______ _____ _____    ______ ____
ROOT
ATOM      1  O   UNL     1      -1.362  -0.509  26.239  0.00  0.00    -0.371 OA
ATOM      6  C   UNL     1      -2.913  -1.981  25.204  0.00  0.00    +0.113 C 
ATOM      7  C   UNL     1      -1.830  -1.621  24.204  0.00  0.00    +0.164 C 
ATOM      8  C   UNL     1      -0.715  -1.160  25.133  0.00  0.00    +0.165 C 
ATOM     10  C   UNL     1      -2.753  -0.872  26.232  0.00  0.00    +0.181 C 
ENDROOT
BRANCH   6   4
ATOM      4  N   UNL     1      -4.247  -2.030  24.628  0.00  0.00    -0.301 NA
ATOM     17  C   UNL     1      -4.327  -3.057  23.585  0.00  0.00    +0.105 C 
ATOM     18  C   UNL     1      -4.625  -0.725  24.080  0.00  0.00    +0.105 C 
ENDBRANCH   6   4
BRANCH   7   2
ATOM      2  O   UNL     1      -1.433  -2.721  23.409  0.00  0.00    -0.388 OA
ATOM     20  H   UNL     1      -2.067  -2.813  22.678  0.00  0.00    +0.210 HD
ENDBRANCH   7   2
BRANCH   8  13
ATOM     13  C   UNL     1       0.260  -0.203  24.472  0.00  0.00    +0.138 C 
BRANCH  13   5
ATOM      3  O   UNL     1       0.675   2.437  25.608  0.00  0.00    -0.276 OA
ATOM      5  N   UNL     1      -0.386   1.021  24.093  0.00  0.00    -0.313 N 
ATOM     16  C   UNL     1      -0.124   2.247  24.696  0.00  0.00    +0.216 C 
ATOM     19  H   UNL     1      -1.068   0.977  23.342  0.00  0.00    +0.149 HD
BRANCH  16   9
ATOM      9  C   UNL     1      -0.917   3.366  24.094  0.00  0.00    +0.075 C 
ATOM     11  C   UNL     1      -2.407   3.193  24.392  0.00  0.00    +0.013 C 
ATOM     12  C   UNL     1      -0.508   4.704  24.720  0.00  0.00    +0.013 C 
ATOM     14  C   UNL     1      -2.674   4.116  25.571  0.00  0.00    +0.001 C 
ATOM     15  C   UNL     1      -1.791   5.314  25.274  0.00  0.00    +0.001 C 
ENDBRANCH  16   9
ENDBRANCH  13   5
ENDBRANCH   8  13
TORSDOF 5
ENDMDL
MODEL 8
REMARK VINA RESULT:      -4.1      1.742      3.959
REMARK  Name = 75536552
REMARK  7 active torsions:
REMARK  status: ('A' for Active; 'I' for Inactive)
REMARK    1  A    between atoms: O_2  and  C_7
REMARK    2  A    between atoms: N_4  and  C_6
REMARK    3  A    between atoms: N_4  and  C_17
REMARK    4  A    between atoms: N_4  and  C_18
REMARK    5  A    between atoms: N_5  and  C_13
REMARK    6  A    between atoms: C_8  and  C_13
REMARK    7  A    between atoms: C_9  and  C_16
REMARK                            x       y       z     vdW  Elec       q    Type
REMARK                         _______ _______ _______ _____ _____    ______ ____
ROOT
ATOM      1  O   UNL     1      -3.833  -1.104  25.511  0.00  0.00    -0.371 OA
ATOM      6  C   UNL     1      -4.762   0.790  24.420  0.00  0.00    +0.113 C 
ATOM      7  C   UNL     1      -3.278   0.719  24.111  0.00  0.00    +0.164 C 
ATOM      8  C   UNL     1      -2.986  -0.746  24.407  0.00  0.00    +0.165 C 
ATOM     10  C   UNL     1      -4.857  -0.103  25.646  0.00  0.00    +0.181 C 
ENDROOT
BRANCH   6   4
ATOM      4  N   UNL     1      -5.244   2.140  24.663  0.00  0.00    -0.301 NA
ATOM     17  C   UNL     1      -4.144   3.022  25.062  0.00  0.00    +0.105 C 
ATOM     18  C   UNL     1      -6.288   2.140  25.691  0.00  0.00    +0.105 C 
ENDBRANCH   6   4
BRANCH   7   2
ATOM      2  O   UNL     1      -2.982   1.055  22.770  0.00  0.00    -0.388 OA
ATOM     20  H   UNL     1      -3.535   1.813  22.516  0.00  0.00    +0.210 HD
ENDBRANCH   7   2
BRANCH   8  13
ATOM     13  C   UNL     1      -1.535  -1.008  24.767  0.00  0.00    +0.138 C 
BRANCH  13   5
ATOM      3  O   UNL     1       0.179   0.547  23.014  0.00  0.00    -0.276 OA
ATOM      5  N   UNL     1      -0.846   0.211  25.079  0.00  0.00    -0.313 N 
ATOM     16  C   UNL     1      -0.041   0.892  24.172  0.00  0.00    +0.216 C 
ATOM     19  H   UNL     1      -0.961   0.588  26.015  0.00  0.00    +0.149 HD
BRANCH  16   9
ATOM      9  C   UNL     1       0.539   2.148  24.746  0.00  0.00    +0.075 C 
ATOM     11  C   UNL     1       0.176   3.355  23.881  0.00  0.00    +0.013 C 
ATOM     12  C   UNL     1      -0.052   2.421  26.134  0.00  0.00    +0.013 C 
ATOM     14  C   UNL     1      -1.002   4.000  24.595  0.00  0.00    +0.001 C 
ATOM     15  C   UNL     1      -0.653   3.821  26.062  0.00  0.00    +0.001 C 
ENDBRANCH  16   9
ENDBRANCH  13   5
ENDBRANCH   8  13
TORSDOF 5
ENDMDL
MODEL 9
REMARK VINA RESULT:      -3.9     16.502     18.658
REMARK  Name = 75536552
REMARK  7 active torsions:
REMARK  status: ('A' for Active; 'I' for Inactive)
REMARK    1  A    between atoms: O_2  and  C_7
REMARK    2  A    between atoms: N_4  and  C_6
REMARK    3  A    between atoms: N_4  and  C_17
REMARK    4  A    between atoms: N_4  and  C_18
REMARK    5  A    between atoms: N_5  and  C_13
REMARK    6  A    between atoms: C_8  and  C_13
REMARK    7  A    between atoms: C_9  and  C_16
REMARK                            x       y       z     vdW  Elec       q    Type
REMARK                         _______ _______ _______ _____ _____    ______ ____
ROOT
ATOM      1  O   UNL     1      16.278   5.981  18.601  0.00  0.00    -0.371 OA
ATOM      6  C   UNL     1      14.973   7.596  17.447  0.00  0.00    +0.113 C 
ATOM      7  C   UNL     1      14.737   7.743  18.938  0.00  0.00    +0.164 C 
ATOM      8  C   UNL     1      15.976   7.060  19.501  0.00  0.00    +0.165 C 
ATOM     10  C   UNL     1      15.562   6.196  17.373  0.00  0.00    +0.181 C 
ENDROOT
BRANCH   6   4
ATOM      4  N   UNL     1      13.769   7.747  16.646  0.00  0.00    -0.301 NA
ATOM     17  C   UNL     1      13.770   9.032  15.941  0.00  0.00    +0.105 C 
ATOM     18  C   UNL     1      12.571   7.631  17.483  0.00  0.00    +0.105 C 
ENDBRANCH   6   4
BRANCH   7   2
ATOM      2  O   UNL     1      14.648   9.094  19.347  0.00  0.00    -0.388 OA
ATOM     20  H   UNL     1      13.908   9.508  18.873  0.00  0.00    +0.210 HD
ENDBRANCH   7   2
BRANCH   8  13
ATOM     13  C   UNL     1      15.778   6.517  20.905  0.00  0.00    +0.138 C 
BRANCH  13   5
ATOM      3  O   UNL     1      14.605   8.756  22.335  0.00  0.00    -0.276 OA
ATOM      5  N   UNL     1      14.415   6.662  21.332  0.00  0.00    -0.313 N 
ATOM     16  C   UNL     1      13.939   7.775  22.016  0.00  0.00    +0.216 C 
ATOM     19  H   UNL     1      13.775   5.904  21.116  0.00  0.00    +0.149 HD
BRANCH  16   9
ATOM      9  C   UNL     1      12.476   7.681  22.322  0.00  0.00    +0.075 C 
ATOM     11  C   UNL     1      11.816   9.057  22.234  0.00  0.00    +0.013 C 
ATOM     12  C   UNL     1      11.771   6.800  21.283  0.00  0.00    +0.013 C 
ATOM     14  C   UNL     1      11.161   9.083  20.861  0.00  0.00    +0.001 C 
ATOM     15  C   UNL     1      10.658   7.661  20.695  0.00  0.00    +0.001 C 
ENDBRANCH  16   9
ENDBRANCH  13   5
ENDBRANCH   8  13
TORSDOF 5
ENDMDL
MODEL 10
REMARK VINA RESULT:      -3.4      2.180      5.713
REMARK  Name = 75536552
REMARK  7 active torsions:
REMARK  status: ('A' for Active; 'I' for Inactive)
REMARK    1  A    between atoms: O_2  and  C_7
REMARK    2  A    between atoms: N_4  and  C_6
REMARK    3  A    between atoms: N_4  and  C_17
REMARK    4  A    between atoms: N_4  and  C_18
REMARK    5  A    between atoms: N_5  and  C_13
REMARK    6  A    between atoms: C_8  and  C_13
REMARK    7  A    between atoms: C_9  and  C_16
REMARK                            x       y       z     vdW  Elec       q    Type
REMARK                         _______ _______ _______ _____ _____    ______ ____
ROOT
ATOM      1  O   UNL     1      -2.129   0.758  23.570  0.00  0.00    -0.371 OA
ATOM      6  C   UNL     1      -2.313  -1.590  23.878  0.00  0.00    +0.113 C 
ATOM      7  C   UNL     1      -3.606  -0.931  24.320  0.00  0.00    +0.164 C 
ATOM      8  C   UNL     1      -3.521   0.402  23.587  0.00  0.00    +0.165 C 
ATOM     10  C   UNL     1      -1.354  -0.411  23.890  0.00  0.00    +0.181 C 
ENDROOT
BRANCH   6   4
ATOM      4  N   UNL     1      -1.885  -2.676  24.745  0.00  0.00    -0.301 NA
ATOM     17  C   UNL     1      -2.899  -2.959  25.766  0.00  0.00    +0.105 C 
ATOM     18  C   UNL     1      -0.604  -2.359  25.382  0.00  0.00    +0.105 C 
ENDBRANCH   6   4
BRANCH   7   2
ATOM      2  O   UNL     1      -4.752  -1.667  23.944  0.00  0.00    -0.388 OA
ATOM     20  H   UNL     1      -5.533  -1.233  24.326  0.00  0.00    +0.210 HD
ENDBRANCH   7   2
BRANCH   8  13
ATOM     13  C   UNL     1      -4.325   1.505  24.251  0.00  0.00    +0.138 C 
BRANCH  13   5
ATOM      3  O   UNL     1      -5.105   3.997  25.520  0.00  0.00    -0.276 OA
ATOM      5  N   UNL     1      -3.469   2.463  24.889  0.00  0.00    -0.313 N 
ATOM     16  C   UNL     1      -3.932   3.637  25.474  0.00  0.00    +0.216 C 
ATOM     19  H   UNL     1      -2.474   2.262  24.909  0.00  0.00    +0.149 HD
BRANCH  16   9
ATOM      9  C   UNL     1      -2.832   4.446  26.090  0.00  0.00    +0.075 C 
ATOM     11  C   UNL     1      -1.619   3.567  26.393  0.00  0.00    +0.013 C 
ATOM     12  C   UNL     1      -2.349   5.520  25.108  0.00  0.00    +0.013 C 
ATOM     14  C   UNL     1      -0.665   3.814  25.234  0.00  0.00    +0.001 C 
ATOM     15  C   UNL     1      -0.849   5.294  24.949  0.00  0.00    +0.001 C 
ENDBRANCH  16   9
ENDBRANCH  13   5
ENDBRANCH   8  13
TORSDOF 5
ENDMDL
