MODEL 1
REMARK VINA RESULT:      22.6      0.000      0.000
REMARK  Name = 71694374
REMARK  7 active torsions:
REMARK  status: ('A' for Active; 'I' for Inactive)
REMARK    1  A    between atoms: N_8  and  C_31
REMARK    2  A    between atoms: N_8  and  C_33
REMARK    3  A    between atoms: N_8  and  C_34
REMARK    4  A    between atoms: C_10  and  C_15
REMARK    5  A    between atoms: C_15  and  C_17
REMARK    6  A    between atoms: C_33  and  C_35
REMARK    7  A    between atoms: C_35  and  C_36
REMARK                            x       y       z     vdW  Elec       q    Type
REMARK                         _______ _______ _______ _____ _____    ______ ____
ROOT
ATOM      2  O   UNL     1      -2.542  -3.672  23.857  0.00  0.00    -0.274 OA
ATOM      4  O   UNL     1      -0.607   1.202  24.666  0.00  0.00    -0.488 OA
ATOM      5  N   UNL     1      -3.524  -2.001  25.121  0.00  0.00    -0.300 N 
ATOM      7  N   UNL     1      -0.372  -1.631  25.287  0.00  0.00    -0.304 NA
ATOM     10  C   UNL     1      -4.782   0.522  24.378  0.00  0.00    +0.008 C 
ATOM     11  C   UNL     1      -3.472   0.431  25.218  0.00  0.00    +0.032 C 
ATOM     12  C   UNL     1      -4.926  -0.761  23.526  0.00  0.00    +0.023 C 
ATOM     13  C   UNL     1      -3.444  -0.866  26.048  0.00  0.00    +0.115 C 
ATOM     14  C   UNL     1      -4.771  -2.040  24.352  0.00  0.00    +0.108 C 
ATOM     16  C   UNL     1      -3.209   1.638  26.080  0.00  0.00    -0.023 C 
ATOM     18  C   UNL     1      -2.473  -2.851  24.779  0.00  0.00    +0.229 C 
ATOM     19  C   UNL     1      -2.155   2.471  26.061  0.00  0.00    +0.010 C 
ATOM     20  C   UNL     1      -1.195  -2.796  25.597  0.00  0.00    +0.178 C 
ATOM     23  C   UNL     1      -0.888   2.471  25.245  0.00  0.00    +0.256 C 
ATOM     26  C   UNL     1      -0.052  -1.455  23.873  0.00  0.00    +0.120 C 
ATOM     27  C   UNL     1       0.911  -0.300  23.650  0.00  0.00    +0.010 A 
ATOM     28  C   UNL     1       0.604   1.022  24.046  0.00  0.00    +0.125 A 
ATOM     29  C   UNL     1       2.134  -0.554  23.009  0.00  0.00    +0.031 A 
ATOM     30  C   UNL     1       1.517   2.052  23.787  0.00  0.00    +0.048 A 
ATOM     31  C   UNL     1       3.038   0.479  22.764  0.00  0.00    +0.030 A 
ATOM     32  C   UNL     1       2.728   1.777  23.151  0.00  0.00    +0.027 A 
ATOM     41  H   UNL     1       0.492  -1.695  25.826  0.00  0.00    +0.123 HD
ENDROOT
BRANCH  31   8
ATOM      8  N   UNL     1       4.263   0.207  22.120  0.00  0.00    -0.333 N 
ATOM     34  C   UNL     1       4.549   0.774  20.817  0.00  0.00    +0.129 C 
BRANCH   8  33
ATOM     33  C   UNL     1       5.256  -0.635  22.756  0.00  0.00    +0.111 C 
BRANCH  33  35
ATOM     35  C   UNL     1       6.086   0.163  23.761  0.00  0.00    +0.074 C 
BRANCH  35  36
ATOM      9  N   UNL     1       7.998  -0.849  22.641  0.00  0.00    -0.260 NA
ATOM     36  C   UNL     1       7.565   0.133  23.463  0.00  0.00    +0.043 A 
ATOM     37  C   UNL     1       8.391   1.090  24.031  0.00  0.00    +0.023 A 
ATOM     38  C   UNL     1       9.749   1.037  23.735  0.00  0.00    +0.003 A 
ATOM     39  C   UNL     1       9.325  -0.870  22.377  0.00  0.00    +0.111 A 
ATOM     40  C   UNL     1      10.232   0.041  22.893  0.00  0.00    +0.020 A 
ENDBRANCH  35  36
ENDBRANCH  33  35
ENDBRANCH   8  33
ENDBRANCH  31   8
BRANCH  10  15
ATOM     15  C   UNL     1      -6.053   0.768  25.201  0.00  0.00    +0.100 C 
BRANCH  15  17
ATOM      1  O   UNL     1      -6.418   2.298  26.975  0.00  0.00    -0.276 OA
ATOM      3  O   UNL     1      -3.752   5.054  23.851  0.00  0.00    -0.377 OA
ATOM      6  N   UNL     1      -5.464   3.158  25.041  0.00  0.00    -0.297 N 
ATOM     17  C   UNL     1      -6.001   2.139  25.825  0.00  0.00    +0.216 C 
ATOM     21  C   UNL     1      -5.371   4.519  25.570  0.00  0.00    +0.136 C 
ATOM     22  C   UNL     1      -5.077   3.034  23.632  0.00  0.00    +0.136 C 
ATOM     24  C   UNL     1      -4.008   5.118  25.256  0.00  0.00    +0.179 C 
ATOM     25  C   UNL     1      -3.727   3.699  23.395  0.00  0.00    +0.179 C 
ENDBRANCH  15  17
ENDBRANCH  10  15
TORSDOF 6
ENDMDL
MODEL 2
REMARK VINA RESULT:      26.5      1.998      3.307
REMARK  Name = 71694374
REMARK  7 active torsions:
REMARK  status: ('A' for Active; 'I' for Inactive)
REMARK    1  A    between atoms: N_8  and  C_31
REMARK    2  A    between atoms: N_8  and  C_33
REMARK    3  A    between atoms: N_8  and  C_34
REMARK    4  A    between atoms: C_10  and  C_15
REMARK    5  A    between atoms: C_15  and  C_17
REMARK    6  A    between atoms: C_33  and  C_35
REMARK    7  A    between atoms: C_35  and  C_36
REMARK                            x       y       z     vdW  Elec       q    Type
REMARK                         _______ _______ _______ _____ _____    ______ ____
ROOT
ATOM      2  O   UNL     1      -2.067  -3.625  23.652  0.00  0.00    -0.274 OA
ATOM      4  O   UNL     1      -0.664   1.378  24.728  0.00  0.00    -0.488 OA
ATOM      5  N   UNL     1      -3.233  -2.130  24.980  0.00  0.00    -0.300 N 
ATOM      7  N   UNL     1      -0.139  -1.442  25.214  0.00  0.00    -0.304 NA
ATOM     10  C   UNL     1      -4.741   0.282  24.342  0.00  0.00    +0.008 C 
ATOM     11  C   UNL     1      -3.438   0.286  25.197  0.00  0.00    +0.032 C 
ATOM     12  C   UNL     1      -4.741  -0.965  23.425  0.00  0.00    +0.023 C 
ATOM     13  C   UNL     1      -3.282  -1.041  25.962  0.00  0.00    +0.115 C 
ATOM     14  C   UNL     1      -4.461  -2.261  24.191  0.00  0.00    +0.108 C 
ATOM     16  C   UNL     1      -3.311   1.469  26.120  0.00  0.00    -0.023 C 
ATOM     18  C   UNL     1      -2.095  -2.848  24.614  0.00  0.00    +0.229 C 
ATOM     19  C   UNL     1      -2.351   2.408  26.158  0.00  0.00    +0.010 C 
ATOM     20  C   UNL     1      -0.839  -2.701  25.453  0.00  0.00    +0.178 C 
ATOM     23  C   UNL     1      -1.082   2.581  25.362  0.00  0.00    +0.256 C 
ATOM     26  C   UNL     1       0.175  -1.164  23.814  0.00  0.00    +0.120 C 
ATOM     27  C   UNL     1       1.014   0.095  23.664  0.00  0.00    +0.010 A 
ATOM     28  C   UNL     1       0.565   1.357  24.118  0.00  0.00    +0.125 A 
ATOM     29  C   UNL     1       2.264   0.003  23.030  0.00  0.00    +0.031 A 
ATOM     30  C   UNL     1       1.368   2.488  23.924  0.00  0.00    +0.048 A 
ATOM     31  C   UNL     1       3.056   1.135  22.850  0.00  0.00    +0.030 A 
ATOM     32  C   UNL     1       2.608   2.374  23.295  0.00  0.00    +0.027 A 
ATOM     41  H   UNL     1       0.721  -1.442  25.762  0.00  0.00    +0.123 HD
ENDROOT
BRANCH  31   8
ATOM      8  N   UNL     1       4.310   1.026  22.212  0.00  0.00    -0.333 N 
ATOM     34  C   UNL     1       5.288   0.063  22.676  0.00  0.00    +0.129 C 
BRANCH   8  33
ATOM     33  C   UNL     1       4.632   1.869  21.078  0.00  0.00    +0.111 C 
BRANCH  33  35
ATOM     35  C   UNL     1       4.431   3.345  21.419  0.00  0.00    +0.074 C 
BRANCH  35  36
ATOM      9  N   UNL     1       4.923   3.900  19.099  0.00  0.00    -0.260 NA
ATOM     36  C   UNL     1       4.206   4.209  20.203  0.00  0.00    +0.043 A 
ATOM     37  C   UNL     1       3.297   5.253  20.270  0.00  0.00    +0.023 A 
ATOM     38  C   UNL     1       3.112   6.029  19.131  0.00  0.00    +0.003 A 
ATOM     39  C   UNL     1       4.717   4.677  18.012  0.00  0.00    +0.111 A 
ATOM     40  C   UNL     1       3.831   5.742  17.976  0.00  0.00    +0.020 A 
ENDBRANCH  35  36
ENDBRANCH  33  35
ENDBRANCH   8  33
ENDBRANCH  31   8
BRANCH  10  15
ATOM     15  C   UNL     1      -6.040   0.352  25.156  0.00  0.00    +0.100 C 
BRANCH  15  17
ATOM      1  O   UNL     1      -6.661   1.803  26.924  0.00  0.00    -0.276 OA
ATOM      3  O   UNL     1      -4.135   4.879  23.989  0.00  0.00    -0.377 OA
ATOM      6  N   UNL     1      -5.699   2.794  25.058  0.00  0.00    -0.297 N 
ATOM     17  C   UNL     1      -6.167   1.710  25.798  0.00  0.00    +0.216 C 
ATOM     21  C   UNL     1      -5.779   4.147  25.608  0.00  0.00    +0.136 C 
ATOM     22  C   UNL     1      -5.224   2.736  23.671  0.00  0.00    +0.136 C 
ATOM     24  C   UNL     1      -4.472   4.891  25.379  0.00  0.00    +0.179 C 
ATOM     25  C   UNL     1      -3.941   3.543  23.519  0.00  0.00    +0.179 C 
ENDBRANCH  15  17
ENDBRANCH  10  15
TORSDOF 6
ENDMDL
