MODEL 1
REMARK VINA RESULT:      -4.1      0.000      0.000
REMARK  Name = 51137236
REMARK  3 active torsions:
REMARK  status: ('A' for Active; 'I' for Inactive)
REMARK    1  A    between atoms: N_3  and  C_6
REMARK    2  A    between atoms: C_11  and  C_14
REMARK    3  A    between atoms: C_15  and  C_16
REMARK                            x       y       z     vdW  Elec       q    Type
REMARK                         _______ _______ _______ _____ _____    ______ ____
ROOT
ATOM      2  O   UNL     1      15.160  -6.221  29.125  0.00  0.00    -0.420 OA
ATOM      4  N   UNL     1      16.555  -4.643  29.879  0.00  0.00    -0.112 NA
ATOM      5  N   UNL     1      15.557  -4.816  30.820  0.00  0.00    -0.107 NA
ATOM     14  C   UNL     1      16.282  -5.483  28.908  0.00  0.00    +0.222 A 
ATOM     15  C   UNL     1      14.765  -5.746  30.338  0.00  0.00    +0.248 A 
ENDROOT
BRANCH  15  16
ATOM      1 CL   UNL     1       9.820  -8.151  32.595  0.00  0.00    -0.084 Cl
ATOM     16  C   UNL     1      13.572  -6.326  30.882  0.00  0.00    +0.039 A 
ATOM     17  C   UNL     1      13.227  -7.639  30.564  0.00  0.00    +0.014 A 
ATOM     18  C   UNL     1      12.756  -5.577  31.730  0.00  0.00    +0.014 A 
ATOM     19  C   UNL     1      12.067  -8.205  31.094  0.00  0.00    +0.021 A 
ATOM     20  C   UNL     1      11.596  -6.140  32.260  0.00  0.00    +0.021 A 
ATOM     21  C   UNL     1      11.251  -7.455  31.942  0.00  0.00    +0.041 A 
ENDBRANCH  15  16
BRANCH  14  11
ATOM      3  N   UNL     1      17.404  -4.862  25.474  0.00  0.00    -0.299 NA
ATOM     10  C   UNL     1      17.398  -4.442  26.878  0.00  0.00    +0.097 C 
ATOM     11  C   UNL     1      17.027  -5.736  27.617  0.00  0.00    +0.092 C 
ATOM     12  C   UNL     1      16.214  -5.702  25.328  0.00  0.00    +0.085 C 
ATOM     13  C   UNL     1      16.258  -6.571  26.579  0.00  0.00    +0.029 C 
BRANCH   3   6
ATOM      6  C   UNL     1      17.332  -3.699  24.582  0.00  0.00    +0.057 C 
ATOM      7  C   UNL     1      17.289  -4.174  23.116  0.00  0.00    +0.019 C 
ATOM      8  C   UNL     1      15.860  -3.271  24.407  0.00  0.00    +0.019 C 
ATOM      9  C   UNL     1      16.155  -3.150  22.897  0.00  0.00    +0.003 C 
ENDBRANCH   3   6
ENDBRANCH  14  11
TORSDOF 3
ENDMDL
MODEL 2
REMARK VINA RESULT:      -3.6      4.359      5.636
REMARK  Name = 51137236
REMARK  3 active torsions:
REMARK  status: ('A' for Active; 'I' for Inactive)
REMARK    1  A    between atoms: N_3  and  C_6
REMARK    2  A    between atoms: C_11  and  C_14
REMARK    3  A    between atoms: C_15  and  C_16
REMARK                            x       y       z     vdW  Elec       q    Type
REMARK                         _______ _______ _______ _____ _____    ______ ____
ROOT
ATOM      2  O   UNL     1      15.566  -6.610  30.490  0.00  0.00    -0.420 OA
ATOM      4  N   UNL     1      13.426  -7.259  30.531  0.00  0.00    -0.112 NA
ATOM      5  N   UNL     1      13.466  -5.902  30.790  0.00  0.00    -0.107 NA
ATOM     14  C   UNL     1      14.674  -7.629  30.363  0.00  0.00    +0.222 A 
ATOM     15  C   UNL     1      14.734  -5.566  30.757  0.00  0.00    +0.248 A 
ENDROOT
BRANCH  15  16
ATOM      1 CL   UNL     1      17.352  -0.292  31.574  0.00  0.00    -0.084 Cl
ATOM     16  C   UNL     1      15.366  -4.294  30.953  0.00  0.00    +0.039 A 
ATOM     17  C   UNL     1      16.143  -3.736  29.939  0.00  0.00    +0.014 A 
ATOM     18  C   UNL     1      15.203  -3.614  32.161  0.00  0.00    +0.014 A 
ATOM     19  C   UNL     1      16.757  -2.499  30.130  0.00  0.00    +0.021 A 
ATOM     20  C   UNL     1      15.817  -2.377  32.353  0.00  0.00    +0.021 A 
ATOM     21  C   UNL     1      16.594  -1.818  31.337  0.00  0.00    +0.041 A 
ENDBRANCH  15  16
BRANCH  14  11
ATOM      3  N   UNL     1      16.083 -10.321  28.312  0.00  0.00    -0.299 NA
ATOM     10  C   UNL     1      16.237  -8.982  28.887  0.00  0.00    +0.097 C 
ATOM     11  C   UNL     1      15.239  -8.997  30.053  0.00  0.00    +0.092 C 
ATOM     12  C   UNL     1      14.639 -10.558  28.291  0.00  0.00    +0.085 C 
ATOM     13  C   UNL     1      14.193 -10.054  29.659  0.00  0.00    +0.029 C 
BRANCH   3   6
ATOM      6  C   UNL     1      16.638 -10.373  26.955  0.00  0.00    +0.057 C 
ATOM      7  C   UNL     1      15.524 -10.082  25.929  0.00  0.00    +0.019 C 
ATOM      8  C   UNL     1      17.233  -8.998  26.585  0.00  0.00    +0.019 C 
ATOM      9  C   UNL     1      16.526  -9.145  25.222  0.00  0.00    +0.003 C 
ENDBRANCH   3   6
ENDBRANCH  14  11
TORSDOF 3
ENDMDL
MODEL 3
REMARK VINA RESULT:      -2.7     16.724     18.453
REMARK  Name = 51137236
REMARK  3 active torsions:
REMARK  status: ('A' for Active; 'I' for Inactive)
REMARK    1  A    between atoms: N_3  and  C_6
REMARK    2  A    between atoms: C_11  and  C_14
REMARK    3  A    between atoms: C_15  and  C_16
REMARK                            x       y       z     vdW  Elec       q    Type
REMARK                         _______ _______ _______ _____ _____    ______ ____
ROOT
ATOM      2  O   UNL     1       0.998   1.342  24.471  0.00  0.00    -0.420 OA
ATOM      4  N   UNL     1      -0.780   0.516  23.395  0.00  0.00    -0.112 NA
ATOM      5  N   UNL     1       0.352  -0.066  22.858  0.00  0.00    -0.107 NA
ATOM     14  C   UNL     1      -0.355   1.331  24.333  0.00  0.00    +0.222 A 
ATOM     15  C   UNL     1       1.367   0.446  23.515  0.00  0.00    +0.248 A 
ENDROOT
BRANCH  15  16
ATOM      1 CL   UNL     1       7.204  -0.536  22.973  0.00  0.00    -0.084 Cl
ATOM     16  C   UNL     1       2.775   0.210  23.385  0.00  0.00    +0.039 A 
ATOM     17  C   UNL     1       3.603   1.202  22.862  0.00  0.00    +0.014 A 
ATOM     18  C   UNL     1       3.316  -1.014  23.779  0.00  0.00    +0.014 A 
ATOM     19  C   UNL     1       4.973   0.972  22.735  0.00  0.00    +0.021 A 
ATOM     20  C   UNL     1       4.686  -1.245  23.653  0.00  0.00    +0.021 A 
ATOM     21  C   UNL     1       5.515  -0.252  23.130  0.00  0.00    +0.041 A 
ENDBRANCH  15  16
BRANCH  14  11
ATOM      3  N   UNL     1      -3.218   3.298  25.505  0.00  0.00    -0.299 NA
ATOM     10  C   UNL     1      -2.657   1.982  25.185  0.00  0.00    +0.097 C 
ATOM     11  C   UNL     1      -1.144   2.232  25.255  0.00  0.00    +0.092 C 
ATOM     12  C   UNL     1      -2.400   4.249  24.749  0.00  0.00    +0.085 C 
ATOM     13  C   UNL     1      -0.984   3.737  24.982  0.00  0.00    +0.029 C 
BRANCH   3   6
ATOM      6  C   UNL     1      -4.624   3.379  25.094  0.00  0.00    +0.057 C 
ATOM      7  C   UNL     1      -4.964   2.188  24.176  0.00  0.00    +0.019 C 
ATOM      8  C   UNL     1      -5.515   2.714  26.163  0.00  0.00    +0.019 C 
ATOM      9  C   UNL     1      -6.259   2.022  25.001  0.00  0.00    +0.003 C 
ENDBRANCH   3   6
ENDBRANCH  14  11
TORSDOF 3
ENDMDL
MODEL 4
REMARK VINA RESULT:      -2.6      3.657      4.358
REMARK  Name = 51137236
REMARK  3 active torsions:
REMARK  status: ('A' for Active; 'I' for Inactive)
REMARK    1  A    between atoms: N_3  and  C_6
REMARK    2  A    between atoms: C_11  and  C_14
REMARK    3  A    between atoms: C_15  and  C_16
REMARK                            x       y       z     vdW  Elec       q    Type
REMARK                         _______ _______ _______ _____ _____    ______ ____
ROOT
ATOM      2  O   UNL     1      15.710  -7.750  29.912  0.00  0.00    -0.420 OA
ATOM      4  N   UNL     1      17.349  -8.632  31.153  0.00  0.00    -0.112 NA
ATOM      5  N   UNL     1      16.478  -7.974  32.001  0.00  0.00    -0.107 NA
ATOM     14  C   UNL     1      16.861  -8.474  29.944  0.00  0.00    +0.222 A 
ATOM     15  C   UNL     1      15.537  -7.475  31.234  0.00  0.00    +0.248 A 
ENDROOT
BRANCH  15  16
ATOM      1 CL   UNL     1      10.730  -4.264  32.618  0.00  0.00    -0.084 Cl
ATOM     16  C   UNL     1      14.377  -6.700  31.568  0.00  0.00    +0.039 A 
ATOM     17  C   UNL     1      14.515  -5.512  32.284  0.00  0.00    +0.014 A 
ATOM     18  C   UNL     1      13.111  -7.135  31.176  0.00  0.00    +0.014 A 
ATOM     19  C   UNL     1      13.388  -4.757  32.609  0.00  0.00    +0.021 A 
ATOM     20  C   UNL     1      11.983  -6.382  31.501  0.00  0.00    +0.021 A 
ATOM     21  C   UNL     1      12.121  -5.193  32.217  0.00  0.00    +0.041 A 
ENDBRANCH  15  16
BRANCH  14  11
ATOM      3  N   UNL     1      16.739  -9.542  26.440  0.00  0.00    -0.299 NA
ATOM     10  C   UNL     1      16.580  -8.465  27.421  0.00  0.00    +0.097 C 
ATOM     11  C   UNL     1      17.390  -8.976  28.620  0.00  0.00    +0.092 C 
ATOM     12  C   UNL     1      16.575 -10.777  27.209  0.00  0.00    +0.085 C 
ATOM     13  C   UNL     1      17.396 -10.506  28.464  0.00  0.00    +0.029 C 
BRANCH   3   6
ATOM      6  C   UNL     1      15.719  -9.446  25.389  0.00  0.00    +0.057 C 
ATOM      7  C   UNL     1      15.853 -10.644  24.427  0.00  0.00    +0.019 C 
ATOM      8  C   UNL     1      14.405 -10.085  25.882  0.00  0.00    +0.019 C 
ATOM      9  C   UNL     1      14.318 -10.781  24.507  0.00  0.00    +0.003 C 
ENDBRANCH   3   6
ENDBRANCH  14  11
TORSDOF 3
ENDMDL
MODEL 5
REMARK VINA RESULT:      -2.4     16.878     18.573
REMARK  Name = 51137236
REMARK  3 active torsions:
REMARK  status: ('A' for Active; 'I' for Inactive)
REMARK    1  A    between atoms: N_3  and  C_6
REMARK    2  A    between atoms: C_11  and  C_14
REMARK    3  A    between atoms: C_15  and  C_16
REMARK                            x       y       z     vdW  Elec       q    Type
REMARK                         _______ _______ _______ _____ _____    ______ ____
ROOT
ATOM      2  O   UNL     1       0.795   1.342  23.553  0.00  0.00    -0.420 OA
ATOM      4  N   UNL     1      -0.842  -0.182  23.586  0.00  0.00    -0.112 NA
ATOM      5  N   UNL     1       0.363  -0.851  23.484  0.00  0.00    -0.107 NA
ATOM     14  C   UNL     1      -0.541   1.095  23.623  0.00  0.00    +0.222 A 
ATOM     15  C   UNL     1       1.291   0.077  23.469  0.00  0.00    +0.248 A 
ENDROOT
BRANCH  15  16
ATOM      1 CL   UNL     1       7.206  -0.381  23.093  0.00  0.00    -0.084 Cl
ATOM     16  C   UNL     1       2.718  -0.034  23.378  0.00  0.00    +0.039 A 
ATOM     17  C   UNL     1       3.354  -1.204  23.791  0.00  0.00    +0.014 A 
ATOM     18  C   UNL     1       3.469   1.029  22.877  0.00  0.00    +0.014 A 
ATOM     19  C   UNL     1       4.742  -1.312  23.703  0.00  0.00    +0.021 A 
ATOM     20  C   UNL     1       4.857   0.923  22.789  0.00  0.00    +0.021 A 
ATOM     21  C   UNL     1       5.494  -0.248  23.201  0.00  0.00    +0.041 A 
ENDBRANCH  15  16
BRANCH  14  11
ATOM      3  N   UNL     1      -3.416   3.067  24.756  0.00  0.00    -0.299 NA
ATOM     10  C   UNL     1      -2.160   2.389  25.090  0.00  0.00    +0.097 C 
ATOM     11  C   UNL     1      -1.453   2.296  23.731  0.00  0.00    +0.092 C 
ATOM     12  C   UNL     1      -3.869   2.429  23.518  0.00  0.00    +0.085 C 
ATOM     13  C   UNL     1      -2.590   2.340  22.695  0.00  0.00    +0.029 C 
BRANCH   3   6
ATOM      6  C   UNL     1      -4.405   2.889  25.825  0.00  0.00    +0.057 C 
ATOM      7  C   UNL     1      -5.710   3.619  25.448  0.00  0.00    +0.019 C 
ATOM      8  C   UNL     1      -5.170   1.567  25.608  0.00  0.00    +0.019 C 
ATOM      9  C   UNL     1      -6.462   2.354  25.915  0.00  0.00    +0.003 C 
ENDBRANCH   3   6
ENDBRANCH  14  11
TORSDOF 3
ENDMDL
MODEL 6
REMARK VINA RESULT:      -2.3     16.805     18.369
REMARK  Name = 51137236
REMARK  3 active torsions:
REMARK  status: ('A' for Active; 'I' for Inactive)
REMARK    1  A    between atoms: N_3  and  C_6
REMARK    2  A    between atoms: C_11  and  C_14
REMARK    3  A    between atoms: C_15  and  C_16
REMARK                            x       y       z     vdW  Elec       q    Type
REMARK                         _______ _______ _______ _____ _____    ______ ____
ROOT
ATOM      2  O   UNL     1       0.085   0.479  23.215  0.00  0.00    -0.420 OA
ATOM      4  N   UNL     1      -1.161  -1.050  24.269  0.00  0.00    -0.112 NA
ATOM      5  N   UNL     1       0.164  -1.426  24.384  0.00  0.00    -0.107 NA
ATOM     14  C   UNL     1      -1.159   0.067  23.579  0.00  0.00    +0.222 A 
ATOM     15  C   UNL     1       0.855  -0.505  23.754  0.00  0.00    +0.248 A 
ENDROOT
BRANCH  15  16
ATOM      1 CL   UNL     1       6.716   0.023  22.914  0.00  0.00    -0.084 Cl
ATOM     16  C   UNL     1       2.269  -0.378  23.551  0.00  0.00    +0.039 A 
ATOM     17  C   UNL     1       3.122  -1.421  23.911  0.00  0.00    +0.014 A 
ATOM     18  C   UNL     1       2.792   0.790  22.995  0.00  0.00    +0.014 A 
ATOM     19  C   UNL     1       4.497  -1.298  23.713  0.00  0.00    +0.021 A 
ATOM     20  C   UNL     1       4.167   0.914  22.797  0.00  0.00    +0.021 A 
ATOM     21  C   UNL     1       5.020  -0.130  23.156  0.00  0.00    +0.041 A 
ENDBRANCH  15  16
BRANCH  14  11
ATOM      3  N   UNL     1      -3.590   2.803  23.770  0.00  0.00    -0.299 NA
ATOM     10  C   UNL     1      -2.193   2.386  23.627  0.00  0.00    +0.097 C 
ATOM     11  C   UNL     1      -2.320   0.933  23.147  0.00  0.00    +0.092 C 
ATOM     12  C   UNL     1      -4.257   1.671  24.415  0.00  0.00    +0.085 C 
ATOM     13  C   UNL     1      -3.696   0.473  23.659  0.00  0.00    +0.029 C 
BRANCH   3   6
ATOM      6  C   UNL     1      -3.692   4.008  24.601  0.00  0.00    +0.057 C 
ATOM      7  C   UNL     1      -4.359   3.655  25.945  0.00  0.00    +0.019 C 
ATOM      8  C   UNL     1      -2.381   4.207  25.390  0.00  0.00    +0.019 C 
ATOM      9  C   UNL     1      -3.259   4.497  26.625  0.00  0.00    +0.003 C 
ENDBRANCH   3   6
ENDBRANCH  14  11
TORSDOF 3
ENDMDL
MODEL 7
REMARK VINA RESULT:      -2.0     16.310     17.240
REMARK  Name = 51137236
REMARK  3 active torsions:
REMARK  status: ('A' for Active; 'I' for Inactive)
REMARK    1  A    between atoms: N_3  and  C_6
REMARK    2  A    between atoms: C_11  and  C_14
REMARK    3  A    between atoms: C_15  and  C_16
REMARK                            x       y       z     vdW  Elec       q    Type
REMARK                         _______ _______ _______ _____ _____    ______ ____
ROOT
ATOM      2  O   UNL     1      -0.698   1.069  23.616  0.00  0.00    -0.420 OA
ATOM      4  N   UNL     1       0.049  -0.919  24.318  0.00  0.00    -0.112 NA
ATOM      5  N   UNL     1      -1.149  -0.662  24.959  0.00  0.00    -0.107 NA
ATOM     14  C   UNL     1       0.272   0.118  23.545  0.00  0.00    +0.222 A 
ATOM     15  C   UNL     1      -1.549   0.509  24.519  0.00  0.00    +0.248 A 
ENDROOT
BRANCH  15  16
ATOM      1 CL   UNL     1      -6.405   3.675  25.834  0.00  0.00    -0.084 Cl
ATOM     16  C   UNL     1      -2.720   1.272  24.836  0.00  0.00    +0.039 A 
ATOM     17  C   UNL     1      -3.976   0.667  24.807  0.00  0.00    +0.014 A 
ATOM     18  C   UNL     1      -2.603   2.621  25.173  0.00  0.00    +0.014 A 
ATOM     19  C   UNL     1      -5.116   1.409  25.116  0.00  0.00    +0.021 A 
ATOM     20  C   UNL     1      -3.742   3.364  25.482  0.00  0.00    +0.021 A 
ATOM     21  C   UNL     1      -4.999   2.759  25.454  0.00  0.00    +0.041 A 
ENDBRANCH  15  16
BRANCH  14  11
ATOM      3  N   UNL     1       3.752   0.151  22.394  0.00  0.00    -0.299 NA
ATOM     10  C   UNL     1       2.567  -0.631  22.756  0.00  0.00    +0.097 C 
ATOM     11  C   UNL     1       1.429   0.391  22.612  0.00  0.00    +0.092 C 
ATOM     12  C   UNL     1       3.573   1.439  23.067  0.00  0.00    +0.085 C 
ATOM     13  C   UNL     1       2.107   1.758  22.803  0.00  0.00    +0.029 C 
BRANCH   3   6
ATOM      6  C   UNL     1       4.976  -0.512  22.857  0.00  0.00    +0.057 C 
ATOM      7  C   UNL     1       5.648   0.346  23.948  0.00  0.00    +0.019 C 
ATOM      8  C   UNL     1       4.629  -1.522  23.970  0.00  0.00    +0.019 C 
ATOM      9  C   UNL     1       5.836  -0.960  24.750  0.00  0.00    +0.003 C 
ENDBRANCH   3   6
ENDBRANCH  14  11
TORSDOF 3
ENDMDL
MODEL 8
REMARK VINA RESULT:      -1.9     16.886     17.865
REMARK  Name = 51137236
REMARK  3 active torsions:
REMARK  status: ('A' for Active; 'I' for Inactive)
REMARK    1  A    between atoms: N_3  and  C_6
REMARK    2  A    between atoms: C_11  and  C_14
REMARK    3  A    between atoms: C_15  and  C_16
REMARK                            x       y       z     vdW  Elec       q    Type
REMARK                         _______ _______ _______ _____ _____    ______ ____
ROOT
ATOM      2  O   UNL     1      -1.521   0.320  24.102  0.00  0.00    -0.420 OA
ATOM      4  N   UNL     1      -1.486  -1.684  25.095  0.00  0.00    -0.112 NA
ATOM      5  N   UNL     1      -2.565  -0.978  25.595  0.00  0.00    -0.107 NA
ATOM     14  C   UNL     1      -0.906  -0.887  24.228  0.00  0.00    +0.222 A 
ATOM     15  C   UNL     1      -2.546   0.186  24.987  0.00  0.00    +0.248 A 
ENDROOT
BRANCH  15  16
ATOM      1 CL   UNL     1      -6.181   4.861  25.499  0.00  0.00    -0.084 Cl
ATOM     16  C   UNL     1      -3.423   1.314  25.110  0.00  0.00    +0.039 A 
ATOM     17  C   UNL     1      -2.899   2.606  25.128  0.00  0.00    +0.014 A 
ATOM     18  C   UNL     1      -4.800   1.118  25.214  0.00  0.00    +0.014 A 
ATOM     19  C   UNL     1      -3.751   3.704  25.247  0.00  0.00    +0.021 A 
ATOM     20  C   UNL     1      -5.654   2.215  25.334  0.00  0.00    +0.021 A 
ATOM     21  C   UNL     1      -5.129   3.508  25.350  0.00  0.00    +0.041 A 
ENDBRANCH  15  16
BRANCH  14  11
ATOM      3  N   UNL     1       2.593  -0.591  23.177  0.00  0.00    -0.299 NA
ATOM     10  C   UNL     1       1.627  -1.062  24.173  0.00  0.00    +0.097 C 
ATOM     11  C   UNL     1       0.317  -1.123  23.373  0.00  0.00    +0.092 C 
ATOM     12  C   UNL     1       1.899   0.478  22.456  0.00  0.00    +0.085 C 
ATOM     13  C   UNL     1       0.512  -0.113  22.229  0.00  0.00    +0.029 C 
BRANCH   3   6
ATOM      6  C   UNL     1       3.804  -0.077  23.828  0.00  0.00    +0.057 C 
ATOM      7  C   UNL     1       4.885  -1.176  23.849  0.00  0.00    +0.019 C 
ATOM      8  C   UNL     1       4.678   0.657  22.790  0.00  0.00    +0.019 C 
ATOM      9  C   UNL     1       5.885  -0.094  23.389  0.00  0.00    +0.003 C 
ENDBRANCH   3   6
ENDBRANCH  14  11
TORSDOF 3
ENDMDL
MODEL 9
REMARK VINA RESULT:      -1.1     16.844     18.641
REMARK  Name = 51137236
REMARK  3 active torsions:
REMARK  status: ('A' for Active; 'I' for Inactive)
REMARK    1  A    between atoms: N_3  and  C_6
REMARK    2  A    between atoms: C_11  and  C_14
REMARK    3  A    between atoms: C_15  and  C_16
REMARK                            x       y       z     vdW  Elec       q    Type
REMARK                         _______ _______ _______ _____ _____    ______ ____
ROOT
ATOM      2  O   UNL     1       0.230   0.086  23.586  0.00  0.00    -0.420 OA
ATOM      4  N   UNL     1      -0.613   2.078  24.155  0.00  0.00    -0.112 NA
ATOM      5  N   UNL     1       0.760   2.207  24.056  0.00  0.00    -0.107 NA
ATOM     14  C   UNL     1      -0.877   0.824  23.873  0.00  0.00    +0.222 A 
ATOM     15  C   UNL     1       1.210   1.020  23.722  0.00  0.00    +0.248 A 
ENDROOT
BRANCH  15  16
ATOM      1 CL   UNL     1       6.759  -0.865  22.728  0.00  0.00    -0.084 Cl
ATOM     16  C   UNL     1       2.549   0.566  23.482  0.00  0.00    +0.039 A 
ATOM     17  C   UNL     1       3.498   1.440  22.955  0.00  0.00    +0.014 A 
ATOM     18  C   UNL     1       2.901  -0.751  23.776  0.00  0.00    +0.014 A 
ATOM     19  C   UNL     1       4.801   0.999  22.722  0.00  0.00    +0.021 A 
ATOM     20  C   UNL     1       4.203  -1.195  23.543  0.00  0.00    +0.021 A 
ATOM     21  C   UNL     1       5.153  -0.319  23.016  0.00  0.00    +0.041 A 
ENDBRANCH  15  16
BRANCH  14  11
ATOM      3  N   UNL     1      -4.487   0.363  24.313  0.00  0.00    -0.299 NA
ATOM     10  C   UNL     1      -3.394   1.064  23.634  0.00  0.00    +0.097 C 
ATOM     11  C   UNL     1      -2.207   0.108  23.825  0.00  0.00    +0.092 C 
ATOM     12  C   UNL     1      -3.896  -0.143  25.553  0.00  0.00    +0.085 C 
ATOM     13  C   UNL     1      -2.555  -0.698  25.088  0.00  0.00    +0.029 C 
BRANCH   3   6
ATOM      6  C   UNL     1      -5.595   1.280  24.601  0.00  0.00    +0.057 C 
ATOM      7  C   UNL     1      -5.692   1.511  26.123  0.00  0.00    +0.019 C 
ATOM      8  C   UNL     1      -5.104   2.738  24.487  0.00  0.00    +0.019 C 
ATOM      9  C   UNL     1      -5.855   3.013  25.807  0.00  0.00    +0.003 C 
ENDBRANCH   3   6
ENDBRANCH  14  11
TORSDOF 3
ENDMDL
MODEL 10
REMARK VINA RESULT:      -0.8     18.001     19.690
REMARK  Name = 51137236
REMARK  3 active torsions:
REMARK  status: ('A' for Active; 'I' for Inactive)
REMARK    1  A    between atoms: N_3  and  C_6
REMARK    2  A    between atoms: C_11  and  C_14
REMARK    3  A    between atoms: C_15  and  C_16
REMARK                            x       y       z     vdW  Elec       q    Type
REMARK                         _______ _______ _______ _____ _____    ______ ____
ROOT
ATOM      2  O   UNL     1      -1.911   0.421  23.768  0.00  0.00    -0.420 OA
ATOM      4  N   UNL     1      -2.788  -1.538  24.396  0.00  0.00    -0.112 NA
ATOM      5  N   UNL     1      -1.434  -1.723  24.191  0.00  0.00    -0.107 NA
ATOM     14  C   UNL     1      -3.022  -0.273  24.137  0.00  0.00    +0.222 A 
ATOM     15  C   UNL     1      -0.962  -0.553  23.826  0.00  0.00    +0.248 A 
ENDROOT
BRANCH  15  16
ATOM      1 CL   UNL     1       4.568   1.107  22.415  0.00  0.00    -0.084 Cl
ATOM     16  C   UNL     1       0.372  -0.153  23.486  0.00  0.00    +0.039 A 
ATOM     17  C   UNL     1       0.908   1.016  24.025  0.00  0.00    +0.014 A 
ATOM     18  C   UNL     1       1.133  -0.932  22.614  0.00  0.00    +0.014 A 
ATOM     19  C   UNL     1       2.206   1.406  23.695  0.00  0.00    +0.021 A 
ATOM     20  C   UNL     1       2.431  -0.543  22.283  0.00  0.00    +0.021 A 
ATOM     21  C   UNL     1       2.968   0.626  22.823  0.00  0.00    +0.041 A 
ENDBRANCH  15  16
BRANCH  14  11
ATOM      3  N   UNL     1      -5.255   2.542  24.859  0.00  0.00    -0.299 NA
ATOM     10  C   UNL     1      -4.121   2.016  24.095  0.00  0.00    +0.097 C 
ATOM     11  C   UNL     1      -4.321   0.497  24.193  0.00  0.00    +0.092 C 
ATOM     12  C   UNL     1      -5.334   1.694  26.049  0.00  0.00    +0.085 C 
ATOM     13  C   UNL     1      -5.139   0.294  25.480  0.00  0.00    +0.029 C 
BRANCH   3   6
ATOM      6  C   UNL     1      -5.028   3.943  25.233  0.00  0.00    +0.057 C 
ATOM      7  C   UNL     1      -4.098   4.005  26.462  0.00  0.00    +0.019 C 
ATOM      8  C   UNL     1      -3.855   4.515  24.410  0.00  0.00    +0.019 C 
ATOM      9  C   UNL     1      -3.330   5.125  25.727  0.00  0.00    +0.003 C 
ENDBRANCH   3   6
ENDBRANCH  14  11
TORSDOF 3
ENDMDL
